CHEMBL490860
     RDKit          3D

  0  0  0  0  0  0  0  0  0  0999 V3000
M  V30 BEGIN CTAB
M  V30 COUNTS 40 44 0 0 0
M  V30 BEGIN ATOM
M  V30 1 C 1.700035 -3.255518 3.120602 0
M  V30 2 N 0.645687 -2.685397 2.280181 0
M  V30 3 C 0.425283 -1.413069 1.940348 0
M  V30 4 C -0.684453 -1.321557 1.133664 0
M  V30 5 C -1.163912 -0.028780 0.592910 0
M  V30 6 C -0.560595 0.964190 -0.001494 0
M  V30 7 C 0.860322 1.060381 -0.310419 0
M  V30 8 C 1.692282 0.075145 -0.842286 0
M  V30 9 O 2.904768 0.561762 -0.955369 0
M  V30 10 C 2.979035 1.797313 -0.546853 0
M  V30 11 C 4.086496 2.648328 -0.508711 0
M  V30 12 C 3.790892 3.908266 -0.003961 0
M  V30 13 C 2.543099 4.333220 0.432513 0
M  V30 14 F 2.435075 5.598586 0.897464 0
M  V30 15 C 1.504292 3.417114 0.355765 0
M  V30 16 C 1.711951 2.142378 -0.134530 0
M  V30 17 C -1.580274 1.966271 -0.298482 0
M  V30 18 O -1.482335 3.097726 -0.870562 0
M  V30 19 N -2.855873 1.537204 0.151314 0
M  V30 20 C -2.617379 0.242886 0.736388 0
M  V30 21 O -3.594280 -0.389132 1.231696 0
M  V30 22 C -1.126354 -2.620551 1.001488 0
M  V30 23 C -2.210075 -3.065950 0.277453 0
M  V30 24 C -2.475083 -4.436023 0.273037 0
M  V30 25 I -4.129026 -5.129733 -0.831048 0
M  V30 26 C -1.686598 -5.322708 0.966324 0
M  V30 27 C -0.613520 -4.813746 1.672672 0
M  V30 28 C -0.301319 -3.468319 1.713379 0
M  V30 29 H 2.465887 -2.503165 3.376240 0
M  V30 30 H 2.065487 -4.176946 2.669534 0
M  V30 31 H 1.231472 -3.555912 4.098096 0
M  V30 32 H 1.060329 -0.613355 2.279892 0
M  V30 33 H 1.380835 -0.911080 -1.109331 0
M  V30 34 H 5.076158 2.371704 -0.833155 0
M  V30 35 H 4.628161 4.613173 0.044628 0
M  V30 36 H 0.555850 3.765005 0.705577 0
M  V30 37 H -3.775996 2.034656 0.080683 0
M  V30 38 H -2.861678 -2.437063 -0.297589 0
M  V30 39 H -1.889687 -6.385056 0.965348 0
M  V30 40 H 0.068524 -5.450693 2.252422 0
M  V30 END ATOM
M  V30 BEGIN BOND
M  V30 1 1 1 2
M  V30 2 1 2 3
M  V30 3 2 3 4
M  V30 4 1 4 5
M  V30 5 2 5 6
M  V30 6 1 6 7
M  V30 7 2 7 8
M  V30 8 1 8 9
M  V30 9 1 9 10
M  V30 10 2 10 11
M  V30 11 1 11 12
M  V30 12 2 12 13
M  V30 13 1 13 14
M  V30 14 1 13 15
M  V30 15 2 15 16
M  V30 16 1 6 17
M  V30 17 2 17 18
M  V30 18 1 17 19
M  V30 19 1 19 20
M  V30 20 2 20 21
M  V30 21 1 4 22
M  V30 22 2 22 23
M  V30 23 1 23 24
M  V30 24 1 24 25
M  V30 25 2 24 26
M  V30 26 1 26 27
M  V30 27 2 27 28
M  V30 28 1 28 2
M  V30 29 1 20 5
M  V30 30 1 28 22
M  V30 31 1 16 7
M  V30 32 1 16 10
M  V30 33 1 1 29
M  V30 34 1 1 30
M  V30 35 1 1 31
M  V30 36 1 3 32
M  V30 37 1 8 33
M  V30 38 1 11 34
M  V30 39 1 12 35
M  V30 40 1 15 36
M  V30 41 1 19 37
M  V30 42 1 23 38
M  V30 43 1 26 39
M  V30 44 1 27 40
M  V30 END BOND
M  V30 END CTAB
M  END
>  <Dataset>  (1) 
ChEMBL_Kinases

>  <Ligand_Instance>  (1) 
nan

>  <PDB_ID>  (1) 
nan

>  <Standardized_SMILES>  (1) 
Cn1cc(C2=C(c3coc4ccc(F)cc34)C(=O)NC2=O)c2cc(I)ccc21

>  <Name>  (1) 
nan

>  <Pocket>  (1) 
nan

>  <ATP_Site>  (1) 
nan

>  <Peripheral>  (1) 
nan

>  <Num_H_Atoms_ProtBoundConf>  (1) 
nan

>  <Num_Resolved_Atoms>  (1) 
nan

>  <Num_Not_Resolved_Atoms>  (1) 
nan

$$$$
CHEMBL4877044
     RDKit          3D

  0  0  0  0  0  0  0  0  0  0999 V3000
M  V30 BEGIN CTAB
M  V30 COUNTS 51 54 0 0 0
M  V30 BEGIN ATOM
M  V30 1 C 5.037241 -2.280807 4.366112 0
M  V30 2 N 5.722371 -2.563477 3.109843 0
M  V30 3 N 6.889738 -3.149147 3.017636 0
M  V30 4 C 7.226824 -3.254128 1.729934 0
M  V30 5 C 6.170449 -2.683858 1.021057 0
M  V30 6 C 5.208174 -2.242253 1.906566 0
M  V30 7 C 3.948005 -1.588048 1.575230 0
M  V30 8 C 2.789427 -1.987006 2.208466 0
M  V30 9 C 1.587047 -1.385778 1.913887 0
M  V30 10 F 0.443953 -1.755775 2.516422 0
M  V30 11 C 1.447358 -0.370462 0.993350 0
M  V30 12 C 0.259976 0.361740 0.572716 0
M  V30 13 O 0.285287 1.287826 -0.301706 0
M  V30 14 N -1.060219 0.202251 1.018342 0
M  V30 15 C -2.155911 0.978650 0.535575 0 CFG=2
M  V30 16 C -2.760490 1.668281 1.761788 0
M  V30 17 N -3.532517 0.737153 2.551346 0
M  V30 18 C -4.759459 0.347445 1.914207 0
M  V30 19 C -4.571003 0.554200 0.416769 0
M  V30 20 C -3.219049 0.001901 0.049647 0 CFG=1
M  V30 21 C -3.100447 -0.281720 -1.395496 0
M  V30 22 C -3.210569 0.782739 -2.290601 0
M  V30 23 C -3.101826 0.534869 -3.649298 0
M  V30 24 C -2.887171 -0.743060 -4.129361 0
M  V30 25 F -2.785767 -0.944240 -5.479374 0
M  V30 26 C -2.773861 -1.816743 -3.268633 0
M  V30 27 C -2.886162 -1.540684 -1.921642 0
M  V30 28 C 2.628984 0.029035 0.354457 0
M  V30 29 C 3.834014 -0.572463 0.648692 0
M  V30 30 F 4.947435 -0.150080 0.003592 0
M  V30 31 H 4.455416 -1.351615 4.338979 0
M  V30 32 H 4.417182 -3.163125 4.675793 0
M  V30 33 H 5.790638 -2.156441 5.174835 0
M  V30 34 H 8.111615 -3.680247 1.310724 0
M  V30 35 H 6.131481 -2.609608 -0.052112 0
M  V30 36 H 2.762315 -2.772184 2.950575 0
M  V30 37 H -1.251124 -0.523726 1.742240 0
M  V30 38 H -1.896604 1.720587 -0.218594 0
M  V30 39 H -1.899492 1.980360 2.419182 0
M  V30 40 H -3.351225 2.548962 1.512682 0
M  V30 41 H -3.651656 1.061268 3.517020 0
M  V30 42 H -4.903951 -0.751872 2.074100 0
M  V30 43 H -5.644742 0.895797 2.301288 0
M  V30 44 H -5.394492 -0.018852 -0.052131 0
M  V30 45 H -4.593272 1.621714 0.185410 0
M  V30 46 H -3.106130 -0.959201 0.598242 0
M  V30 47 H -3.378328 1.787741 -1.932463 0
M  V30 48 H -3.191699 1.384446 -4.326828 0
M  V30 49 H -2.605407 -2.820244 -3.643128 0
M  V30 50 H -2.807733 -2.327966 -1.202341 0
M  V30 51 H 2.633074 0.831136 -0.398338 0
M  V30 END ATOM
M  V30 BEGIN BOND
M  V30 1 1 1 2
M  V30 2 1 2 3
M  V30 3 2 3 4
M  V30 4 1 4 5
M  V30 5 2 5 6
M  V30 6 1 6 7
M  V30 7 2 7 8
M  V30 8 1 8 9
M  V30 9 1 9 10
M  V30 10 2 9 11
M  V30 11 1 11 12
M  V30 12 2 12 13
M  V30 13 1 12 14
M  V30 14 1 14 15
M  V30 15 1 15 16
M  V30 16 1 16 17
M  V30 17 1 17 18
M  V30 18 1 18 19
M  V30 19 1 19 20
M  V30 20 1 20 21
M  V30 21 2 21 22
M  V30 22 1 22 23
M  V30 23 2 23 24
M  V30 24 1 24 25
M  V30 25 1 24 26
M  V30 26 2 26 27
M  V30 27 1 11 28
M  V30 28 2 28 29
M  V30 29 1 29 30
M  V30 30 1 6 2
M  V30 31 1 29 7
M  V30 32 1 20 15
M  V30 33 1 27 21
M  V30 34 1 1 31
M  V30 35 1 1 32
M  V30 36 1 1 33
M  V30 37 1 4 34
M  V30 38 1 5 35
M  V30 39 1 8 36
M  V30 40 1 14 37
M  V30 41 1 15 38 CFG=3
M  V30 42 1 16 39
M  V30 43 1 16 40
M  V30 44 1 17 41
M  V30 45 1 18 42
M  V30 46 1 18 43
M  V30 47 1 19 44
M  V30 48 1 19 45
M  V30 49 1 20 46 CFG=1
M  V30 50 1 22 47
M  V30 51 1 23 48
M  V30 52 1 26 49
M  V30 53 1 27 50
M  V30 54 1 28 51
M  V30 END BOND
M  V30 END CTAB
M  END
>  <Dataset>  (2) 
ChEMBL_Kinases

>  <Ligand_Instance>  (2) 
nan

>  <PDB_ID>  (2) 
nan

>  <Standardized_SMILES>  (2) 
Cn1nccc1-c1cc(F)c(C(=O)N[C@@H]2CNCC[C@H]2c2ccc(F)cc2)cc1F

>  <Name>  (2) 
nan

>  <Pocket>  (2) 
nan

>  <ATP_Site>  (2) 
nan

>  <Peripheral>  (2) 
nan

>  <Num_H_Atoms_ProtBoundConf>  (2) 
nan

>  <Num_Resolved_Atoms>  (2) 
nan

>  <Num_Not_Resolved_Atoms>  (2) 
nan

$$$$
CHEMBL491503
     RDKit          3D

  0  0  0  0  0  0  0  0  0  0999 V3000
M  V30 BEGIN CTAB
M  V30 COUNTS 57 61 0 0 0
M  V30 BEGIN ATOM
M  V30 1 O 0.713883 -2.363009 1.957650 0
M  V30 2 C 1.632816 -2.285578 3.002494 0
M  V30 3 C 3.003063 -2.742329 2.588463 0
M  V30 4 N 3.607290 -2.033662 1.548888 0
M  V30 5 C 4.011416 -0.716241 1.743465 0
M  V30 6 C 4.619217 -0.039621 0.570266 0
M  V30 7 C 3.847592 -0.443442 -0.693964 0
M  V30 8 C 2.408789 -0.184853 -0.511653 0
M  V30 9 C 1.936209 0.939694 0.137338 0
M  V30 10 C 0.602284 1.234363 0.331640 0
M  V30 11 C -0.332182 0.330132 -0.163941 0
M  V30 12 C -1.729225 0.290776 -0.155231 0
M  V30 13 C -2.610232 1.261215 0.418552 0
M  V30 14 C -2.631938 2.518088 -0.170783 0
M  V30 15 C -3.427569 3.551754 0.276985 0
M  V30 16 N -4.232859 3.359582 1.337297 0
M  V30 17 C -4.234853 2.136979 1.938853 0
M  V30 18 C -3.451987 1.111696 1.501860 0
M  V30 19 C -2.127797 -0.861020 -0.800267 0
M  V30 20 C -3.456966 -1.396601 -1.064564 0
M  V30 21 C -3.814034 -2.270445 -0.029176 0
M  V30 22 C -5.026060 -2.933388 -0.004086 0
M  V30 23 C -5.924192 -2.729621 -1.039340 0
M  V30 24 F -7.153445 -3.336173 -1.108418 0
M  V30 25 C -5.567144 -1.870182 -2.053169 0
M  V30 26 C -4.363223 -1.203752 -2.089223 0
M  V30 27 N -1.020987 -1.540917 -1.211048 0
M  V30 28 C 0.054738 -0.827454 -0.829696 0
M  V30 29 C 1.414317 -1.027908 -0.970843 0
M  V30 30 C 4.171405 -1.909807 -0.855582 0
M  V30 31 C 3.807626 -2.712832 0.338714 0
M  V30 32 H -0.211033 -2.476677 2.241719 0
M  V30 33 H 1.233939 -2.946597 3.796881 0
M  V30 34 H 1.576342 -1.252949 3.372341 0
M  V30 35 H 3.645920 -2.751365 3.493653 0
M  V30 36 H 2.880639 -3.813052 2.268795 0
M  V30 37 H 3.244813 -0.023621 2.151844 0
M  V30 38 H 4.810390 -0.720549 2.547359 0
M  V30 39 H 5.676607 -0.361773 0.428975 0
M  V30 40 H 4.537221 1.047425 0.662265 0
M  V30 41 H 4.210609 0.116941 -1.563430 0
M  V30 42 H 2.610754 1.679537 0.544436 0
M  V30 43 H 0.255911 2.121313 0.843022 0
M  V30 44 H -2.009622 2.742519 -1.028371 0
M  V30 45 H -3.407479 4.526043 -0.227530 0
M  V30 46 H -4.879193 1.973672 2.794201 0
M  V30 47 H -3.431024 0.122656 1.965315 0
M  V30 48 H -3.217047 -2.535283 0.857332 0
M  V30 49 H -5.350937 -3.609277 0.758233 0
M  V30 50 H -6.215838 -1.668970 -2.880124 0
M  V30 51 H -3.968619 -0.516673 -2.807483 0
M  V30 52 H -0.967650 -2.436727 -1.719979 0
M  V30 53 H 1.713040 -1.930891 -1.492877 0
M  V30 54 H 5.281578 -1.948631 -1.053582 0
M  V30 55 H 3.711281 -2.308044 -1.764406 0
M  V30 56 H 4.652185 -3.447586 0.507416 0
M  V30 57 H 2.953273 -3.400634 0.053601 0
M  V30 END ATOM
M  V30 BEGIN BOND
M  V30 1 1 1 2
M  V30 2 1 2 3
M  V30 3 1 3 4
M  V30 4 1 4 5
M  V30 5 1 5 6
M  V30 6 1 6 7
M  V30 7 1 7 8
M  V30 8 2 8 9
M  V30 9 1 9 10
M  V30 10 2 10 11
M  V30 11 1 11 12
M  V30 12 1 12 13
M  V30 13 2 13 14
M  V30 14 1 14 15
M  V30 15 2 15 16
M  V30 16 1 16 17
M  V30 17 2 17 18
M  V30 18 2 12 19
M  V30 19 1 19 20
M  V30 20 2 20 21
M  V30 21 1 21 22
M  V30 22 2 22 23
M  V30 23 1 23 24
M  V30 24 1 23 25
M  V30 25 2 25 26
M  V30 26 1 19 27
M  V30 27 1 27 28
M  V30 28 2 28 29
M  V30 29 1 7 30
M  V30 30 1 30 31
M  V30 31 1 31 4
M  V30 32 1 29 8
M  V30 33 1 28 11
M  V30 34 1 18 13
M  V30 35 1 26 20
M  V30 36 1 1 32
M  V30 37 1 2 33
M  V30 38 1 2 34
M  V30 39 1 3 35
M  V30 40 1 3 36
M  V30 41 1 5 37
M  V30 42 1 5 38
M  V30 43 1 6 39
M  V30 44 1 6 40
M  V30 45 1 7 41
M  V30 46 1 9 42
M  V30 47 1 10 43
M  V30 48 1 14 44
M  V30 49 1 15 45
M  V30 50 1 17 46
M  V30 51 1 18 47
M  V30 52 1 21 48
M  V30 53 1 22 49
M  V30 54 1 25 50
M  V30 55 1 26 51
M  V30 56 1 27 52
M  V30 57 1 29 53
M  V30 58 1 30 54
M  V30 59 1 30 55
M  V30 60 1 31 56
M  V30 61 1 31 57
M  V30 END BOND
M  V30 END CTAB
M  END
>  <Dataset>  (3) 
ChEMBL_Kinases

>  <Ligand_Instance>  (3) 
nan

>  <PDB_ID>  (3) 
nan

>  <Standardized_SMILES>  (3) 
OCCN1CCC(c2ccc3c(-c4ccncc4)c(-c4ccc(F)cc4)[nH]c3c2)CC1

>  <Name>  (3) 
nan

>  <Pocket>  (3) 
nan

>  <ATP_Site>  (3) 
nan

>  <Peripheral>  (3) 
nan

>  <Num_H_Atoms_ProtBoundConf>  (3) 
nan

>  <Num_Resolved_Atoms>  (3) 
nan

>  <Num_Not_Resolved_Atoms>  (3) 
nan

$$$$
CHEMBL3884813
     RDKit          3D

  0  0  0  0  0  0  0  0  0  0999 V3000
M  V30 BEGIN CTAB
M  V30 COUNTS 58 61 0 0 0
M  V30 BEGIN ATOM
M  V30 1 C 2.932724 -1.843092 4.200546 0
M  V30 2 C 4.165425 -1.724775 3.727930 0
M  V30 3 C 4.460986 -1.223994 2.399580 0
M  V30 4 O 5.645629 -1.106331 1.935339 0
M  V30 5 N 3.482430 -0.807038 1.460868 0
M  V30 6 C 4.045678 -0.359189 0.233489 0
M  V30 7 C 4.284974 -1.208296 -0.836951 0
M  V30 8 C 4.833955 -0.715121 -2.002375 0
M  V30 9 C 5.147995 0.637908 -2.103080 0
M  V30 10 C 4.905407 1.485576 -1.025153 0
M  V30 11 C 4.354889 0.996173 0.146489 0
M  V30 12 S 4.064685 2.131485 1.500952 0
M  V30 13 C 2.411670 2.780644 1.286834 0
M  V30 14 N 1.332210 2.190591 1.816529 0
M  V30 15 C 0.085087 2.640765 1.679743 0
M  V30 16 N -1.072476 2.027189 2.236006 0
M  V30 17 C -1.821674 1.026522 1.540752 0
M  V30 18 C -2.951209 0.425333 2.071929 0
M  V30 19 C -3.632101 -0.536507 1.351972 0
M  V30 20 C -3.232050 -0.937579 0.098487 0
M  V30 21 N -3.934877 -1.925366 -0.637472 0
M  V30 22 C -5.147118 -2.594898 -0.221548 0
M  V30 23 C -4.855979 -4.051591 0.075034 0
M  V30 24 N -3.748955 -4.557891 -0.669570 0
M  V30 25 C -2.514206 -4.608583 0.048753 0
M  V30 26 C -3.632972 -3.954257 -1.981098 0
M  V30 27 C -3.584210 -2.447516 -1.918154 0
M  V30 28 C -2.110288 -0.339726 -0.427749 0
M  V30 29 C -1.417226 0.622905 0.276702 0
M  V30 30 N -0.111720 3.757421 0.966301 0
M  V30 31 C 0.883248 4.455691 0.376091 0
M  V30 32 C 2.161571 3.940444 0.551863 0
M  V30 33 Cl 3.490496 4.791453 -0.182240 0
M  V30 34 H 2.086501 -1.561326 3.591317 0
M  V30 35 H 2.792650 -2.225120 5.201898 0
M  V30 36 H 5.017126 -2.003247 4.326880 0
M  V30 37 H 2.473334 -0.855698 1.723540 0
M  V30 38 H 4.039191 -2.258703 -0.753490 0
M  V30 39 H 5.024807 -1.368208 -2.843549 0
M  V30 40 H 5.578932 1.024354 -3.018550 0
M  V30 41 H 5.174394 2.515772 -1.180555 0
M  V30 42 H -1.412146 2.300825 3.192527 0
M  V30 43 H -3.244076 0.755453 3.053645 0
M  V30 44 H -4.482197 -0.935376 1.845599 0
M  V30 45 H -5.944181 -2.534668 -0.992078 0
M  V30 46 H -5.591236 -2.185288 0.710724 0
M  V30 47 H -5.759799 -4.630783 -0.203964 0
M  V30 48 H -4.648660 -4.194475 1.154169 0
M  V30 49 H -1.902434 -5.464888 -0.311259 0
M  V30 50 H -1.887432 -3.709356 -0.006309 0
M  V30 51 H -2.728354 -4.791092 1.119489 0
M  V30 52 H -2.780773 -4.386297 -2.544192 0
M  V30 53 H -4.553746 -4.240167 -2.527515 0
M  V30 54 H -4.319360 -2.018759 -2.658799 0
M  V30 55 H -2.578705 -2.144841 -2.270077 0
M  V30 56 H -1.697679 -0.558966 -1.384431 0
M  V30 57 H -0.525394 1.110252 -0.120758 0
M  V30 58 H 0.691851 5.354401 -0.193791 0
M  V30 END ATOM
M  V30 BEGIN BOND
M  V30 1 2 1 2
M  V30 2 1 2 3
M  V30 3 2 3 4
M  V30 4 1 3 5
M  V30 5 1 5 6
M  V30 6 2 6 7
M  V30 7 1 7 8
M  V30 8 2 8 9
M  V30 9 1 9 10
M  V30 10 2 10 11
M  V30 11 1 11 12
M  V30 12 1 12 13
M  V30 13 2 13 14
M  V30 14 1 14 15
M  V30 15 1 15 16
M  V30 16 1 16 17
M  V30 17 2 17 18
M  V30 18 1 18 19
M  V30 19 2 19 20
M  V30 20 1 20 21
M  V30 21 1 21 22
M  V30 22 1 22 23
M  V30 23 1 23 24
M  V30 24 1 24 25
M  V30 25 1 24 26
M  V30 26 1 26 27
M  V30 27 1 20 28
M  V30 28 2 28 29
M  V30 29 2 15 30
M  V30 30 1 30 31
M  V30 31 2 31 32
M  V30 32 1 32 33
M  V30 33 1 11 6
M  V30 34 1 32 13
M  V30 35 1 29 17
M  V30 36 1 27 21
M  V30 37 1 1 34
M  V30 38 1 1 35
M  V30 39 1 2 36
M  V30 40 1 5 37
M  V30 41 1 7 38
M  V30 42 1 8 39
M  V30 43 1 9 40
M  V30 44 1 10 41
M  V30 45 1 16 42
M  V30 46 1 18 43
M  V30 47 1 19 44
M  V30 48 1 22 45
M  V30 49 1 22 46
M  V30 50 1 23 47
M  V30 51 1 23 48
M  V30 52 1 25 49
M  V30 53 1 25 50
M  V30 54 1 25 51
M  V30 55 1 26 52
M  V30 56 1 26 53
M  V30 57 1 27 54
M  V30 58 1 27 55
M  V30 59 1 28 56
M  V30 60 1 29 57
M  V30 61 1 31 58
M  V30 END BOND
M  V30 END CTAB
M  END
>  <Dataset>  (4) 
ChEMBL_Kinases

>  <Ligand_Instance>  (4) 
nan

>  <PDB_ID>  (4) 
nan

>  <Standardized_SMILES>  (4) 
C=CC(=O)Nc1ccccc1Sc1nc(Nc2ccc(N3CCN(C)CC3)cc2)ncc1Cl

>  <Name>  (4) 
nan

>  <Pocket>  (4) 
nan

>  <ATP_Site>  (4) 
nan

>  <Peripheral>  (4) 
nan

>  <Num_H_Atoms_ProtBoundConf>  (4) 
nan

>  <Num_Resolved_Atoms>  (4) 
nan

>  <Num_Not_Resolved_Atoms>  (4) 
nan

$$$$
CHEMBL490992
     RDKit          3D

  0  0  0  0  0  0  0  0  0  0999 V3000
M  V30 BEGIN CTAB
M  V30 COUNTS 38 41 0 0 0
M  V30 BEGIN ATOM
M  V30 1 C -0.949249 -4.260217 1.407931 0
M  V30 2 C -0.414754 -2.905262 0.917511 0 CFG=2
M  V30 3 N 1.006507 -2.991413 0.883545 0
M  V30 4 C 1.890159 -1.961209 0.446867 0
M  V30 5 C 1.433473 -0.750421 -0.023197 0
M  V30 6 C 2.334412 0.191741 -0.421897 0
M  V30 7 C 2.000715 1.434034 -0.907324 0
M  V30 8 C 0.828330 2.232597 -1.193090 0
M  V30 9 C -0.445307 1.897133 -1.023472 0
M  V30 10 C -1.525870 2.657375 -1.295336 0
M  V30 11 C -1.089087 3.984096 -1.835916 0
M  V30 12 S 0.777126 3.854885 -1.837556 0
M  V30 13 N 3.226717 1.977750 -1.155902 0
M  V30 14 O 4.146517 1.129690 -0.842610 0
M  V30 15 C 3.693675 0.010006 -0.385236 0
M  V30 16 C 4.119888 -1.211434 0.089743 0
M  V30 17 N 3.239636 -2.125280 0.476656 0
M  V30 18 C -0.951656 -1.814526 1.773043 0
M  V30 19 C -1.993518 -0.927904 1.528228 0
M  V30 20 C -2.331060 0.020151 2.468455 0
M  V30 21 C -1.662268 0.127344 3.669003 0
M  V30 22 C -0.625634 -0.750140 3.919835 0
M  V30 23 C -0.279829 -1.704151 2.983221 0
M  V30 24 H -0.419676 -4.601782 2.300914 0
M  V30 25 H -0.708262 -4.974449 0.591953 0
M  V30 26 H -2.042627 -4.233013 1.487968 0
M  V30 27 H -0.790028 -2.839739 -0.124081 0
M  V30 28 H 1.495994 -3.872758 1.198788 0
M  V30 29 H 0.388666 -0.644467 -0.041025 0
M  V30 30 H -0.983945 1.039819 -0.666984 0
M  V30 31 H -2.538364 2.962118 -1.388895 0
M  V30 32 H -1.310302 5.055957 -2.256012 0
M  V30 33 H 5.191815 -1.360309 0.120876 0
M  V30 34 H -2.451065 -1.094301 0.562778 0
M  V30 35 H -3.161935 0.625805 2.117285 0
M  V30 36 H -2.012599 0.909356 4.332691 0
M  V30 37 H -0.158296 -0.594528 4.882056 0
M  V30 38 H 0.546421 -2.313684 3.321367 0
M  V30 END ATOM
M  V30 BEGIN BOND
M  V30 1 1 1 2
M  V30 2 1 2 3
M  V30 3 1 3 4
M  V30 4 2 4 5
M  V30 5 1 5 6
M  V30 6 1 6 7
M  V30 7 1 7 8
M  V30 8 2 8 9
M  V30 9 1 9 10
M  V30 10 2 10 11
M  V30 11 1 11 12
M  V30 12 2 7 13
M  V30 13 1 13 14
M  V30 14 1 14 15
M  V30 15 1 15 16
M  V30 16 2 16 17
M  V30 17 1 2 18
M  V30 18 2 18 19
M  V30 19 1 19 20
M  V30 20 2 20 21
M  V30 21 1 21 22
M  V30 22 2 22 23
M  V30 23 1 17 4
M  V30 24 1 23 18
M  V30 25 2 15 6
M  V30 26 1 12 8
M  V30 27 1 1 24
M  V30 28 1 1 25
M  V30 29 1 1 26
M  V30 30 1 2 27 CFG=3
M  V30 31 1 3 28
M  V30 32 1 5 29
M  V30 33 1 9 30
M  V30 34 1 10 31
M  V30 35 1 11 32
M  V30 36 1 16 33
M  V30 37 1 19 34
M  V30 38 1 20 35
M  V30 39 1 21 36
M  V30 40 1 22 37
M  V30 41 1 23 38
M  V30 END BOND
M  V30 END CTAB
M  END
>  <Dataset>  (5) 
ChEMBL_Kinases

>  <Ligand_Instance>  (5) 
nan

>  <PDB_ID>  (5) 
nan

>  <Standardized_SMILES>  (5) 
C[C@H](Nc1cc2c(-c3cccs3)noc2cn1)c1ccccc1

>  <Name>  (5) 
nan

>  <Pocket>  (5) 
nan

>  <ATP_Site>  (5) 
nan

>  <Peripheral>  (5) 
nan

>  <Num_H_Atoms_ProtBoundConf>  (5) 
nan

>  <Num_Resolved_Atoms>  (5) 
nan

>  <Num_Not_Resolved_Atoms>  (5) 
nan

$$$$
CHEMBL4877032
     RDKit          3D

  0  0  0  0  0  0  0  0  0  0999 V3000
M  V30 BEGIN CTAB
M  V30 COUNTS 51 54 0 0 0
M  V30 BEGIN ATOM
M  V30 1 C 5.028319 1.506962 4.952022 0
M  V30 2 N 5.506985 0.171503 4.671438 0
M  V30 3 N 6.539886 -0.511145 5.145214 0
M  V30 4 C 6.604487 -1.724454 4.600282 0
M  V30 5 C 5.527257 -1.791012 3.724063 0
M  V30 6 Cl 5.246137 -3.260999 2.782486 0
M  V30 7 C 4.842475 -0.571745 3.786276 0
M  V30 8 C 3.667760 -0.434772 2.933492 0
M  V30 9 C 3.693426 -0.840798 1.618349 0
M  V30 10 C 2.582234 -0.723323 0.771998 0
M  V30 11 F 2.815891 -1.186679 -0.501679 0
M  V30 12 C 1.419172 -0.177871 1.284374 0
M  V30 13 C 0.336105 -0.102000 0.331100 0
M  V30 14 O 0.568814 -0.534949 -0.850288 0
M  V30 15 N -0.982682 0.343621 0.345644 0
M  V30 16 C -1.886210 0.312528 -0.763961 0 CFG=2
M  V30 17 C -2.381743 1.685290 -1.170615 0
M  V30 18 N -3.180205 1.463378 -2.361377 0
M  V30 19 C -4.454913 0.957585 -1.965088 0
M  V30 20 C -4.381379 0.149152 -0.720462 0
M  V30 21 C -3.098043 -0.586476 -0.491848 0 CFG=1
M  V30 22 C -2.999881 -1.893854 -1.151340 0
M  V30 23 C -3.019334 -2.077844 -2.531691 0
M  V30 24 C -2.929551 -3.284033 -3.177000 0
M  V30 25 C -2.809602 -4.419949 -2.416217 0
M  V30 26 F -2.714821 -5.654064 -2.965066 0
M  V30 27 C -2.780423 -4.348335 -1.042663 0
M  V30 28 F -2.663911 -5.437310 -0.253445 0
M  V30 29 C -2.874995 -3.109659 -0.471678 0
M  V30 30 C 1.437179 0.213351 2.599049 0
M  V30 31 Cl -0.001166 0.902686 3.281079 0
M  V30 32 C 2.512670 0.109669 3.451351 0
M  V30 33 H 4.239923 1.485417 5.709419 0
M  V30 34 H 4.817661 2.082502 4.041309 0
M  V30 35 H 5.890724 2.051473 5.436418 0
M  V30 36 H 7.373961 -2.460564 4.841528 0
M  V30 37 H 4.617308 -1.253745 1.278623 0
M  V30 38 H -1.283820 0.719954 1.263139 0
M  V30 39 H -1.425428 -0.114972 -1.676887 0
M  V30 40 H -3.055403 2.123800 -0.418454 0
M  V30 41 H -1.525538 2.323717 -1.450081 0
M  V30 42 H -3.227886 2.281463 -2.984801 0
M  V30 43 H -4.992881 0.433937 -2.798934 0
M  V30 44 H -5.115966 1.850191 -1.762164 0
M  V30 45 H -4.546389 0.805622 0.183968 0
M  V30 46 H -5.194639 -0.603960 -0.669529 0
M  V30 47 H -3.050130 -0.815147 0.614715 0
M  V30 48 H -3.112244 -1.212612 -3.169411 0
M  V30 49 H -2.951889 -3.346966 -4.256462 0
M  V30 50 H -2.851612 -3.053053 0.626364 0
M  V30 51 H 2.472017 0.431783 4.472106 0
M  V30 END ATOM
M  V30 BEGIN BOND
M  V30 1 1 1 2
M  V30 2 1 2 3
M  V30 3 2 3 4
M  V30 4 1 4 5
M  V30 5 1 5 6
M  V30 6 2 5 7
M  V30 7 1 7 8
M  V30 8 2 8 9
M  V30 9 1 9 10
M  V30 10 1 10 11
M  V30 11 2 10 12
M  V30 12 1 12 13
M  V30 13 2 13 14
M  V30 14 1 13 15
M  V30 15 1 15 16
M  V30 16 1 16 17
M  V30 17 1 17 18
M  V30 18 1 18 19
M  V30 19 1 19 20
M  V30 20 1 20 21
M  V30 21 1 21 22
M  V30 22 2 22 23
M  V30 23 1 23 24
M  V30 24 2 24 25
M  V30 25 1 25 26
M  V30 26 1 25 27
M  V30 27 1 27 28
M  V30 28 2 27 29
M  V30 29 1 12 30
M  V30 30 1 30 31
M  V30 31 2 30 32
M  V30 32 1 7 2
M  V30 33 1 32 8
M  V30 34 1 21 16
M  V30 35 1 29 22
M  V30 36 1 1 33
M  V30 37 1 1 34
M  V30 38 1 1 35
M  V30 39 1 4 36
M  V30 40 1 9 37
M  V30 41 1 15 38
M  V30 42 1 16 39 CFG=3
M  V30 43 1 17 40
M  V30 44 1 17 41
M  V30 45 1 18 42
M  V30 46 1 19 43
M  V30 47 1 19 44
M  V30 48 1 20 45
M  V30 49 1 20 46
M  V30 50 1 21 47 CFG=1
M  V30 51 1 23 48
M  V30 52 1 24 49
M  V30 53 1 29 50
M  V30 54 1 32 51
M  V30 END BOND
M  V30 END CTAB
M  END
>  <Dataset>  (6) 
ChEMBL_Kinases

>  <Ligand_Instance>  (6) 
nan

>  <PDB_ID>  (6) 
nan

>  <Standardized_SMILES>  (6) 
Cn1ncc(Cl)c1-c1cc(F)c(C(=O)N[C@@H]2CNCC[C@H]2c2ccc(F)c(F)c2)c(Cl)c1

>  <Name>  (6) 
nan

>  <Pocket>  (6) 
nan

>  <ATP_Site>  (6) 
nan

>  <Peripheral>  (6) 
nan

>  <Num_H_Atoms_ProtBoundConf>  (6) 
nan

>  <Num_Resolved_Atoms>  (6) 
nan

>  <Num_Not_Resolved_Atoms>  (6) 
nan

$$$$
CHEMBL491029
     RDKit          3D

  0  0  0  0  0  0  0  0  0  0999 V3000
M  V30 BEGIN CTAB
M  V30 COUNTS 44 48 0 0 0
M  V30 BEGIN ATOM
M  V30 1 O 0.119831 -4.639902 7.131585 0
M  V30 2 C -0.205976 -5.168348 5.878642 0
M  V30 3 C 0.134411 -4.226071 4.782013 0
M  V30 4 C -0.729209 -3.263447 4.278484 0
M  V30 5 C -0.350732 -2.413678 3.253485 0
M  V30 6 C 0.930938 -2.548148 2.732991 0
M  V30 7 C 1.383900 -1.663271 1.636163 0
M  V30 8 C 0.855430 -0.366670 1.622824 0
M  V30 9 C 1.242949 0.498347 0.622553 0
M  V30 10 C 2.131367 0.123310 -0.359255 0
M  V30 11 O 2.639848 0.829237 -1.434387 0
M  V30 12 C 2.284840 2.125777 -1.763073 0
M  V30 13 C 3.243099 3.115619 -1.773792 0
M  V30 14 N 3.105203 4.433449 -2.064643 0
M  V30 15 C 1.856638 4.838603 -2.390053 0
M  V30 16 C 0.847639 3.922819 -2.404350 0
M  V30 17 S -0.894719 4.080923 -2.780745 0
M  V30 18 C -1.328132 2.256105 -2.502297 0
M  V30 19 C -2.650565 1.823738 -2.677911 0
M  V30 20 N -3.145233 0.660709 -2.229180 0
M  V30 21 N -4.433013 0.605334 -2.587332 0
M  V30 22 N -4.750529 1.706357 -3.247948 0
M  V30 23 N -3.657166 2.453176 -3.303347 0
M  V30 24 C -0.106987 1.744089 -2.158186 0
M  V30 25 C 1.006672 2.522615 -2.092987 0
M  V30 26 C 2.640922 -1.178542 -0.317559 0
M  V30 27 C 2.277049 -2.076284 0.669386 0
M  V30 28 C 1.814065 -3.494916 3.211039 0
M  V30 29 C 1.415917 -4.345698 4.247083 0
M  V30 30 H -0.644894 -4.121932 7.508293 0
M  V30 31 H -1.285310 -5.423503 5.905958 0
M  V30 32 H 0.324635 -6.138788 5.725390 0
M  V30 33 H -1.703472 -3.240602 4.751696 0
M  V30 34 H -1.038408 -1.681401 2.886106 0
M  V30 35 H 0.152521 0.026606 2.346188 0
M  V30 36 H 0.903194 1.507179 0.523409 0
M  V30 37 H 4.268693 2.816666 -1.513387 0
M  V30 38 H 1.553113 5.837231 -2.649394 0
M  V30 39 H -5.620860 2.061821 -3.691787 0
M  V30 40 H -0.170499 0.690227 -1.960143 0
M  V30 41 H 3.353564 -1.604235 -1.034799 0
M  V30 42 H 2.661439 -3.089916 0.718289 0
M  V30 43 H 2.807947 -3.592016 2.800159 0
M  V30 44 H 2.157766 -5.073389 4.582410 0
M  V30 END ATOM
M  V30 BEGIN BOND
M  V30 1 1 1 2
M  V30 2 1 2 3
M  V30 3 2 3 4
M  V30 4 1 4 5
M  V30 5 2 5 6
M  V30 6 1 6 7
M  V30 7 2 7 8
M  V30 8 1 8 9
M  V30 9 2 9 10
M  V30 10 1 10 11
M  V30 11 1 11 12
M  V30 12 2 12 13
M  V30 13 1 13 14
M  V30 14 2 14 15
M  V30 15 1 15 16
M  V30 16 1 16 17
M  V30 17 1 17 18
M  V30 18 1 18 19
M  V30 19 1 19 20
M  V30 20 2 20 21
M  V30 21 1 21 22
M  V30 22 1 22 23
M  V30 23 2 18 24
M  V30 24 1 24 25
M  V30 25 1 10 26
M  V30 26 2 26 27
M  V30 27 1 6 28
M  V30 28 2 28 29
M  V30 29 1 29 3
M  V30 30 1 27 7
M  V30 31 1 25 12
M  V30 32 2 25 16
M  V30 33 2 23 19
M  V30 34 1 1 30
M  V30 35 1 2 31
M  V30 36 1 2 32
M  V30 37 1 4 33
M  V30 38 1 5 34
M  V30 39 1 8 35
M  V30 40 1 9 36
M  V30 41 1 13 37
M  V30 42 1 15 38
M  V30 43 1 22 39
M  V30 44 1 24 40
M  V30 45 1 26 41
M  V30 46 1 27 42
M  V30 47 1 28 43
M  V30 48 1 29 44
M  V30 END BOND
M  V30 END CTAB
M  END
>  <Dataset>  (7) 
ChEMBL_Kinases

>  <Ligand_Instance>  (7) 
nan

>  <PDB_ID>  (7) 
nan

>  <Standardized_SMILES>  (7) 
OCc1ccc(-c2ccc(Oc3cncc4sc(-c5nn[nH]n5)cc34)cc2)cc1

>  <Name>  (7) 
nan

>  <Pocket>  (7) 
nan

>  <ATP_Site>  (7) 
nan

>  <Peripheral>  (7) 
nan

>  <Num_H_Atoms_ProtBoundConf>  (7) 
nan

>  <Num_Resolved_Atoms>  (7) 
nan

>  <Num_Not_Resolved_Atoms>  (7) 
nan

$$$$
CHEMBL607536
     RDKit          3D

  0  0  0  0  0  0  0  0  0  0999 V3000
M  V30 BEGIN CTAB
M  V30 COUNTS 32 33 0 0 0
M  V30 BEGIN ATOM
M  V30 1 C -4.214497 -3.259165 -0.689337 0
M  V30 2 C -2.982923 -2.476779 -0.305116 0
M  V30 3 C -2.838214 -1.066009 -0.679872 0
M  V30 4 C -2.056277 -3.106496 0.371908 0
M  V30 5 C -0.757008 -2.575066 0.870836 0
M  V30 6 O -0.580765 -1.231190 0.533552 0
M  V30 7 C 0.473368 -0.418922 0.816981 0
M  V30 8 C 1.585909 -0.866828 1.531717 0
M  V30 9 C 2.613347 0.021872 1.777074 0
M  V30 10 O 3.698697 -0.345684 2.452238 0
M  V30 11 C 4.674636 0.501762 2.684247 0
M  V30 12 O 5.712997 0.169281 3.324078 0
M  V30 13 C 4.658785 1.815280 2.257832 0
M  V30 14 C 3.546142 2.230153 1.553565 0
M  V30 15 C 2.511544 1.320618 1.311163 0
M  V30 16 C 1.416021 1.800223 0.595087 0
M  V30 17 C 0.414462 0.877294 0.373937 0
M  V30 18 O -0.693397 1.354675 -0.347775 0
M  V30 19 H -3.915686 -4.311335 -0.892111 0
M  V30 20 H -4.931148 -3.298336 0.150621 0
M  V30 21 H -4.679433 -2.891603 -1.608335 0
M  V30 22 H -3.771504 -0.729976 -1.185597 0
M  V30 23 H -1.955453 -0.897524 -1.334380 0
M  V30 24 H -2.752066 -0.424705 0.218796 0
M  V30 25 H -2.131405 -4.148216 0.664971 0
M  V30 26 H 0.107809 -3.158916 0.535950 0
M  V30 27 H -0.783137 -2.651851 1.983461 0
M  V30 28 H 1.628605 -1.882337 1.877044 0
M  V30 29 H 5.457411 2.524704 2.442610 0
M  V30 30 H 3.451422 3.251340 1.179679 0
M  V30 31 H 1.370877 2.819801 0.247210 0
M  V30 32 H -0.581234 1.709636 -1.304659 0
M  V30 END ATOM
M  V30 BEGIN BOND
M  V30 1 1 1 2
M  V30 2 1 2 3
M  V30 3 2 2 4 CFG=2
M  V30 4 1 4 5
M  V30 5 1 5 6
M  V30 6 1 6 7
M  V30 7 2 7 8
M  V30 8 1 8 9
M  V30 9 1 9 10
M  V30 10 1 10 11
M  V30 11 2 11 12
M  V30 12 1 11 13
M  V30 13 2 13 14
M  V30 14 1 14 15
M  V30 15 1 15 16
M  V30 16 2 16 17
M  V30 17 1 17 18
M  V30 18 1 17 7
M  V30 19 2 15 9
M  V30 20 1 1 19
M  V30 21 1 1 20
M  V30 22 1 1 21
M  V30 23 1 3 22
M  V30 24 1 3 23
M  V30 25 1 3 24
M  V30 26 1 4 25
M  V30 27 1 5 26
M  V30 28 1 5 27
M  V30 29 1 8 28
M  V30 30 1 13 29
M  V30 31 1 14 30
M  V30 32 1 16 31
M  V30 33 1 18 32
M  V30 END BOND
M  V30 END CTAB
M  END
>  <Dataset>  (8) 
ChEMBL_Kinases

>  <Ligand_Instance>  (8) 
nan

>  <PDB_ID>  (8) 
nan

>  <Standardized_SMILES>  (8) 
CC(C)=CCOc1cc2oc(=O)ccc2cc1O

>  <Name>  (8) 
PRENYLETIN

>  <Pocket>  (8) 
nan

>  <ATP_Site>  (8) 
nan

>  <Peripheral>  (8) 
nan

>  <Num_H_Atoms_ProtBoundConf>  (8) 
nan

>  <Num_Resolved_Atoms>  (8) 
nan

>  <Num_Not_Resolved_Atoms>  (8) 
nan

$$$$
CHEMBL4876980
     RDKit          3D

  0  0  0  0  0  0  0  0  0  0999 V3000
M  V30 BEGIN CTAB
M  V30 COUNTS 36 39 0 0 0
M  V30 BEGIN ATOM
M  V30 1 N -1.543653 -4.323155 2.271537 0
M  V30 2 C -0.385843 -3.798122 1.603619 0 CFG=2
M  V30 3 C 0.903974 -4.508655 1.940376 0
M  V30 4 C 1.942049 -3.456073 1.599615 0
M  V30 5 N 1.206333 -2.246474 1.285534 0
M  V30 6 C 1.668299 -1.212591 0.422463 0
M  V30 7 N 2.880632 -1.390544 -0.132320 0
M  V30 8 C 3.419011 -0.465278 -0.972841 0
M  V30 9 C 2.627328 0.661480 -1.208405 0
M  V30 10 C 1.378055 0.870589 -0.651941 0
M  V30 11 C 0.612199 2.072245 -0.945942 0
M  V30 12 C 1.025158 3.092403 -1.774292 0
M  V30 13 N 0.006540 3.998122 -1.755644 0
M  V30 14 N -0.954440 3.547105 -0.965690 0
M  V30 15 N -2.130259 4.084423 -0.643529 0
M  V30 16 C -2.996755 3.490544 0.179493 0
M  V30 17 C -2.755529 2.269476 0.770591 0
M  V30 18 C -1.536008 1.721587 0.430894 0
M  V30 19 C -0.633973 2.341541 -0.426898 0
M  V30 20 N 0.936072 -0.120858 0.175249 0
M  V30 21 C -0.026744 -2.385833 2.040100 0
M  V30 22 H -2.332199 -4.325547 1.560877 0
M  V30 23 H -1.831387 -3.584939 2.973878 0
M  V30 24 H -0.472839 -3.801180 0.498442 0
M  V30 25 H 0.889961 -4.728444 3.030731 0
M  V30 26 H 1.035521 -5.430701 1.339553 0
M  V30 27 H 2.577275 -3.293419 2.514099 0
M  V30 28 H 2.606035 -3.769370 0.767279 0
M  V30 29 H 4.389082 -0.570191 -1.438946 0
M  V30 30 H 2.986910 1.451495 -1.871565 0
M  V30 31 H 1.957952 3.163799 -2.324295 0
M  V30 32 H -3.921846 4.013782 0.373486 0
M  V30 33 H -3.452722 1.790283 1.433589 0
M  V30 34 H -1.233969 0.752212 0.839985 0
M  V30 35 H -0.812813 -1.671793 1.725834 0
M  V30 36 H 0.186255 -2.364789 3.130067 0
M  V30 END ATOM
M  V30 BEGIN BOND
M  V30 1 1 1 2
M  V30 2 1 2 3
M  V30 3 1 3 4
M  V30 4 1 4 5
M  V30 5 1 5 6
M  V30 6 2 6 7
M  V30 7 1 7 8
M  V30 8 2 8 9
M  V30 9 1 9 10
M  V30 10 1 10 11
M  V30 11 1 11 12
M  V30 12 2 12 13
M  V30 13 1 13 14
M  V30 14 1 14 15
M  V30 15 2 15 16
M  V30 16 1 16 17
M  V30 17 2 17 18
M  V30 18 1 18 19
M  V30 19 2 10 20
M  V30 20 1 5 21
M  V30 21 1 21 2
M  V30 22 1 20 6
M  V30 23 2 19 11
M  V30 24 1 19 14
M  V30 25 1 1 22
M  V30 26 1 1 23
M  V30 27 1 2 24 CFG=3
M  V30 28 1 3 25
M  V30 29 1 3 26
M  V30 30 1 4 27
M  V30 31 1 4 28
M  V30 32 1 8 29
M  V30 33 1 9 30
M  V30 34 1 12 31
M  V30 35 1 16 32
M  V30 36 1 17 33
M  V30 37 1 18 34
M  V30 38 1 21 35
M  V30 39 1 21 36
M  V30 END BOND
M  V30 END CTAB
M  END
>  <Dataset>  (9) 
ChEMBL_Kinases

>  <Ligand_Instance>  (9) 
nan

>  <PDB_ID>  (9) 
nan

>  <Standardized_SMILES>  (9) 
N[C@@H]1CCN(c2nccc(-c3cnn4ncccc34)n2)C1

>  <Name>  (9) 
nan

>  <Pocket>  (9) 
nan

>  <ATP_Site>  (9) 
nan

>  <Peripheral>  (9) 
nan

>  <Num_H_Atoms_ProtBoundConf>  (9) 
nan

>  <Num_Resolved_Atoms>  (9) 
nan

>  <Num_Not_Resolved_Atoms>  (9) 
nan

$$$$
CHEMBL4876895
     RDKit          3D

  0  0  0  0  0  0  0  0  0  0999 V3000
M  V30 BEGIN CTAB
M  V30 COUNTS 59 64 0 0 0
M  V30 BEGIN ATOM
M  V30 1 C 4.854901 2.351865 4.041928 0
M  V30 2 O 3.653073 2.542631 3.347330 0
M  V30 3 C 3.182963 1.682166 2.348127 0
M  V30 4 N 3.983520 0.609187 2.074832 0
M  V30 5 C 3.591502 -0.276360 1.110892 0
M  V30 6 C 2.396990 0.011928 0.497331 0
M  V30 7 C 1.553950 1.070253 0.729377 0
M  V30 8 C 1.994831 1.930746 1.708167 0
M  V30 9 N 1.289064 3.075645 2.105910 0
M  V30 10 S -0.392155 3.140264 1.713852 0
M  V30 11 O -0.639431 3.138960 0.237089 0
M  V30 12 O -0.968106 4.417611 2.308807 0
M  V30 13 C -1.215341 1.818659 2.506252 0
M  V30 14 C -1.091513 1.659804 3.868430 0
M  V30 15 C -1.738701 0.612591 4.533769 0
M  V30 16 C -2.527745 -0.295306 3.815583 0
M  V30 17 C -2.626900 -0.101745 2.449195 0
M  V30 18 C -1.989848 0.929456 1.792704 0
M  V30 19 C -3.443245 -1.057914 1.784445 0
M  V30 20 O -4.349909 -1.759271 2.207797 0
M  V30 21 N -3.635698 -1.630014 0.510437 0
M  V30 22 C -4.660214 -2.637686 0.289756 0
M  V30 23 C -4.676055 -3.094625 -1.142826 0
M  V30 24 N -3.465400 -3.697175 -1.600250 0
M  V30 25 C -2.391850 -2.983661 -1.976105 0
M  V30 26 C -1.393611 -3.848034 -2.363832 0
M  V30 27 C -1.909143 -5.135729 -2.207248 0
M  V30 28 N -3.168309 -4.978635 -1.741356 0
M  V30 29 C -0.063861 -3.678816 -2.847965 0
M  V30 30 N 0.484573 -4.287400 -3.892580 0
M  V30 31 C 1.763025 -3.970901 -4.159717 0
M  V30 32 N 2.540829 -3.110071 -3.487220 0
M  V30 33 C 2.110168 -2.435203 -2.420693 0
M  V30 34 C 2.736569 -1.542330 -1.627890 0
M  V30 35 C 4.137772 -1.116943 -1.844927 0
M  V30 36 C 2.013431 -0.966569 -0.531180 0
M  V30 37 S 0.311590 -1.790378 -0.679869 0
M  V30 38 C 0.655718 -2.677925 -1.970180 0
M  V30 39 H 4.719844 1.696594 4.937150 0
M  V30 40 H 5.341444 3.314014 4.322077 0
M  V30 41 H 5.616934 1.838767 3.385631 0
M  V30 42 H 4.175517 -1.148346 0.841282 0
M  V30 43 H 0.638371 1.184270 0.175899 0
M  V30 44 H 1.756797 3.849951 2.613608 0
M  V30 45 H -0.485092 2.345932 4.469079 0
M  V30 46 H -1.628023 0.503477 5.615177 0
M  V30 47 H -3.042941 -1.124414 4.332027 0
M  V30 48 H -2.124465 1.002930 0.722635 0
M  V30 49 H -2.892654 -1.103585 0.007857 0
M  V30 50 H -5.663703 -2.286519 0.521025 0
M  V30 51 H -4.357293 -3.528096 0.906738 0
M  V30 52 H -4.978751 -2.222143 -1.760839 0
M  V30 53 H -5.519716 -3.807543 -1.217445 0
M  V30 54 H -2.076978 -1.955366 -2.067245 0
M  V30 55 H -1.502982 -6.131594 -2.383389 0
M  V30 56 H 2.243716 -4.445025 -5.001256 0
M  V30 57 H 4.375438 -1.150638 -2.950330 0
M  V30 58 H 4.272611 -0.038059 -1.588853 0
M  V30 59 H 4.893362 -1.728620 -1.359453 0
M  V30 END ATOM
M  V30 BEGIN BOND
M  V30 1 1 1 2
M  V30 2 1 2 3
M  V30 3 2 3 4
M  V30 4 1 4 5
M  V30 5 2 5 6
M  V30 6 1 6 7
M  V30 7 2 7 8
M  V30 8 1 8 9
M  V30 9 1 9 10
M  V30 10 2 10 11
M  V30 11 2 10 12
M  V30 12 1 10 13
M  V30 13 1 13 14
M  V30 14 2 14 15
M  V30 15 1 15 16
M  V30 16 2 16 17
M  V30 17 1 17 18
M  V30 18 1 17 19
M  V30 19 2 19 20
M  V30 20 1 19 21
M  V30 21 1 21 22
M  V30 22 1 22 23
M  V30 23 1 23 24
M  V30 24 1 24 25
M  V30 25 2 25 26
M  V30 26 1 26 27
M  V30 27 2 27 28
M  V30 28 1 26 29
M  V30 29 1 29 30
M  V30 30 2 30 31
M  V30 31 1 31 32
M  V30 32 2 32 33
M  V30 33 1 33 34
M  V30 34 1 34 35
M  V30 35 2 34 36
M  V30 36 1 36 37
M  V30 37 1 37 38
M  V30 38 1 8 3
M  V30 39 2 18 13
M  V30 40 1 28 24
M  V30 41 2 38 29
M  V30 42 1 36 6
M  V30 43 1 38 33
M  V30 44 1 1 39
M  V30 45 1 1 40
M  V30 46 1 1 41
M  V30 47 1 5 42
M  V30 48 1 7 43
M  V30 49 1 9 44
M  V30 50 1 14 45
M  V30 51 1 15 46
M  V30 52 1 16 47
M  V30 53 1 18 48
M  V30 54 1 21 49
M  V30 55 1 22 50
M  V30 56 1 22 51
M  V30 57 1 23 52
M  V30 58 1 23 53
M  V30 59 1 25 54
M  V30 60 1 27 55
M  V30 61 1 31 56
M  V30 62 1 35 57
M  V30 63 1 35 58
M  V30 64 1 35 59
M  V30 END BOND
M  V30 END CTAB
M  END
>  <Dataset>  (10) 
ChEMBL_Kinases

>  <Ligand_Instance>  (10) 
nan

>  <PDB_ID>  (10) 
nan

>  <Standardized_SMILES>  (10) 
COc1ncc2cc1NS(=O)(=O)c1cccc(c1)C(=O)NCCn1cc(cn1)-c1ncnc3c(C)c-2sc13

>  <Name>  (10) 
nan

>  <Pocket>  (10) 
nan

>  <ATP_Site>  (10) 
nan

>  <Peripheral>  (10) 
nan

>  <Num_H_Atoms_ProtBoundConf>  (10) 
nan

>  <Num_Resolved_Atoms>  (10) 
nan

>  <Num_Not_Resolved_Atoms>  (10) 
nan

$$$$
CHEMBL4876835
     RDKit          3D

  0  0  0  0  0  0  0  0  0  0999 V3000
M  V30 BEGIN CTAB
M  V30 COUNTS 50 54 0 0 0
M  V30 BEGIN ATOM
M  V30 1 C 2.559540 -1.151824 6.765885 0
M  V30 2 C 2.198661 -0.374311 5.540641 0
M  V30 3 C 2.304190 -1.221865 4.316839 0
M  V30 4 C 1.305094 -2.003394 3.745425 0
M  V30 5 C 1.872964 -2.608179 2.621769 0
M  V30 6 N 1.014380 -3.463538 1.876898 0
M  V30 7 C 0.237213 -2.935303 0.809927 0
M  V30 8 N 0.381356 -1.626945 0.582511 0
M  V30 9 C -0.297654 -0.980214 -0.406191 0
M  V30 10 N -0.162594 0.411003 -0.663631 0
M  V30 11 C -0.864491 1.115203 -1.705972 0
M  V30 12 C -0.564865 2.594064 -1.724085 0
M  V30 13 C -0.359106 3.404673 -2.818458 0
M  V30 14 C -0.098786 4.730126 -2.631855 0
M  V30 15 C -0.028395 5.313911 -1.400457 0
M  V30 16 Cl 0.312195 7.022150 -1.292672 0
M  V30 17 C -0.229573 4.532523 -0.271751 0
M  V30 18 C -0.491890 3.196387 -0.462483 0
M  V30 19 C -0.959186 0.407579 -3.013057 0
M  V30 20 C -2.185403 0.716142 -2.190151 0
M  V30 21 N -1.111110 -1.760248 -1.120337 0
M  V30 22 C -1.299890 -3.068031 -0.945213 0
M  V30 23 C -2.165271 -3.799383 -1.734734 0
M  V30 24 C -2.310982 -5.152482 -1.495580 0
M  V30 25 C -1.602500 -5.760564 -0.484136 0
M  V30 26 C -0.743054 -5.055511 0.306367 0
M  V30 27 C -0.611517 -3.710907 0.053260 0
M  V30 28 N 3.162101 -2.196439 2.535197 0
M  V30 29 N 3.405791 -1.368845 3.554068 0
M  V30 30 H 2.297955 -2.213765 6.589083 0
M  V30 31 H 1.953274 -0.720567 7.604163 0
M  V30 32 H 3.635267 -1.000713 6.982143 0
M  V30 33 H 1.179118 0.059516 5.584445 0
M  V30 34 H 2.883919 0.502573 5.477211 0
M  V30 35 H 0.310316 -2.043534 4.195499 0
M  V30 36 H 1.081964 -4.419910 2.244147 0
M  V30 37 H 0.511296 0.905049 -0.014041 0
M  V30 38 H -0.424661 2.901216 -3.752733 0
M  V30 39 H 0.048749 5.283228 -3.565210 0
M  V30 40 H -0.180302 4.964518 0.712818 0
M  V30 41 H -0.644117 2.615139 0.445749 0
M  V30 42 H -0.571909 -0.616643 -3.112603 0
M  V30 43 H -0.949233 0.947903 -3.983068 0
M  V30 44 H -2.889129 1.505442 -2.538545 0
M  V30 45 H -2.734744 -0.184584 -1.854162 0
M  V30 46 H -2.718046 -3.284711 -2.536057 0
M  V30 47 H -2.992476 -5.749415 -2.110965 0
M  V30 48 H -1.729068 -6.837373 -0.306218 0
M  V30 49 H -0.184469 -5.516979 1.098456 0
M  V30 50 H 4.350603 -0.943603 3.661126 0
M  V30 END ATOM
M  V30 BEGIN BOND
M  V30 1 1 1 2
M  V30 2 1 2 3
M  V30 3 2 3 4
M  V30 4 1 4 5
M  V30 5 1 5 6
M  V30 6 1 6 7
M  V30 7 2 7 8
M  V30 8 1 8 9
M  V30 9 1 9 10
M  V30 10 1 10 11
M  V30 11 1 11 12
M  V30 12 2 12 13
M  V30 13 1 13 14
M  V30 14 2 14 15
M  V30 15 1 15 16
M  V30 16 1 15 17
M  V30 17 2 17 18
M  V30 18 1 11 19
M  V30 19 1 19 20
M  V30 20 2 9 21
M  V30 21 1 21 22
M  V30 22 2 22 23
M  V30 23 1 23 24
M  V30 24 2 24 25
M  V30 25 1 25 26
M  V30 26 2 26 27
M  V30 27 2 5 28
M  V30 28 1 28 29
M  V30 29 1 29 3
M  V30 30 1 27 7
M  V30 31 1 20 11
M  V30 32 1 27 22
M  V30 33 1 18 12
M  V30 34 1 1 30
M  V30 35 1 1 31
M  V30 36 1 1 32
M  V30 37 1 2 33
M  V30 38 1 2 34
M  V30 39 1 4 35
M  V30 40 1 6 36
M  V30 41 1 10 37
M  V30 42 1 13 38
M  V30 43 1 14 39
M  V30 44 1 17 40
M  V30 45 1 18 41
M  V30 46 1 19 42
M  V30 47 1 19 43
M  V30 48 1 20 44
M  V30 49 1 20 45
M  V30 50 1 23 46
M  V30 51 1 24 47
M  V30 52 1 25 48
M  V30 53 1 26 49
M  V30 54 1 29 50
M  V30 END BOND
M  V30 END CTAB
M  END
>  <Dataset>  (11) 
ChEMBL_Kinases

>  <Ligand_Instance>  (11) 
nan

>  <PDB_ID>  (11) 
nan

>  <Standardized_SMILES>  (11) 
CCc1cc(Nc2nc(NC3(c4ccc(Cl)cc4)CC3)nc3ccccc23)n[nH]1

>  <Name>  (11) 
nan

>  <Pocket>  (11) 
nan

>  <ATP_Site>  (11) 
nan

>  <Peripheral>  (11) 
nan

>  <Num_H_Atoms_ProtBoundConf>  (11) 
nan

>  <Num_Resolved_Atoms>  (11) 
nan

>  <Num_Not_Resolved_Atoms>  (11) 
nan

$$$$
CHEMBL3884116
     RDKit          3D

  0  0  0  0  0  0  0  0  0  0999 V3000
M  V30 BEGIN CTAB
M  V30 COUNTS 54 57 0 0 0
M  V30 BEGIN ATOM
M  V30 1 C 2.397582 -1.174412 3.115461 0
M  V30 2 C 3.198291 -1.652873 1.914670 0
M  V30 3 C 2.578169 -1.102092 0.638959 0 CFG=2
M  V30 4 C 3.423658 -1.615996 -0.514647 0
M  V30 5 N 2.515748 0.345444 0.675543 0
M  V30 6 C 3.605648 1.268403 0.852293 0
M  V30 7 O 4.815023 0.921912 1.005748 0
M  V30 8 C 3.138234 2.674668 0.832598 0
M  V30 9 C 3.368697 3.233597 2.221296 0
M  V30 10 C 3.794608 3.511829 -0.216557 0
M  V30 11 C 1.677012 2.517608 0.629297 0
M  V30 12 C 0.669781 3.435884 0.521131 0
M  V30 13 N -0.578910 3.003565 0.338110 0
M  V30 14 C -0.941387 1.733081 0.249322 0
M  V30 15 N -2.301858 1.380658 0.053599 0
M  V30 16 C -2.889085 0.096567 -0.066020 0
M  V30 17 C -4.245947 -0.050509 -0.254959 0
M  V30 18 C -4.847601 -1.281831 -0.374878 0
M  V30 19 C -4.112222 -2.445192 -0.311007 0
M  V30 20 C -4.740691 -3.756741 -0.437042 0
M  V30 21 N -6.051217 -3.994183 -0.622374 0
M  V30 22 N -6.250804 -5.319653 -0.690585 0
M  V30 23 C -5.060723 -5.938739 -0.548169 0
M  V30 24 C -4.828152 -7.421841 -0.562586 0
M  V30 25 N -4.143080 -4.961311 -0.393242 0
M  V30 26 C -2.749427 -2.351981 -0.122934 0
M  V30 27 C -2.198566 -1.092818 -0.009053 0
M  V30 28 N 0.073622 0.867192 0.360177 0
M  V30 29 C 1.360507 1.181886 0.544720 0
M  V30 30 H 2.843403 -0.212193 3.427377 0
M  V30 31 H 1.344136 -1.002079 2.821620 0
M  V30 32 H 2.398334 -1.886957 3.953580 0
M  V30 33 H 3.139775 -2.758230 1.946609 0
M  V30 34 H 4.266452 -1.378987 1.996014 0
M  V30 35 H 1.571401 -1.529798 0.488892 0
M  V30 36 H 3.166595 -1.165800 -1.483775 0
M  V30 37 H 3.245378 -2.721525 -0.539825 0
M  V30 38 H 4.509878 -1.522330 -0.268651 0
M  V30 39 H 3.015954 4.274059 2.325668 0
M  V30 40 H 4.435373 3.220138 2.511393 0
M  V30 41 H 2.803439 2.598606 2.921883 0
M  V30 42 H 3.099939 4.320087 -0.515879 0
M  V30 43 H 4.106056 2.931603 -1.109305 0
M  V30 44 H 4.727030 3.961572 0.196247 0
M  V30 45 H 0.860984 4.495744 0.580113 0
M  V30 46 H -2.983814 2.191455 -0.013875 0
M  V30 47 H -4.878597 0.830558 -0.313620 0
M  V30 48 H -5.917873 -1.326995 -0.521705 0
M  V30 49 H -5.152157 -7.895667 -1.493302 0
M  V30 50 H -3.711174 -7.571249 -0.487996 0
M  V30 51 H -5.238237 -7.896758 0.356834 0
M  V30 52 H -3.124542 -5.134047 -0.260283 0
M  V30 53 H -2.174079 -3.256479 -0.072799 0
M  V30 54 H -1.139609 -1.100302 0.134616 0
M  V30 END ATOM
M  V30 BEGIN BOND
M  V30 1 1 1 2
M  V30 2 1 2 3
M  V30 3 1 3 4
M  V30 4 1 3 5
M  V30 5 1 5 6
M  V30 6 2 6 7
M  V30 7 1 6 8
M  V30 8 1 8 9
M  V30 9 1 8 10
M  V30 10 1 8 11
M  V30 11 2 11 12
M  V30 12 1 12 13
M  V30 13 2 13 14
M  V30 14 1 14 15
M  V30 15 1 15 16
M  V30 16 2 16 17
M  V30 17 1 17 18
M  V30 18 2 18 19
M  V30 19 1 19 20
M  V30 20 2 20 21
M  V30 21 1 21 22
M  V30 22 2 22 23
M  V30 23 1 23 24
M  V30 24 1 23 25
M  V30 25 1 19 26
M  V30 26 2 26 27
M  V30 27 1 14 28
M  V30 28 2 28 29
M  V30 29 1 29 5
M  V30 30 1 29 11
M  V30 31 1 27 16
M  V30 32 1 25 20
M  V30 33 1 1 30
M  V30 34 1 1 31
M  V30 35 1 1 32
M  V30 36 1 2 33
M  V30 37 1 2 34
M  V30 38 1 3 35 CFG=3
M  V30 39 1 4 36
M  V30 40 1 4 37
M  V30 41 1 4 38
M  V30 42 1 9 39
M  V30 43 1 9 40
M  V30 44 1 9 41
M  V30 45 1 10 42
M  V30 46 1 10 43
M  V30 47 1 10 44
M  V30 48 1 12 45
M  V30 49 1 15 46
M  V30 50 1 17 47
M  V30 51 1 18 48
M  V30 52 1 24 49
M  V30 53 1 24 50
M  V30 54 1 24 51
M  V30 55 1 25 52
M  V30 56 1 26 53
M  V30 57 1 27 54
M  V30 END BOND
M  V30 END CTAB
M  END
>  <Dataset>  (12) 
ChEMBL_Kinases

>  <Ligand_Instance>  (12) 
nan

>  <PDB_ID>  (12) 
nan

>  <Standardized_SMILES>  (12) 
CC[C@H](C)N1C(=O)C(C)(C)c2cnc(Nc3ccc(-c4nnc(C)[nH]4)cc3)nc21

>  <Name>  (12) 
nan

>  <Pocket>  (12) 
nan

>  <ATP_Site>  (12) 
nan

>  <Peripheral>  (12) 
nan

>  <Num_H_Atoms_ProtBoundConf>  (12) 
nan

>  <Num_Resolved_Atoms>  (12) 
nan

>  <Num_Not_Resolved_Atoms>  (12) 
nan

$$$$
CHEMBL490861
     RDKit          3D

  0  0  0  0  0  0  0  0  0  0999 V3000
M  V30 BEGIN CTAB
M  V30 COUNTS 45 49 0 0 0
M  V30 BEGIN ATOM
M  V30 1 C -3.399287 0.487202 0.087252 0
M  V30 2 N -2.357645 -0.510448 0.041629 0
M  V30 3 C -1.183473 -0.484602 -0.641085 0
M  V30 4 C -0.446024 -1.640498 -0.428699 0
M  V30 5 C 0.860327 -1.984512 -0.969332 0
M  V30 6 C 1.976092 -1.261678 -1.058401 0
M  V30 7 C 2.326435 0.097195 -0.670174 0
M  V30 8 C 3.064124 0.980677 -1.470885 0
M  V30 9 O 3.231667 2.119586 -0.861423 0
M  V30 10 C 2.665409 2.112167 0.318865 0
M  V30 11 C 2.555857 3.043390 1.334206 0
M  V30 12 C 1.872803 2.745866 2.512971 0
M  V30 13 C 1.781122 3.777940 3.572669 0
M  V30 14 O 2.831067 3.708718 4.480300 0
M  V30 15 C 1.313893 1.472769 2.611282 0
M  V30 16 C 1.423440 0.540190 1.595851 0
M  V30 17 C 2.093813 0.857570 0.455435 0
M  V30 18 C 3.014315 -2.100080 -1.707429 0
M  V30 19 O 4.225491 -1.784995 -1.978299 0
M  V30 20 N 2.472690 -3.383891 -2.015101 0
M  V30 21 C 1.120122 -3.311818 -1.552555 0
M  V30 22 O 0.424353 -4.358110 -1.723107 0
M  V30 23 C -1.269715 -2.354458 0.433309 0
M  V30 24 C -1.117903 -3.587776 1.033185 0
M  V30 25 C -2.058780 -4.156699 1.889921 0
M  V30 26 C -1.834744 -5.445593 2.481199 0
M  V30 27 N -1.649961 -6.474631 2.974858 0
M  V30 28 C -3.202719 -3.450466 2.153170 0
M  V30 29 C -3.377504 -2.205584 1.560480 0
M  V30 30 C -2.430987 -1.664443 0.716193 0
M  V30 31 H -4.305798 0.075632 -0.444463 0
M  V30 32 H -3.102690 1.469560 -0.322847 0
M  V30 33 H -3.756164 0.656143 1.122791 0
M  V30 34 H -0.863827 0.342569 -1.272772 0
M  V30 35 H 3.454453 0.767387 -2.470170 0
M  V30 36 H 3.017364 4.023243 1.195920 0
M  V30 37 H 0.774675 3.720245 4.061826 0
M  V30 38 H 1.835978 4.763425 3.072198 0
M  V30 39 H 2.520801 4.071476 5.365865 0
M  V30 40 H 0.796941 1.271923 3.531737 0
M  V30 41 H 0.978713 -0.435198 1.722236 0
M  V30 42 H 3.011553 -4.156849 -2.483745 0
M  V30 43 H -0.243645 -4.174290 0.871375 0
M  V30 44 H -3.929288 -3.892776 2.816910 0
M  V30 45 H -4.284512 -1.658483 1.776995 0
M  V30 END ATOM
M  V30 BEGIN BOND
M  V30 1 1 1 2
M  V30 2 1 2 3
M  V30 3 2 3 4
M  V30 4 1 4 5
M  V30 5 2 5 6
M  V30 6 1 6 7
M  V30 7 2 7 8
M  V30 8 1 8 9
M  V30 9 1 9 10
M  V30 10 2 10 11
M  V30 11 1 11 12
M  V30 12 1 12 13
M  V30 13 1 13 14
M  V30 14 2 12 15
M  V30 15 1 15 16
M  V30 16 2 16 17
M  V30 17 1 6 18
M  V30 18 2 18 19
M  V30 19 1 18 20
M  V30 20 1 20 21
M  V30 21 2 21 22
M  V30 22 1 4 23
M  V30 23 2 23 24
M  V30 24 1 24 25
M  V30 25 1 25 26
M  V30 26 3 26 27
M  V30 27 2 25 28
M  V30 28 1 28 29
M  V30 29 2 29 30
M  V30 30 1 30 2
M  V30 31 1 21 5
M  V30 32 1 30 23
M  V30 33 1 17 7
M  V30 34 1 17 10
M  V30 35 1 1 31
M  V30 36 1 1 32
M  V30 37 1 1 33
M  V30 38 1 3 34
M  V30 39 1 8 35
M  V30 40 1 11 36
M  V30 41 1 13 37
M  V30 42 1 13 38
M  V30 43 1 14 39
M  V30 44 1 15 40
M  V30 45 1 16 41
M  V30 46 1 20 42
M  V30 47 1 24 43
M  V30 48 1 28 44
M  V30 49 1 29 45
M  V30 END BOND
M  V30 END CTAB
M  END
>  <Dataset>  (13) 
ChEMBL_Kinases

>  <Ligand_Instance>  (13) 
nan

>  <PDB_ID>  (13) 
nan

>  <Standardized_SMILES>  (13) 
Cn1cc(C2=C(c3coc4cc(CO)ccc34)C(=O)NC2=O)c2cc(C#N)ccc21

>  <Name>  (13) 
nan

>  <Pocket>  (13) 
nan

>  <ATP_Site>  (13) 
nan

>  <Peripheral>  (13) 
nan

>  <Num_H_Atoms_ProtBoundConf>  (13) 
nan

>  <Num_Resolved_Atoms>  (13) 
nan

>  <Num_Not_Resolved_Atoms>  (13) 
nan

$$$$
CHEMBL4877440
     RDKit          3D

  0  0  0  0  0  0  0  0  0  0999 V3000
M  V30 BEGIN CTAB
M  V30 COUNTS 55 58 0 0 0
M  V30 BEGIN ATOM
M  V30 1 C 8.959373 -3.472948 -0.446175 0
M  V30 2 O 8.668804 -2.226147 0.132501 0
M  V30 3 C 7.730246 -1.358420 -0.408538 0
M  V30 4 C 7.500685 -0.150743 0.218478 0
M  V30 5 C 6.555671 0.663717 -0.371470 0
M  V30 6 C 5.847149 0.353264 -1.516417 0
M  V30 7 N 4.885334 1.297821 -2.028662 0
M  V30 8 C 3.571245 1.084693 -1.476901 0
M  V30 9 O 3.394211 0.151545 -0.649709 0
M  V30 10 N 2.469320 1.891039 -1.834196 0
M  V30 11 C 1.180212 1.657057 -1.272178 0
M  V30 12 C 0.778691 2.274440 -0.103256 0
M  V30 13 C -0.473984 2.038887 0.431116 0
M  V30 14 C -1.344314 1.174265 -0.206887 0
M  V30 15 O -2.633762 0.837433 0.207297 0
M  V30 16 C -2.770214 -0.272731 1.062096 0
M  V30 17 N -1.687606 -0.996413 1.474013 0
M  V30 18 C -1.831123 -2.057140 2.292375 0
M  V30 19 N -3.035321 -2.475151 2.757206 0
M  V30 20 C -4.111083 -1.760745 2.351440 0
M  V30 21 C -5.346228 -2.168962 2.812704 0
M  V30 22 C -6.499360 -1.510934 2.459073 0
M  V30 23 N -7.752445 -1.955998 2.950366 0
M  V30 24 C -7.756957 -3.116563 3.826835 0
M  V30 25 C -8.978894 -1.272072 2.586275 0
M  V30 26 C -6.361747 -0.424843 1.622304 0
M  V30 27 C -5.149533 0.032899 1.126504 0
M  V30 28 C -4.014854 -0.657578 1.506913 0
M  V30 29 C -0.890795 0.581288 -1.376927 0
M  V30 30 C 0.346233 0.770687 -1.966843 0
M  V30 31 C 6.098775 -0.861995 -2.120936 0
M  V30 32 C 7.038806 -1.707198 -1.560827 0
M  V30 33 H 8.040341 -3.994063 -0.800159 0
M  V30 34 H 9.421690 -4.143468 0.314530 0
M  V30 35 H 9.686015 -3.333638 -1.265600 0
M  V30 36 H 8.028169 0.142274 1.118082 0
M  V30 37 H 6.345660 1.615564 0.085446 0
M  V30 38 H 4.986869 2.080268 -2.708891 0
M  V30 39 H 2.585971 2.669257 -2.515235 0
M  V30 40 H 1.443220 2.956805 0.415835 0
M  V30 41 H -0.846150 2.487503 1.336569 0
M  V30 42 H -0.849006 -2.479340 2.489217 0
M  V30 43 H -5.406506 -3.041693 3.478855 0
M  V30 44 H -7.306545 -3.986385 3.314456 0
M  V30 45 H -7.221544 -2.877221 4.779298 0
M  V30 46 H -8.791245 -3.399381 4.122373 0
M  V30 47 H -9.345297 -1.627588 1.592812 0
M  V30 48 H -8.910281 -0.178548 2.611426 0
M  V30 49 H -9.761615 -1.615549 3.324457 0
M  V30 50 H -7.260785 0.099259 1.338239 0
M  V30 51 H -5.091131 0.885787 0.475561 0
M  V30 52 H -1.544428 -0.110218 -1.916781 0
M  V30 53 H 0.625842 0.280553 -2.867532 0
M  V30 54 H 5.534510 -1.090539 -3.018505 0
M  V30 55 H 7.194792 -2.643033 -2.074780 0
M  V30 END ATOM
M  V30 BEGIN BOND
M  V30 1 1 1 2
M  V30 2 1 2 3
M  V30 3 2 3 4
M  V30 4 1 4 5
M  V30 5 2 5 6
M  V30 6 1 6 7
M  V30 7 1 7 8
M  V30 8 2 8 9
M  V30 9 1 8 10
M  V30 10 1 10 11
M  V30 11 2 11 12
M  V30 12 1 12 13
M  V30 13 2 13 14
M  V30 14 1 14 15
M  V30 15 1 15 16
M  V30 16 2 16 17
M  V30 17 1 17 18
M  V30 18 2 18 19
M  V30 19 1 19 20
M  V30 20 2 20 21
M  V30 21 1 21 22
M  V30 22 1 22 23
M  V30 23 1 23 24
M  V30 24 1 23 25
M  V30 25 2 22 26
M  V30 26 1 26 27
M  V30 27 2 27 28
M  V30 28 1 14 29
M  V30 29 2 29 30
M  V30 30 1 6 31
M  V30 31 2 31 32
M  V30 32 1 32 3
M  V30 33 1 30 11
M  V30 34 1 28 16
M  V30 35 1 28 20
M  V30 36 1 1 33
M  V30 37 1 1 34
M  V30 38 1 1 35
M  V30 39 1 4 36
M  V30 40 1 5 37
M  V30 41 1 7 38
M  V30 42 1 10 39
M  V30 43 1 12 40
M  V30 44 1 13 41
M  V30 45 1 18 42
M  V30 46 1 21 43
M  V30 47 1 24 44
M  V30 48 1 24 45
M  V30 49 1 24 46
M  V30 50 1 25 47
M  V30 51 1 25 48
M  V30 52 1 25 49
M  V30 53 1 26 50
M  V30 54 1 27 51
M  V30 55 1 29 52
M  V30 56 1 30 53
M  V30 57 1 31 54
M  V30 58 1 32 55
M  V30 END BOND
M  V30 END CTAB
M  END
>  <Dataset>  (14) 
ChEMBL_Kinases

>  <Ligand_Instance>  (14) 
nan

>  <PDB_ID>  (14) 
nan

>  <Standardized_SMILES>  (14) 
COc1ccc(NC(=O)Nc2ccc(Oc3ncnc4cc(N(C)C)ccc34)cc2)cc1

>  <Name>  (14) 
nan

>  <Pocket>  (14) 
nan

>  <ATP_Site>  (14) 
nan

>  <Peripheral>  (14) 
nan

>  <Num_H_Atoms_ProtBoundConf>  (14) 
nan

>  <Num_Resolved_Atoms>  (14) 
nan

>  <Num_Not_Resolved_Atoms>  (14) 
nan

$$$$
CHEMBL4877389
     RDKit          3D

  0  0  0  0  0  0  0  0  0  0999 V3000
M  V30 BEGIN CTAB
M  V30 COUNTS 46 49 0 0 0
M  V30 BEGIN ATOM
M  V30 1 N 3.275268 -3.890757 2.976830 0
M  V30 2 C 2.326840 -2.898000 2.724365 0
M  V30 3 O 1.911539 -3.291164 3.824274 0
M  V30 4 C 2.327585 -2.078390 1.525339 0
M  V30 5 C 3.328602 -2.324733 0.614264 0
M  V30 6 N 3.258474 -1.526165 -0.464339 0
M  V30 7 C 2.285381 -0.583402 -0.607094 0
M  V30 8 N 2.313208 0.207279 -1.788379 0
M  V30 9 C 1.480587 1.165814 -2.140754 0
M  V30 10 C -0.006024 0.960100 -2.367007 0
M  V30 11 C 0.181161 2.421512 -2.484491 0
M  V30 12 C 1.037808 2.327450 -1.277733 0
M  V30 13 C 1.433562 2.083087 -3.265393 0
M  V30 14 N 1.322229 -0.393223 0.337790 0
M  V30 15 C 1.314207 -1.159590 1.468834 0
M  V30 16 N 0.356894 -1.032482 2.506882 0
M  V30 17 C -0.681331 -0.036261 2.367388 0 CFG=2
M  V30 18 C -1.536399 -0.112242 3.617321 0
M  V30 19 C -2.176118 -1.456791 3.693125 0
M  V30 20 C -2.706938 -1.935426 2.359906 0
M  V30 21 C -2.892641 -0.719991 1.496796 0 CFG=2
M  V30 22 O -3.665495 -0.943943 0.371426 0
M  V30 23 C -1.513026 -0.206483 1.117153 0
M  V30 24 H 3.684577 -4.840416 2.772652 0
M  V30 25 H 3.975648 -4.623990 3.163195 0
M  V30 26 H 4.073209 -3.088470 0.785310 0
M  V30 27 H 3.031980 0.085905 -2.508040 0
M  V30 28 H -0.135649 0.388366 -3.306741 0
M  V30 29 H -0.486319 0.535137 -1.480946 0
M  V30 30 H -0.515996 3.123549 -2.734202 0
M  V30 31 H 0.562299 1.990315 -0.347455 0
M  V30 32 H 1.759932 3.168605 -1.205932 0
M  V30 33 H 2.135217 2.927752 -3.264774 0
M  V30 34 H 1.160566 1.644947 -4.241953 0
M  V30 35 H 0.412484 -1.646019 3.340572 0
M  V30 36 H -0.221696 0.990888 2.272285 0
M  V30 37 H -2.253468 0.728207 3.684789 0
M  V30 38 H -0.825139 -0.023494 4.483236 0
M  V30 39 H -3.017434 -1.480358 4.413743 0
M  V30 40 H -1.422884 -2.196190 4.032095 0
M  V30 41 H -3.679449 -2.494466 2.482494 0
M  V30 42 H -2.021559 -2.633864 1.843415 0
M  V30 43 H -3.408169 0.082162 2.067778 0
M  V30 44 H -4.157810 -0.132697 0.078972 0
M  V30 45 H -1.685781 0.764387 0.579525 0
M  V30 46 H -1.051634 -0.892926 0.371377 0
M  V30 END ATOM
M  V30 BEGIN BOND
M  V30 1 1 1 2
M  V30 2 2 2 3
M  V30 3 1 2 4
M  V30 4 2 4 5
M  V30 5 1 5 6
M  V30 6 2 6 7
M  V30 7 1 7 8
M  V30 8 1 8 9
M  V30 9 1 9 10
M  V30 10 1 10 11
M  V30 11 1 11 12
M  V30 12 1 11 13
M  V30 13 1 7 14
M  V30 14 2 14 15
M  V30 15 1 15 16
M  V30 16 1 16 17
M  V30 17 1 17 18
M  V30 18 1 18 19
M  V30 19 1 19 20
M  V30 20 1 20 21
M  V30 21 1 21 22
M  V30 22 1 21 23
M  V30 23 1 15 4
M  V30 24 1 23 17
M  V30 25 1 12 9
M  V30 26 1 13 9
M  V30 27 1 1 24
M  V30 28 1 1 25
M  V30 29 1 5 26
M  V30 30 1 8 27
M  V30 31 1 10 28
M  V30 32 1 10 29
M  V30 33 1 11 30
M  V30 34 1 12 31
M  V30 35 1 12 32
M  V30 36 1 13 33
M  V30 37 1 13 34
M  V30 38 1 16 35
M  V30 39 1 17 36 CFG=3
M  V30 40 1 18 37
M  V30 41 1 18 38
M  V30 42 1 19 39
M  V30 43 1 19 40
M  V30 44 1 20 41
M  V30 45 1 20 42
M  V30 46 1 21 43 CFG=1
M  V30 47 1 22 44
M  V30 48 1 23 45
M  V30 49 1 23 46
M  V30 END BOND
M  V30 END CTAB
M  END
>  <Dataset>  (15) 
ChEMBL_Kinases

>  <Ligand_Instance>  (15) 
nan

>  <PDB_ID>  (15) 
nan

>  <Standardized_SMILES>  (15) 
NC(=O)c1cnc(NC23CC(C2)C3)nc1N[C@@H]1CCC[C@H](O)C1

>  <Name>  (15) 
nan

>  <Pocket>  (15) 
nan

>  <ATP_Site>  (15) 
nan

>  <Peripheral>  (15) 
nan

>  <Num_H_Atoms_ProtBoundConf>  (15) 
nan

>  <Num_Resolved_Atoms>  (15) 
nan

>  <Num_Not_Resolved_Atoms>  (15) 
nan

$$$$
CHEMBL489967
     RDKit          3D

  0  0  0  0  0  0  0  0  0  0999 V3000
M  V30 BEGIN CTAB
M  V30 COUNTS 47 50 0 0 0
M  V30 BEGIN ATOM
M  V30 1 C 0.601189 -2.635449 2.874551 0
M  V30 2 N 0.834495 -1.896290 1.652925 0
M  V30 3 C 0.558530 -2.633058 0.474449 0
M  V30 4 C 1.188622 -2.151054 -0.790957 0
M  V30 5 C 2.643474 -1.761828 -0.652333 0
M  V30 6 C 3.004800 -2.038848 0.770253 0
M  V30 7 C 2.127592 -1.223477 1.676136 0
M  V30 8 C 1.894929 0.144524 1.226758 0
M  V30 9 C 3.090487 0.858559 1.095349 0
M  V30 10 O 4.357499 0.362733 1.352777 0
M  V30 11 C 3.108946 2.188284 0.675815 0
M  V30 12 C 1.918906 2.812071 0.384190 0
M  V30 13 O 1.859633 4.146827 -0.044152 0
M  V30 14 C 0.757684 2.082831 0.524330 0
M  V30 15 C -0.489246 2.642431 0.253186 0
M  V30 16 O -0.484257 3.839036 -0.127307 0
M  V30 17 C -1.611152 1.854401 0.420297 0
M  V30 18 C -1.583359 0.540309 0.840785 0
M  V30 19 C -2.841307 -0.179564 0.982876 0
M  V30 20 C -4.072649 0.325604 0.631697 0
M  V30 21 C -5.249991 -0.359909 0.791786 0
M  V30 22 C -5.259856 -1.624602 1.327310 0
M  V30 23 C -4.057276 -2.176686 1.695408 0
M  V30 24 C -2.906677 -1.448640 1.514581 0
M  V30 25 O -0.383139 0.048593 1.085290 0
M  V30 26 C 0.703739 0.768586 0.937042 0
M  V30 27 H -0.060661 -3.501228 2.698802 0
M  V30 28 H 1.534967 -2.964459 3.373400 0
M  V30 29 H 0.152335 -1.887908 3.585499 0
M  V30 30 H -0.527584 -2.758947 0.241070 0
M  V30 31 H 0.902839 -3.698266 0.635244 0
M  V30 32 H 1.093284 -2.885158 -1.621500 0
M  V30 33 H 0.639726 -1.234271 -1.153187 0
M  V30 34 H 2.824945 -0.712907 -0.957445 0
M  V30 35 H 3.267850 -2.419662 -1.285299 0
M  V30 36 H 4.084302 -1.923355 0.985924 0
M  V30 37 H 2.793175 -3.105652 0.974002 0
M  V30 38 H 2.518369 -1.277061 2.698915 0
M  V30 39 H 5.055273 0.319930 0.606082 0
M  V30 40 H 3.993705 2.776276 0.559601 0
M  V30 41 H 1.751398 4.267267 -1.055645 0
M  V30 42 H -2.495039 2.425027 0.173780 0
M  V30 43 H -4.140317 1.310660 0.204491 0
M  V30 44 H -6.184200 0.095746 0.494629 0
M  V30 45 H -6.213904 -2.115000 1.429219 0
M  V30 46 H -4.085583 -3.171458 2.114269 0
M  V30 47 H -2.026410 -1.969229 1.846706 0
M  V30 END ATOM
M  V30 BEGIN BOND
M  V30 1 1 1 2
M  V30 2 1 2 3
M  V30 3 1 3 4
M  V30 4 1 4 5
M  V30 5 1 5 6
M  V30 6 1 6 7
M  V30 7 1 7 8
M  V30 8 2 8 9
M  V30 9 1 9 10
M  V30 10 1 9 11
M  V30 11 2 11 12
M  V30 12 1 12 13
M  V30 13 1 12 14
M  V30 14 1 14 15
M  V30 15 2 15 16
M  V30 16 1 15 17
M  V30 17 2 17 18
M  V30 18 1 18 19
M  V30 19 2 19 20
M  V30 20 1 20 21
M  V30 21 2 21 22
M  V30 22 1 22 23
M  V30 23 2 23 24
M  V30 24 1 18 25
M  V30 25 1 25 26
M  V30 26 1 7 2
M  V30 27 1 26 8
M  V30 28 2 26 14
M  V30 29 1 24 19
M  V30 30 1 1 27
M  V30 31 1 1 28
M  V30 32 1 1 29
M  V30 33 1 3 30
M  V30 34 1 3 31
M  V30 35 1 4 32
M  V30 36 1 4 33
M  V30 37 1 5 34
M  V30 38 1 5 35
M  V30 39 1 6 36
M  V30 40 1 6 37
M  V30 41 1 7 38
M  V30 42 1 10 39
M  V30 43 1 11 40
M  V30 44 1 13 41
M  V30 45 1 17 42
M  V30 46 1 20 43
M  V30 47 1 21 44
M  V30 48 1 22 45
M  V30 49 1 23 46
M  V30 50 1 24 47
M  V30 END BOND
M  V30 END CTAB
M  END
>  <Dataset>  (16) 
ChEMBL_Kinases

>  <Ligand_Instance>  (16) 
nan

>  <PDB_ID>  (16) 
nan

>  <Standardized_SMILES>  (16) 
CN1CCCCC1c1c(O)cc(O)c2c(=O)cc(-c3ccccc3)oc12

>  <Name>  (16) 
nan

>  <Pocket>  (16) 
nan

>  <ATP_Site>  (16) 
nan

>  <Peripheral>  (16) 
nan

>  <Num_H_Atoms_ProtBoundConf>  (16) 
nan

>  <Num_Resolved_Atoms>  (16) 
nan

>  <Num_Not_Resolved_Atoms>  (16) 
nan

$$$$
CHEMBL4877372
     RDKit          3D

  0  0  0  0  0  0  0  0  0  0999 V3000
M  V30 BEGIN CTAB
M  V30 COUNTS 36 39 0 0 0
M  V30 BEGIN ATOM
M  V30 1 N 2.394537 -2.261078 3.640667 0
M  V30 2 C 3.078461 -2.856110 2.504552 0 CFG=1
M  V30 3 C 2.496487 -4.216581 2.186383 0
M  V30 4 C 1.914402 -4.097951 0.789689 0
M  V30 5 N 1.657077 -2.671121 0.729669 0
M  V30 6 C 0.484519 -2.079720 0.184104 0
M  V30 7 N -0.494164 -2.842801 -0.329343 0
M  V30 8 C -1.619068 -2.277506 -0.852809 0
M  V30 9 C -1.635111 -0.906802 -0.797266 0
M  V30 10 C -0.692602 -0.061106 -0.297663 0
M  V30 11 C -0.636921 1.369604 -0.204476 0
M  V30 12 C 0.474050 2.004104 0.365585 0
M  V30 13 N 0.287445 3.332163 0.336243 0
M  V30 14 N -0.866770 3.640097 -0.211230 0
M  V30 15 N -1.517135 4.756878 -0.475975 0
M  V30 16 C -2.722315 4.825737 -1.059229 0
M  V30 17 C -3.311331 3.602807 -1.402482 0
M  V30 18 C -2.621266 2.449484 -1.120117 0
M  V30 19 C -1.390505 2.465891 -0.520475 0
M  V30 20 N 0.353269 -0.754030 0.181281 0
M  V30 21 C 2.784860 -1.969350 1.312891 0
M  V30 22 H 1.980369 -2.933809 4.293203 0
M  V30 23 H 2.998850 -1.527723 4.027671 0
M  V30 24 H 4.161361 -3.007682 2.684997 0
M  V30 25 H 3.235058 -5.034547 2.286574 0
M  V30 26 H 1.626614 -4.395187 2.876674 0
M  V30 27 H 1.013926 -4.693735 0.629777 0
M  V30 28 H 2.713700 -4.338912 0.032468 0
M  V30 29 H -2.429328 -2.839268 -1.274665 0
M  V30 30 H -2.523673 -0.478270 -1.211747 0
M  V30 31 H 1.421466 1.669283 0.811173 0
M  V30 32 H -3.198587 5.777724 -1.246895 0
M  V30 33 H -4.285622 3.622646 -1.875652 0
M  V30 34 H -3.133878 1.566255 -1.410351 0
M  V30 35 H 3.682361 -2.033960 0.633177 0
M  V30 36 H 2.533129 -0.932299 1.578580 0
M  V30 END ATOM
M  V30 BEGIN BOND
M  V30 1 1 1 2
M  V30 2 1 2 3
M  V30 3 1 3 4
M  V30 4 1 4 5
M  V30 5 1 5 6
M  V30 6 2 6 7
M  V30 7 1 7 8
M  V30 8 2 8 9
M  V30 9 1 9 10
M  V30 10 1 10 11
M  V30 11 1 11 12
M  V30 12 2 12 13
M  V30 13 1 13 14
M  V30 14 1 14 15
M  V30 15 2 15 16
M  V30 16 1 16 17
M  V30 17 2 17 18
M  V30 18 1 18 19
M  V30 19 2 10 20
M  V30 20 1 5 21
M  V30 21 1 21 2
M  V30 22 1 20 6
M  V30 23 2 19 11
M  V30 24 1 19 14
M  V30 25 1 1 22
M  V30 26 1 1 23
M  V30 27 1 2 24 CFG=1
M  V30 28 1 3 25
M  V30 29 1 3 26
M  V30 30 1 4 27
M  V30 31 1 4 28
M  V30 32 1 8 29
M  V30 33 1 9 30
M  V30 34 1 12 31
M  V30 35 1 16 32
M  V30 36 1 17 33
M  V30 37 1 18 34
M  V30 38 1 21 35
M  V30 39 1 21 36
M  V30 END BOND
M  V30 END CTAB
M  END
>  <Dataset>  (17) 
ChEMBL_Kinases

>  <Ligand_Instance>  (17) 
nan

>  <PDB_ID>  (17) 
nan

>  <Standardized_SMILES>  (17) 
N[C@H]1CCN(c2nccc(-c3cnn4ncccc34)n2)C1

>  <Name>  (17) 
nan

>  <Pocket>  (17) 
nan

>  <ATP_Site>  (17) 
nan

>  <Peripheral>  (17) 
nan

>  <Num_H_Atoms_ProtBoundConf>  (17) 
nan

>  <Num_Resolved_Atoms>  (17) 
nan

>  <Num_Not_Resolved_Atoms>  (17) 
nan

$$$$
CHEMBL4877371
     RDKit          3D

  0  0  0  0  0  0  0  0  0  0999 V3000
M  V30 BEGIN CTAB
M  V30 COUNTS 43 44 0 0 0
M  V30 BEGIN ATOM
M  V30 1 C -2.006886 -4.206724 1.703538 0
M  V30 2 O -1.325738 -3.591386 2.780721 0
M  V30 3 C -0.309204 -2.670607 2.629510 0
M  V30 4 C 0.051252 -2.342440 1.338684 0
M  V30 5 C 1.063599 -1.425383 1.133498 0
M  V30 6 N 1.416942 -1.103567 -0.211092 0
M  V30 7 C 0.700982 0.005083 -0.810445 0
M  V30 8 O -0.026484 0.263024 0.220180 0
M  V30 9 C 1.052110 0.346201 -2.186350 0 CFG=2
M  V30 10 N 2.013680 -0.655030 -2.699973 0
M  V30 11 C 1.682194 1.661415 -2.416918 0
M  V30 12 C 0.962111 2.892501 -2.061775 0
M  V30 13 C 0.586407 3.083623 -0.627759 0
M  V30 14 C -0.260581 3.155790 -2.922331 0
M  V30 15 C 1.689769 -0.859811 2.225790 0
M  V30 16 C 1.284136 -1.228860 3.492113 0
M  V30 17 C 0.280451 -2.138138 3.753873 0
M  V30 18 C -0.077105 -2.463647 5.121314 0
M  V30 19 C -1.031518 -3.328351 5.607887 0
M  V30 20 N -1.032759 -3.331253 6.964389 0
M  V30 21 C -0.057730 -2.448932 7.279020 0
M  V30 22 O 0.480824 -1.959933 6.188872 0
M  V30 23 H -1.312148 -4.752033 1.030179 0
M  V30 24 H -2.682174 -4.977710 2.128749 0
M  V30 25 H -2.571342 -3.446449 1.128602 0
M  V30 26 H -0.444498 -2.790266 0.499145 0
M  V30 27 H 2.176515 -1.705250 -0.659723 0
M  V30 28 H 0.169722 0.207324 -2.892846 0
M  V30 29 H 1.622384 -1.617042 -2.658454 0
M  V30 30 H 2.943712 -0.544374 -2.257501 0
M  V30 31 H 2.044236 1.699720 -3.486509 0
M  V30 32 H 2.659469 1.647472 -1.834731 0
M  V30 33 H 1.654280 3.756031 -2.311715 0
M  V30 34 H 0.640992 4.188578 -0.341321 0
M  V30 35 H -0.478395 2.839904 -0.435147 0
M  V30 36 H 1.296537 2.608473 0.075261 0
M  V30 37 H -0.038085 3.124372 -4.008998 0
M  V30 38 H -1.119068 2.521175 -2.626871 0
M  V30 39 H -0.578028 4.196333 -2.697196 0
M  V30 40 H 2.481849 -0.142348 2.085456 0
M  V30 41 H 1.795394 -0.767004 4.337829 0
M  V30 42 H -1.708073 -3.940115 5.034620 0
M  V30 43 H 0.285234 -2.139745 8.277215 0
M  V30 END ATOM
M  V30 BEGIN BOND
M  V30 1 1 1 2
M  V30 2 1 2 3
M  V30 3 2 3 4
M  V30 4 1 4 5
M  V30 5 1 5 6
M  V30 6 1 6 7
M  V30 7 2 7 8
M  V30 8 1 7 9
M  V30 9 1 9 10
M  V30 10 1 9 11
M  V30 11 1 11 12
M  V30 12 1 12 13
M  V30 13 1 12 14
M  V30 14 2 5 15
M  V30 15 1 15 16
M  V30 16 2 16 17
M  V30 17 1 17 18
M  V30 18 2 18 19
M  V30 19 1 19 20
M  V30 20 2 20 21
M  V30 21 1 21 22
M  V30 22 1 17 3
M  V30 23 1 22 18
M  V30 24 1 1 23
M  V30 25 1 1 24
M  V30 26 1 1 25
M  V30 27 1 4 26
M  V30 28 1 6 27
M  V30 29 1 9 28 CFG=3
M  V30 30 1 10 29
M  V30 31 1 10 30
M  V30 32 1 11 31
M  V30 33 1 11 32
M  V30 34 1 12 33
M  V30 35 1 13 34
M  V30 36 1 13 35
M  V30 37 1 13 36
M  V30 38 1 14 37
M  V30 39 1 14 38
M  V30 40 1 14 39
M  V30 41 1 15 40
M  V30 42 1 16 41
M  V30 43 1 19 42
M  V30 44 1 21 43
M  V30 END BOND
M  V30 END CTAB
M  END
>  <Dataset>  (18) 
ChEMBL_Kinases

>  <Ligand_Instance>  (18) 
nan

>  <PDB_ID>  (18) 
nan

>  <Standardized_SMILES>  (18) 
COc1cc(NC(=O)[C@H](N)CC(C)C)ccc1-c1cnco1

>  <Name>  (18) 
nan

>  <Pocket>  (18) 
nan

>  <ATP_Site>  (18) 
nan

>  <Peripheral>  (18) 
nan

>  <Num_H_Atoms_ProtBoundConf>  (18) 
nan

>  <Num_Resolved_Atoms>  (18) 
nan

>  <Num_Not_Resolved_Atoms>  (18) 
nan

$$$$
CHEMBL4877312
     RDKit          3D

  0  0  0  0  0  0  0  0  0  0999 V3000
M  V30 BEGIN CTAB
M  V30 COUNTS 48 49 0 0 0
M  V30 BEGIN ATOM
M  V30 1 C -1.228198 -4.679747 -0.676435 0
M  V30 2 O -1.940837 -3.934517 0.310768 0
M  V30 3 C -1.368813 -2.832418 0.898873 0
M  V30 4 C -0.103779 -2.366694 0.598680 0
M  V30 5 C 0.362012 -1.230682 1.271279 0
M  V30 6 N 1.663859 -0.733469 0.976986 0
M  V30 7 C 1.780099 0.222629 -0.054562 0
M  V30 8 O 0.726634 0.603321 -0.678167 0
M  V30 9 C 2.892849 0.980885 -0.674615 0 CFG=2
M  V30 10 N 4.132907 0.608964 -0.077290 0
M  V30 11 C 2.621484 2.441950 -0.773337 0
M  V30 12 C 3.674268 3.290040 -1.377121 0
M  V30 13 C 4.999716 3.314593 -0.717447 0
M  V30 14 C 3.104478 4.715321 -1.436475 0
M  V30 15 C -0.441626 -0.589515 2.222781 0
M  V30 16 C -1.719702 -1.069663 2.518258 0
M  V30 17 C -2.179148 -2.204615 1.843120 0
M  V30 18 C -3.529677 -2.693203 2.170623 0
M  V30 19 C -4.383193 -3.053749 1.146611 0
M  V30 20 C -5.622409 -3.498942 1.521917 0
M  V30 21 N -5.966933 -3.572503 2.820576 0
M  V30 22 C -5.109038 -3.212290 3.797911 0
M  V30 23 N -5.491185 -3.296225 5.182690 0
M  V30 24 C -3.840155 -2.751445 3.532431 0
M  V30 25 H -0.358599 -5.212756 -0.234858 0
M  V30 26 H -1.869319 -5.462201 -1.110281 0
M  V30 27 H -0.837705 -3.958132 -1.404276 0
M  V30 28 H 0.485111 -2.890531 -0.142420 0
M  V30 29 H 2.591700 -0.927727 1.374577 0
M  V30 30 H 2.959991 0.608144 -1.742052 0
M  V30 31 H 4.896889 0.778911 -0.781648 0
M  V30 32 H 4.089043 -0.418789 0.136619 0
M  V30 33 H 1.680432 2.638820 -1.331031 0
M  V30 34 H 2.389970 2.824430 0.265276 0
M  V30 35 H 3.792702 3.019775 -2.469144 0
M  V30 36 H 5.329832 4.389213 -0.579136 0
M  V30 37 H 5.047200 2.897185 0.306800 0
M  V30 38 H 5.771063 2.907245 -1.410430 0
M  V30 39 H 2.181499 4.723363 -2.043465 0
M  V30 40 H 3.886280 5.398496 -1.800497 0
M  V30 41 H 2.818306 4.967908 -0.384588 0
M  V30 42 H -0.069144 0.290036 2.737185 0
M  V30 43 H -2.333273 -0.574286 3.249475 0
M  V30 44 H -4.066672 -2.979193 0.119362 0
M  V30 45 H -6.308159 -3.787893 0.716471 0
M  V30 46 H -5.731734 -4.084306 5.823561 0
M  V30 47 H -5.515014 -2.320578 5.576953 0
M  V30 48 H -3.119989 -2.452374 4.274218 0
M  V30 END ATOM
M  V30 BEGIN BOND
M  V30 1 1 1 2
M  V30 2 1 2 3
M  V30 3 2 3 4
M  V30 4 1 4 5
M  V30 5 1 5 6
M  V30 6 1 6 7
M  V30 7 2 7 8
M  V30 8 1 7 9
M  V30 9 1 9 10
M  V30 10 1 9 11
M  V30 11 1 11 12
M  V30 12 1 12 13
M  V30 13 1 12 14
M  V30 14 2 5 15
M  V30 15 1 15 16
M  V30 16 2 16 17
M  V30 17 1 17 18
M  V30 18 2 18 19
M  V30 19 1 19 20
M  V30 20 2 20 21
M  V30 21 1 21 22
M  V30 22 1 22 23
M  V30 23 2 22 24
M  V30 24 1 17 3
M  V30 25 1 24 18
M  V30 26 1 1 25
M  V30 27 1 1 26
M  V30 28 1 1 27
M  V30 29 1 4 28
M  V30 30 1 6 29
M  V30 31 1 9 30 CFG=3
M  V30 32 1 10 31
M  V30 33 1 10 32
M  V30 34 1 11 33
M  V30 35 1 11 34
M  V30 36 1 12 35
M  V30 37 1 13 36
M  V30 38 1 13 37
M  V30 39 1 13 38
M  V30 40 1 14 39
M  V30 41 1 14 40
M  V30 42 1 14 41
M  V30 43 1 15 42
M  V30 44 1 16 43
M  V30 45 1 19 44
M  V30 46 1 20 45
M  V30 47 1 23 46
M  V30 48 1 23 47
M  V30 49 1 24 48
M  V30 END BOND
M  V30 END CTAB
M  END
>  <Dataset>  (19) 
ChEMBL_Kinases

>  <Ligand_Instance>  (19) 
nan

>  <PDB_ID>  (19) 
nan

>  <Standardized_SMILES>  (19) 
COc1cc(NC(=O)[C@H](N)CC(C)C)ccc1-c1ccnc(N)c1

>  <Name>  (19) 
nan

>  <Pocket>  (19) 
nan

>  <ATP_Site>  (19) 
nan

>  <Peripheral>  (19) 
nan

>  <Num_H_Atoms_ProtBoundConf>  (19) 
nan

>  <Num_Resolved_Atoms>  (19) 
nan

>  <Num_Not_Resolved_Atoms>  (19) 
nan

$$$$
CHEMBL599171
     RDKit          3D

  0  0  0  0  0  0  0  0  0  0999 V3000
M  V30 BEGIN CTAB
M  V30 COUNTS 38 40 0 0 0
M  V30 BEGIN ATOM
M  V30 1 N 1.334394 -5.624333 0.043545 0
M  V30 2 C 1.704868 -5.689725 1.455107 0
M  V30 3 C 2.613937 -4.558079 1.821677 0
M  V30 4 N 1.932458 -3.310202 1.568283 0
M  V30 5 C 0.722765 -2.902083 2.178025 0
M  V30 6 O 0.177661 -3.661758 3.007580 0
M  V30 7 C 0.041623 -1.641566 1.915232 0
M  V30 8 C 0.515486 -0.685042 1.023459 0
M  V30 9 C -0.185321 0.484375 0.828331 0
M  V30 10 C 0.319018 1.475871 -0.106233 0
M  V30 11 S 1.840976 1.168287 -0.989604 0
M  V30 12 C 1.798017 2.779741 -1.907362 0
M  V30 13 C 0.581651 3.401654 -1.422627 0
M  V30 14 C -0.107609 2.680700 -0.516488 0
M  V30 15 O -1.270637 3.279593 -0.054987 0
M  V30 16 C -1.657482 4.593790 -0.376409 0
M  V30 17 C -1.210450 4.944387 -1.789600 0
M  V30 18 O 0.171126 4.647500 -1.868530 0
M  V30 19 C -1.352871 0.683268 1.528258 0
M  V30 20 N -1.831681 -0.223315 2.394214 0
M  V30 21 C -1.133410 -1.381053 2.584213 0
M  V30 22 N -1.743502 -2.265306 3.527251 0
M  V30 23 H 1.327562 -4.636293 -0.294640 0
M  V30 24 H 0.390430 -6.078469 -0.103503 0
M  V30 25 H 0.805559 -5.691728 2.072397 0
M  V30 26 H 2.201125 -6.682038 1.656931 0
M  V30 27 H 3.590970 -4.613798 1.339923 0
M  V30 28 H 2.760198 -4.614861 2.940395 0
M  V30 29 H 2.382611 -2.671401 0.877388 0
M  V30 30 H 1.421412 -0.924275 0.530136 0
M  V30 31 H 2.533465 3.207433 -2.672364 0
M  V30 32 H -2.768209 4.618220 -0.386653 0
M  V30 33 H -1.285615 5.342496 0.348381 0
M  V30 34 H -1.764681 4.242723 -2.462980 0
M  V30 35 H -1.464975 5.979229 -2.010415 0
M  V30 36 H -1.916315 1.592059 1.389859 0
M  V30 37 H -2.059168 -3.259014 3.538382 0
M  V30 38 H -1.940665 -1.828121 4.475610 0
M  V30 END ATOM
M  V30 BEGIN BOND
M  V30 1 1 1 2
M  V30 2 1 2 3
M  V30 3 1 3 4
M  V30 4 1 4 5
M  V30 5 2 5 6
M  V30 6 1 5 7
M  V30 7 2 7 8
M  V30 8 1 8 9
M  V30 9 1 9 10
M  V30 10 1 10 11
M  V30 11 1 11 12
M  V30 12 2 12 13
M  V30 13 1 13 14
M  V30 14 1 14 15
M  V30 15 1 15 16
M  V30 16 1 16 17
M  V30 17 1 17 18
M  V30 18 2 9 19
M  V30 19 1 19 20
M  V30 20 2 20 21
M  V30 21 1 21 22
M  V30 22 1 21 7
M  V30 23 2 14 10
M  V30 24 1 18 13
M  V30 25 1 1 23
M  V30 26 1 1 24
M  V30 27 1 2 25
M  V30 28 1 2 26
M  V30 29 1 3 27
M  V30 30 1 3 28
M  V30 31 1 4 29
M  V30 32 1 8 30
M  V30 33 1 12 31
M  V30 34 1 16 32
M  V30 35 1 16 33
M  V30 36 1 17 34
M  V30 37 1 17 35
M  V30 38 1 19 36
M  V30 39 1 22 37
M  V30 40 1 22 38
M  V30 END BOND
M  V30 END CTAB
M  END
>  <Dataset>  (20) 
ChEMBL_Kinases

>  <Ligand_Instance>  (20) 
nan

>  <PDB_ID>  (20) 
nan

>  <Standardized_SMILES>  (20) 
NCCNC(=O)c1cc(-c2scc3c2OCCO3)cnc1N

>  <Name>  (20) 
nan

>  <Pocket>  (20) 
nan

>  <ATP_Site>  (20) 
nan

>  <Peripheral>  (20) 
nan

>  <Num_H_Atoms_ProtBoundConf>  (20) 
nan

>  <Num_Resolved_Atoms>  (20) 
nan

>  <Num_Not_Resolved_Atoms>  (20) 
nan

$$$$
CHEMBL4877308
     RDKit          3D

  0  0  0  0  0  0  0  0  0  0999 V3000
M  V30 BEGIN CTAB
M  V30 COUNTS 57 62 0 0 0
M  V30 BEGIN ATOM
M  V30 1 C 2.135514 -4.606229 4.180712 0
M  V30 2 C 2.377161 -4.553789 2.665494 0
M  V30 3 C 1.402023 -5.484636 2.029397 0
M  V30 4 N 2.342751 -3.209234 2.172079 0
M  V30 5 C 2.870013 -2.249650 2.990887 0
M  V30 6 O 3.410832 -2.266423 4.139313 0
M  V30 7 C 2.754871 -1.028670 2.370236 0
M  V30 8 C 3.085491 0.294224 2.674451 0
M  V30 9 N 2.803173 1.284835 1.780768 0
M  V30 10 C 2.210818 1.031234 0.602212 0
M  V30 11 N 2.017326 2.226883 -0.126051 0
M  V30 12 C 0.761004 2.859339 -0.375590 0
M  V30 13 C 0.611805 4.106498 -0.934239 0
M  V30 14 C -0.643321 4.645536 -1.160800 0
M  V30 15 C -1.804527 3.955130 -0.836074 0
M  V30 16 C -1.651106 2.698367 -0.273334 0
M  V30 17 C -0.397788 2.171325 -0.051841 0
M  V30 18 C -2.883071 1.954959 0.061991 0
M  V30 19 N -4.054754 2.775332 0.053551 0
M  V30 20 C -4.194526 3.655130 -1.061722 0
M  V30 21 C -3.080842 4.656812 -1.128361 0
M  V30 22 N 1.874397 -0.251816 0.275640 0
M  V30 23 C 2.152117 -1.251475 1.163670 0
M  V30 24 N 1.931662 -2.569060 1.105949 0
M  V30 25 C 1.309545 -3.263304 0.030377 0
M  V30 26 C 1.912645 -4.103896 -0.951485 0
M  V30 27 S 0.498981 -4.612880 -1.973132 0
M  V30 28 C -0.702935 -3.599676 -0.904074 0
M  V30 29 C -2.210987 -3.548167 -1.192288 0
M  V30 30 C -2.554668 -3.477759 -2.695718 0
M  V30 31 C -2.811279 -4.702963 -1.894522 0
M  V30 32 N 0.002174 -3.154310 -0.138100 0
M  V30 33 H 3.143153 -4.519562 4.671204 0
M  V30 34 H 1.621425 -5.533401 4.420752 0
M  V30 35 H 1.577446 -3.683980 4.505534 0
M  V30 36 H 3.390981 -4.989713 2.509890 0
M  V30 37 H 1.799423 -6.060491 1.166132 0
M  V30 38 H 0.400846 -5.041011 1.859128 0
M  V30 39 H 1.189641 -6.300145 2.790292 0
M  V30 40 H 3.567401 0.499655 3.631312 0
M  V30 41 H 2.836547 2.739046 -0.537059 0
M  V30 42 H 1.539882 4.627184 -1.181201 0
M  V30 43 H -0.652288 5.639377 -1.607204 0
M  V30 44 H -0.363897 1.183994 0.390692 0
M  V30 45 H -2.825569 1.460107 1.069477 0
M  V30 46 H -3.056718 1.108956 -0.658647 0
M  V30 47 H -4.916213 2.166914 0.071939 0
M  V30 48 H -5.195647 4.135915 -0.975245 0
M  V30 49 H -4.153675 3.065157 -2.004151 0
M  V30 50 H -3.232780 5.433441 -0.342266 0
M  V30 51 H -3.058429 5.149576 -2.133413 0
M  V30 52 H 2.950850 -4.261954 -0.914645 0
M  V30 53 H -2.810549 -2.921039 -0.515263 0
M  V30 54 H -1.718903 -3.483847 -3.409484 0
M  V30 55 H -3.368842 -2.777484 -2.929125 0
M  V30 56 H -2.206996 -5.613264 -2.079622 0
M  V30 57 H -3.869576 -4.918849 -1.707332 0
M  V30 END ATOM
M  V30 BEGIN BOND
M  V30 1 1 1 2
M  V30 2 1 2 3
M  V30 3 1 2 4
M  V30 4 1 4 5
M  V30 5 2 5 6
M  V30 6 1 5 7
M  V30 7 2 7 8
M  V30 8 1 8 9
M  V30 9 2 9 10
M  V30 10 1 10 11
M  V30 11 1 11 12
M  V30 12 2 12 13
M  V30 13 1 13 14
M  V30 14 2 14 15
M  V30 15 1 15 16
M  V30 16 2 16 17
M  V30 17 1 16 18
M  V30 18 1 18 19
M  V30 19 1 19 20
M  V30 20 1 20 21
M  V30 21 1 10 22
M  V30 22 2 22 23
M  V30 23 1 23 24
M  V30 24 1 24 25
M  V30 25 2 25 26
M  V30 26 1 26 27
M  V30 27 1 27 28
M  V30 28 1 28 29
M  V30 29 1 29 30
M  V30 30 1 30 31
M  V30 31 2 28 32
M  V30 32 1 24 4
M  V30 33 1 32 25
M  V30 34 1 23 7
M  V30 35 1 31 29
M  V30 36 1 17 12
M  V30 37 1 21 15
M  V30 38 1 1 33
M  V30 39 1 1 34
M  V30 40 1 1 35
M  V30 41 1 2 36
M  V30 42 1 3 37
M  V30 43 1 3 38
M  V30 44 1 3 39
M  V30 45 1 8 40
M  V30 46 1 11 41
M  V30 47 1 13 42
M  V30 48 1 14 43
M  V30 49 1 17 44
M  V30 50 1 18 45
M  V30 51 1 18 46
M  V30 52 1 19 47
M  V30 53 1 20 48
M  V30 54 1 20 49
M  V30 55 1 21 50
M  V30 56 1 21 51
M  V30 57 1 26 52
M  V30 58 1 29 53
M  V30 59 1 30 54
M  V30 60 1 30 55
M  V30 61 1 31 56
M  V30 62 1 31 57
M  V30 END BOND
M  V30 END CTAB
M  END
>  <Dataset>  (21) 
ChEMBL_Kinases

>  <Ligand_Instance>  (21) 
nan

>  <PDB_ID>  (21) 
nan

>  <Standardized_SMILES>  (21) 
CC(C)n1c(=O)c2cnc(Nc3ccc4c(c3)CNCC4)nc2n1-c1csc(C2CC2)n1

>  <Name>  (21) 
nan

>  <Pocket>  (21) 
nan

>  <ATP_Site>  (21) 
nan

>  <Peripheral>  (21) 
nan

>  <Num_H_Atoms_ProtBoundConf>  (21) 
nan

>  <Num_Resolved_Atoms>  (21) 
nan

>  <Num_Not_Resolved_Atoms>  (21) 
nan

$$$$
CHEMBL490637
     RDKit          3D

  0  0  0  0  0  0  0  0  0  0999 V3000
M  V30 BEGIN CTAB
M  V30 COUNTS 55 59 0 0 0
M  V30 BEGIN ATOM
M  V30 1 C 4.467885 -2.093360 2.564575 0
M  V30 2 C 5.159407 -2.429651 1.288346 0
M  V30 3 O 4.413288 -2.262476 0.122637 0
M  V30 4 C 3.880163 -1.057268 -0.286626 0
M  V30 5 O 4.460096 -0.762912 0.785672 0
M  V30 6 C 3.066555 -0.847467 -1.547822 0
M  V30 7 C 2.723134 0.643840 -1.563469 0
M  V30 8 C 1.909311 1.045032 -0.413623 0
M  V30 9 C 2.479932 1.586357 0.748127 0
M  V30 10 C 1.793008 1.936287 1.891850 0
M  V30 11 C 0.428457 1.735091 1.887123 0
M  V30 12 C -0.150155 1.206052 0.752506 0
M  V30 13 C -1.498712 0.970272 0.603388 0
M  V30 14 C -2.718587 1.127690 1.384737 0
M  V30 15 C -3.721950 0.243213 1.451534 0
M  V30 16 C -3.986132 -1.061792 0.862893 0
M  V30 17 C -5.204635 -1.459332 0.294052 0
M  V30 18 O -5.111230 -2.693664 -0.135507 0
M  V30 19 C -3.921051 -3.192656 0.088887 0
M  V30 20 C -3.382206 -4.417684 -0.182063 0
M  V30 21 C -2.074054 -4.641075 0.188795 0
M  V30 22 C -1.316734 -3.650577 0.822401 0
M  V30 23 C -1.923021 -2.436878 1.065143 0
M  V30 24 C -3.209951 -2.189278 0.709775 0
M  V30 25 C -4.730679 0.819507 2.338372 0
M  V30 26 O -5.859835 0.338340 2.702206 0
M  V30 27 N -4.312037 2.111924 2.825668 0
M  V30 28 C -3.021945 2.289623 2.202731 0
M  V30 29 O -2.412864 3.358255 2.456153 0
M  V30 30 C -1.572821 0.460692 -0.698052 0
M  V30 31 N -0.353476 0.385080 -1.317232 0
M  V30 32 C -0.064182 -0.056977 -2.664388 0
M  V30 33 C 0.520535 0.850137 -0.401330 0
M  V30 34 H 3.356675 -2.075643 2.473652 0
M  V30 35 H 4.663696 -2.880272 3.353076 0
M  V30 36 H 4.774400 -1.136458 3.036032 0
M  V30 37 H 5.440855 -3.525965 1.357316 0
M  V30 38 H 6.174300 -1.930867 1.250629 0
M  V30 39 H 2.196395 -1.498499 -1.416429 0
M  V30 40 H 3.723608 -1.098865 -2.378057 0
M  V30 41 H 3.737446 1.125932 -1.386043 0
M  V30 42 H 2.439014 1.025542 -2.541133 0
M  V30 43 H 3.559385 1.778859 0.805602 0
M  V30 44 H 2.281700 2.344416 2.749302 0
M  V30 45 H -0.116472 1.997611 2.780807 0
M  V30 46 H -6.122130 -0.912829 0.182401 0
M  V30 47 H -3.940441 -5.218744 -0.675658 0
M  V30 48 H -1.659833 -5.622075 -0.034544 0
M  V30 49 H -0.290578 -3.850109 1.105184 0
M  V30 50 H -1.333491 -1.695498 1.556363 0
M  V30 51 H -4.853190 2.738378 3.478274 0
M  V30 52 H -2.481617 0.144172 -1.206990 0
M  V30 53 H -1.090458 -0.267039 -3.113820 0
M  V30 54 H 0.443247 -1.005561 -2.767346 0
M  V30 55 H 0.287059 0.768234 -3.328827 0
M  V30 END ATOM
M  V30 BEGIN BOND
M  V30 1 1 1 2
M  V30 2 1 2 3
M  V30 3 1 3 4
M  V30 4 2 4 5
M  V30 5 1 4 6
M  V30 6 1 6 7
M  V30 7 1 7 8
M  V30 8 2 8 9
M  V30 9 1 9 10
M  V30 10 2 10 11
M  V30 11 1 11 12
M  V30 12 1 12 13
M  V30 13 1 13 14
M  V30 14 2 14 15
M  V30 15 1 15 16
M  V30 16 2 16 17
M  V30 17 1 17 18
M  V30 18 1 18 19
M  V30 19 2 19 20
M  V30 20 1 20 21
M  V30 21 2 21 22
M  V30 22 1 22 23
M  V30 23 2 23 24
M  V30 24 1 15 25
M  V30 25 2 25 26
M  V30 26 1 25 27
M  V30 27 1 27 28
M  V30 28 2 28 29
M  V30 29 2 13 30
M  V30 30 1 30 31
M  V30 31 1 31 32
M  V30 32 1 31 33
M  V30 33 1 33 8
M  V30 34 2 33 12
M  V30 35 1 28 14
M  V30 36 1 24 16
M  V30 37 1 24 19
M  V30 38 1 1 34
M  V30 39 1 1 35
M  V30 40 1 1 36
M  V30 41 1 2 37
M  V30 42 1 2 38
M  V30 43 1 6 39
M  V30 44 1 6 40
M  V30 45 1 7 41
M  V30 46 1 7 42
M  V30 47 1 9 43
M  V30 48 1 10 44
M  V30 49 1 11 45
M  V30 50 1 17 46
M  V30 51 1 20 47
M  V30 52 1 21 48
M  V30 53 1 22 49
M  V30 54 1 23 50
M  V30 55 1 27 51
M  V30 56 1 30 52
M  V30 57 1 32 53
M  V30 58 1 32 54
M  V30 59 1 32 55
M  V30 END BOND
M  V30 END CTAB
M  END
>  <Dataset>  (22) 
ChEMBL_Kinases

>  <Ligand_Instance>  (22) 
nan

>  <PDB_ID>  (22) 
nan

>  <Standardized_SMILES>  (22) 
CCOC(=O)CCc1cccc2c(C3=C(c4coc5ccccc45)C(=O)NC3=O)cn(C)c12

>  <Name>  (22) 
nan

>  <Pocket>  (22) 
nan

>  <ATP_Site>  (22) 
nan

>  <Peripheral>  (22) 
nan

>  <Num_H_Atoms_ProtBoundConf>  (22) 
nan

>  <Num_Resolved_Atoms>  (22) 
nan

>  <Num_Not_Resolved_Atoms>  (22) 
nan

$$$$
CHEMBL490044
     RDKit          3D

  0  0  0  0  0  0  0  0  0  0999 V3000
M  V30 BEGIN CTAB
M  V30 COUNTS 58 63 0 0 0
M  V30 BEGIN ATOM
M  V30 1 C 5.747545 -5.233205 3.030174 0
M  V30 2 O 5.507690 -3.867648 3.389713 0
M  V30 3 C 5.374868 -2.899208 2.384455 0
M  V30 4 C 5.142335 -1.572092 2.756153 0
M  V30 5 C 5.004209 -0.585417 1.809343 0
M  V30 6 C 5.086082 -0.847680 0.458328 0
M  V30 7 C 4.951985 0.030398 -0.728242 0
M  V30 8 O 3.726315 0.079326 -1.335004 0
M  V30 9 C 2.491177 0.462179 -0.940096 0
M  V30 10 C 2.081037 0.965895 0.276821 0
M  V30 11 C 0.775874 1.328549 0.583773 0
M  V30 12 C -0.127160 1.143268 -0.457332 0
M  V30 13 C -1.473005 1.425286 -0.393801 0
M  V30 14 C -2.408829 1.964889 0.580864 0
M  V30 15 C -3.609828 1.562478 0.921657 0
M  V30 16 C -4.283608 0.386106 0.330129 0
M  V30 17 C -5.537170 0.308744 -0.216847 0
M  V30 18 N -5.819982 -0.939224 -0.627682 0
M  V30 19 C -7.054634 -1.342004 -1.247061 0
M  V30 20 C -4.734043 -1.637934 -0.331537 0
M  V30 21 C -4.446902 -2.996596 -0.515147 0
M  V30 22 C -3.258897 -3.585077 -0.137611 0
M  V30 23 C -2.283348 -2.828247 0.452912 0
M  V30 24 Br -0.605189 -3.552052 1.015700 0
M  V30 25 C -2.555868 -1.491813 0.637437 0
M  V30 26 C -3.731597 -0.885809 0.267585 0
M  V30 27 C -4.160674 2.445688 1.957887 0
M  V30 28 O -5.299342 2.233327 2.421151 0
M  V30 29 N -3.117061 3.417756 2.174897 0
M  V30 30 C -1.999254 3.146996 1.325524 0
M  V30 31 O -1.068612 3.946974 1.460968 0
M  V30 32 C -1.947627 1.083416 -1.639355 0
M  V30 33 O -0.959194 0.635775 -2.377101 0
M  V30 34 C 0.178079 0.641303 -1.727935 0
M  V30 35 C 1.509734 0.324726 -1.889089 0
M  V30 36 C 5.318940 -2.186135 0.155651 0
M  V30 37 C 5.470585 -3.239968 1.032027 0
M  V30 38 H 6.646360 -5.264776 2.382121 0
M  V30 39 H 4.897483 -5.629422 2.423941 0
M  V30 40 H 5.865061 -5.834262 3.931420 0
M  V30 41 H 5.062768 -1.267415 3.784353 0
M  V30 42 H 4.834539 0.458533 2.027674 0
M  V30 43 H 5.334988 1.043549 -0.404804 0
M  V30 44 H 5.688585 -0.331933 -1.509014 0
M  V30 45 H 2.815612 1.089457 1.026783 0
M  V30 46 H 0.487992 1.716142 1.544154 0
M  V30 47 H -6.147556 1.199327 -0.267687 0
M  V30 48 H -7.905418 -0.700723 -0.919326 0
M  V30 49 H -7.235236 -2.411042 -1.142482 0
M  V30 50 H -6.979769 -1.138811 -2.355394 0
M  V30 51 H -5.172555 -3.637783 -0.972272 0
M  V30 52 H -3.067164 -4.634786 -0.290767 0
M  V30 53 H -1.783772 -0.911115 1.115988 0
M  V30 54 H -3.349373 4.150455 2.911295 0
M  V30 55 H -2.889351 1.065933 -2.212046 0
M  V30 56 H 1.702989 -0.065538 -2.904485 0
M  V30 57 H 5.405727 -2.524059 -0.886423 0
M  V30 58 H 5.648065 -4.252554 0.744925 0
M  V30 END ATOM
M  V30 BEGIN BOND
M  V30 1 1 1 2
M  V30 2 1 2 3
M  V30 3 2 3 4
M  V30 4 1 4 5
M  V30 5 2 5 6
M  V30 6 1 6 7
M  V30 7 1 7 8
M  V30 8 1 8 9
M  V30 9 2 9 10
M  V30 10 1 10 11
M  V30 11 2 11 12
M  V30 12 1 12 13
M  V30 13 1 13 14
M  V30 14 2 14 15
M  V30 15 1 15 16
M  V30 16 2 16 17
M  V30 17 1 17 18
M  V30 18 1 18 19
M  V30 19 1 18 20
M  V30 20 2 20 21
M  V30 21 1 21 22
M  V30 22 2 22 23
M  V30 23 1 23 24
M  V30 24 1 23 25
M  V30 25 2 25 26
M  V30 26 1 15 27
M  V30 27 2 27 28
M  V30 28 1 27 29
M  V30 29 1 29 30
M  V30 30 2 30 31
M  V30 31 2 13 32
M  V30 32 1 32 33
M  V30 33 1 33 34
M  V30 34 2 34 35
M  V30 35 1 6 36
M  V30 36 2 36 37
M  V30 37 1 37 3
M  V30 38 1 35 9
M  V30 39 1 34 12
M  V30 40 1 30 14
M  V30 41 1 26 16
M  V30 42 1 26 20
M  V30 43 1 1 38
M  V30 44 1 1 39
M  V30 45 1 1 40
M  V30 46 1 4 41
M  V30 47 1 5 42
M  V30 48 1 7 43
M  V30 49 1 7 44
M  V30 50 1 10 45
M  V30 51 1 11 46
M  V30 52 1 17 47
M  V30 53 1 19 48
M  V30 54 1 19 49
M  V30 55 1 19 50
M  V30 56 1 21 51
M  V30 57 1 22 52
M  V30 58 1 25 53
M  V30 59 1 29 54
M  V30 60 1 32 55
M  V30 61 1 35 56
M  V30 62 1 36 57
M  V30 63 1 37 58
M  V30 END BOND
M  V30 END CTAB
M  END
>  <Dataset>  (23) 
ChEMBL_Kinases

>  <Ligand_Instance>  (23) 
nan

>  <PDB_ID>  (23) 
nan

>  <Standardized_SMILES>  (23) 
COc1ccc(COc2ccc3c(C4=C(c5cn(C)c6ccc(Br)cc56)C(=O)NC4=O)coc3c2)cc1

>  <Name>  (23) 
nan

>  <Pocket>  (23) 
nan

>  <ATP_Site>  (23) 
nan

>  <Peripheral>  (23) 
nan

>  <Num_H_Atoms_ProtBoundConf>  (23) 
nan

>  <Num_Resolved_Atoms>  (23) 
nan

>  <Num_Not_Resolved_Atoms>  (23) 
nan

$$$$
CHEMBL4877216
     RDKit          3D

  0  0  0  0  0  0  0  0  0  0999 V3000
M  V30 BEGIN CTAB
M  V30 COUNTS 63 67 0 0 0
M  V30 BEGIN ATOM
M  V30 1 C 3.165434 -2.881289 4.105201 0
M  V30 2 C 3.943802 -2.324902 2.925757 0
M  V30 3 C 4.222533 -3.432630 1.967724 0
M  V30 4 N 3.332986 -1.165763 2.349511 0
M  V30 5 C 3.539590 0.063253 2.911298 0
M  V30 6 O 4.237070 0.369958 3.936442 0
M  V30 7 C 2.884026 1.035654 2.236751 0
M  V30 8 C 2.711771 2.417249 2.309824 0
M  V30 9 N 1.959011 3.137904 1.444808 0
M  V30 10 C 1.344952 2.458715 0.459042 0
M  V30 11 N 0.462892 2.729992 -0.645051 0
M  V30 12 C -0.925120 2.478478 -0.817463 0
M  V30 13 C -1.426778 2.716402 -2.077961 0
M  V30 14 C -2.761512 2.461793 -2.309177 0
M  V30 15 C -3.599381 1.983154 -1.332334 0
M  V30 16 C -3.074327 1.753731 -0.074631 0
M  V30 17 C -1.735733 2.001190 0.186182 0
M  V30 18 C -3.994292 1.247494 0.962576 0
M  V30 19 N -4.966821 0.324821 0.522446 0
M  V30 20 C -5.335886 0.368188 -0.850107 0
M  V30 21 C -5.032414 1.675133 -1.544870 0
M  V30 22 N 1.497389 1.128905 0.367236 0
M  V30 23 C 2.234884 0.366684 1.199993 0
M  V30 24 N 2.546947 -0.945396 1.327743 0
M  V30 25 C 1.990009 -1.800243 0.353985 0
M  V30 26 C 2.619151 -2.498909 -0.651518 0
M  V30 27 C 2.007367 -3.293104 -1.592886 0
M  V30 28 C 0.648385 -3.392089 -1.516055 0
M  V30 29 F 0.062196 -4.188066 -2.458212 0
M  V30 30 C -0.017066 -2.705146 -0.523012 0
M  V30 31 C -1.494347 -2.875655 -0.575947 0
M  V30 32 C -2.093436 -1.977424 0.466445 0
M  V30 33 C -1.958236 -4.283465 -0.372326 0
M  V30 34 O -1.876603 -2.389188 -1.840777 0
M  V30 35 N 0.635129 -1.932052 0.385092 0
M  V30 36 H 3.598348 -2.499146 5.079023 0
M  V30 37 H 2.137897 -2.474542 4.039119 0
M  V30 38 H 3.087497 -3.974488 4.062662 0
M  V30 39 H 4.941597 -2.019122 3.338043 0
M  V30 40 H 4.799984 -4.208596 2.584757 0
M  V30 41 H 4.919132 -3.151836 1.162918 0
M  V30 42 H 3.341988 -3.995395 1.630233 0
M  V30 43 H 3.193467 2.949924 3.088910 0
M  V30 44 H 1.060395 3.180607 -1.371161 0
M  V30 45 H -0.828351 3.090272 -2.887988 0
M  V30 46 H -3.201956 2.634069 -3.294412 0
M  V30 47 H -1.337525 1.819018 1.175258 0
M  V30 48 H -4.540262 2.066892 1.512755 0
M  V30 49 H -3.359817 0.751713 1.724788 0
M  V30 50 H -4.822369 -0.648507 0.826928 0
M  V30 51 H -6.421711 0.180219 -0.946237 0
M  V30 52 H -4.831776 -0.470860 -1.395838 0
M  V30 53 H -5.727015 2.479356 -1.323366 0
M  V30 54 H -5.121843 1.435791 -2.646525 0
M  V30 55 H 3.684444 -2.387716 -0.683679 0
M  V30 56 H 2.598150 -3.793345 -2.332682 0
M  V30 57 H -1.313852 -1.505216 1.109387 0
M  V30 58 H -2.617788 -1.102901 -0.019936 0
M  V30 59 H -2.782381 -2.545840 1.138130 0
M  V30 60 H -1.321545 -4.761042 0.395477 0
M  V30 61 H -3.018076 -4.255917 -0.043906 0
M  V30 62 H -1.963819 -4.906858 -1.292699 0
M  V30 63 H -1.561848 -1.452480 -1.845393 0
M  V30 END ATOM
M  V30 BEGIN BOND
M  V30 1 1 1 2
M  V30 2 1 2 3
M  V30 3 1 2 4
M  V30 4 1 4 5
M  V30 5 2 5 6
M  V30 6 1 5 7
M  V30 7 2 7 8
M  V30 8 1 8 9
M  V30 9 2 9 10
M  V30 10 1 10 11
M  V30 11 1 11 12
M  V30 12 2 12 13
M  V30 13 1 13 14
M  V30 14 2 14 15
M  V30 15 1 15 16
M  V30 16 2 16 17
M  V30 17 1 16 18
M  V30 18 1 18 19
M  V30 19 1 19 20
M  V30 20 1 20 21
M  V30 21 1 10 22
M  V30 22 2 22 23
M  V30 23 1 23 24
M  V30 24 1 24 25
M  V30 25 2 25 26
M  V30 26 1 26 27
M  V30 27 2 27 28
M  V30 28 1 28 29
M  V30 29 1 28 30
M  V30 30 1 30 31
M  V30 31 1 31 32
M  V30 32 1 31 33
M  V30 33 1 31 34
M  V30 34 2 30 35
M  V30 35 1 24 4
M  V30 36 1 35 25
M  V30 37 1 23 7
M  V30 38 1 17 12
M  V30 39 1 21 15
M  V30 40 1 1 36
M  V30 41 1 1 37
M  V30 42 1 1 38
M  V30 43 1 2 39
M  V30 44 1 3 40
M  V30 45 1 3 41
M  V30 46 1 3 42
M  V30 47 1 8 43
M  V30 48 1 11 44
M  V30 49 1 13 45
M  V30 50 1 14 46
M  V30 51 1 17 47
M  V30 52 1 18 48
M  V30 53 1 18 49
M  V30 54 1 19 50
M  V30 55 1 20 51
M  V30 56 1 20 52
M  V30 57 1 21 53
M  V30 58 1 21 54
M  V30 59 1 26 55
M  V30 60 1 27 56
M  V30 61 1 32 57
M  V30 62 1 32 58
M  V30 63 1 32 59
M  V30 64 1 33 60
M  V30 65 1 33 61
M  V30 66 1 33 62
M  V30 67 1 34 63
M  V30 END BOND
M  V30 END CTAB
M  END
>  <Dataset>  (24) 
ChEMBL_Kinases

>  <Ligand_Instance>  (24) 
nan

>  <PDB_ID>  (24) 
nan

>  <Standardized_SMILES>  (24) 
CC(C)n1c(=O)c2cnc(Nc3ccc4c(c3)CNCC4)nc2n1-c1ccc(F)c(C(C)(C)O)n1

>  <Name>  (24) 
nan

>  <Pocket>  (24) 
nan

>  <ATP_Site>  (24) 
nan

>  <Peripheral>  (24) 
nan

>  <Num_H_Atoms_ProtBoundConf>  (24) 
nan

>  <Num_Resolved_Atoms>  (24) 
nan

>  <Num_Not_Resolved_Atoms>  (24) 
nan

$$$$
CHEMBL490129
     RDKit          3D

  0  0  0  0  0  0  0  0  0  0999 V3000
M  V30 BEGIN CTAB
M  V30 COUNTS 39 44 0 0 0
M  V30 BEGIN ATOM
M  V30 1 C 1.086531 -2.497047 2.176728 0
M  V30 2 N 0.591321 -1.717591 1.102756 0 CHG=1 VAL=4
M  V30 3 C 0.423422 -2.349892 -0.101468 0
M  V30 4 C -0.035761 -1.785818 -1.246898 0
M  V30 5 C -0.149280 -2.551259 -2.383381 0
M  V30 6 C -0.616841 -1.979324 -3.558064 0
M  V30 7 C -0.972839 -0.658597 -3.619013 0
M  V30 8 C -0.839573 0.062705 -2.451609 0
M  V30 9 C -0.381111 -0.475197 -1.278590 0
M  V30 10 C -0.233915 0.210856 -0.099963 0
M  V30 11 C -0.580071 1.542394 -0.109817 0
M  V30 12 C -0.470883 2.320871 1.022994 0
M  V30 13 C 0.012121 1.659855 2.165546 0
M  V30 14 C 0.102022 2.501887 3.287985 0
M  V30 15 C 0.571320 1.888320 4.426549 0
M  V30 16 C 0.936726 0.559900 4.511445 0
M  V30 17 C 0.784317 -0.125894 3.306156 0
M  V30 18 C 0.338953 0.343867 2.119536 0
M  V30 19 C 0.236490 -0.432231 1.013009 0
M  V30 20 O 1.336855 0.401372 5.828424 0
M  V30 21 C 1.047108 1.529178 6.616691 0
M  V30 22 O 0.744814 2.520280 5.655789 0
M  V30 23 O -0.613047 -3.004774 -4.511158 0
M  V30 24 C 0.314533 -4.011552 -4.077959 0
M  V30 25 O 0.122968 -3.904554 -2.659984 0
M  V30 26 H 0.364121 -2.809272 2.967659 0
M  V30 27 H 1.224394 -3.553307 1.747656 0
M  V30 28 H 2.148352 -2.360202 2.471781 0
M  V30 29 H 0.672580 -3.406327 -0.183338 0
M  V30 30 H -1.339247 -0.199640 -4.529883 0
M  V30 31 H -1.123502 1.093505 -2.521689 0
M  V30 32 H -0.954626 2.104474 -0.948672 0
M  V30 33 H -0.738273 3.374363 1.038332 0
M  V30 34 H -0.173208 3.531793 3.251432 0
M  V30 35 H 1.098636 -1.074525 3.555961 0
M  V30 36 H 1.964525 1.919164 7.147844 0
M  V30 37 H 0.244707 1.357599 7.347761 0
M  V30 38 H 1.364375 -3.672171 -4.255336 0
M  V30 39 H 0.077952 -4.994015 -4.479102 0
M  V30 END ATOM
M  V30 BEGIN BOND
M  V30 1 1 1 2
M  V30 2 2 2 3
M  V30 3 1 3 4
M  V30 4 2 4 5
M  V30 5 1 5 6
M  V30 6 2 6 7
M  V30 7 1 7 8
M  V30 8 2 8 9
M  V30 9 1 9 10
M  V30 10 2 10 11
M  V30 11 1 11 12
M  V30 12 2 12 13
M  V30 13 1 13 14
M  V30 14 2 14 15
M  V30 15 1 15 16
M  V30 16 2 16 17
M  V30 17 1 17 18
M  V30 18 2 18 19
M  V30 19 1 16 20
M  V30 20 1 20 21
M  V30 21 1 21 22
M  V30 22 1 6 23
M  V30 23 1 23 24
M  V30 24 1 24 25
M  V30 25 1 19 2
M  V30 26 1 9 4
M  V30 27 1 19 10
M  V30 28 1 25 5
M  V30 29 1 18 13
M  V30 30 1 22 15
M  V30 31 1 1 26
M  V30 32 1 1 27
M  V30 33 1 1 28
M  V30 34 1 3 29
M  V30 35 1 7 30
M  V30 36 1 8 31
M  V30 37 1 11 32
M  V30 38 1 12 33
M  V30 39 1 14 34
M  V30 40 1 17 35
M  V30 41 1 21 36
M  V30 42 1 21 37
M  V30 43 1 24 38
M  V30 44 1 24 39
M  V30 END BOND
M  V30 END CTAB
M  END
>  <Dataset>  (25) 
ChEMBL_Kinases

>  <Ligand_Instance>  (25) 
nan

>  <PDB_ID>  (25) 
nan

>  <Standardized_SMILES>  (25) 
C[n+]1cc2c3c(ccc2c2ccc4cc5c(cc4c21)OCO5)OCO3

>  <Name>  (25) 
SANGUINARIUM CHLORIDE

>  <Pocket>  (25) 
nan

>  <ATP_Site>  (25) 
nan

>  <Peripheral>  (25) 
nan

>  <Num_H_Atoms_ProtBoundConf>  (25) 
nan

>  <Num_Resolved_Atoms>  (25) 
nan

>  <Num_Not_Resolved_Atoms>  (25) 
nan

$$$$
CHEMBL4877175
     RDKit          3D

  0  0  0  0  0  0  0  0  0  0999 V3000
M  V30 BEGIN CTAB
M  V30 COUNTS 60 64 0 0 0
M  V30 BEGIN ATOM
M  V30 1 O 1.374226 -4.530010 3.484699 0
M  V30 2 C 0.745989 -4.687391 2.396401 0
M  V30 3 N 1.218216 -4.081833 1.210114 0
M  V30 4 C 2.334346 -3.257463 0.900456 0
M  V30 5 C 3.589605 -3.581787 0.473666 0
M  V30 6 N 4.508563 -2.635409 0.231457 0
M  V30 7 C 4.210275 -1.312639 0.407255 0
M  V30 8 C 2.947489 -0.915441 0.841427 0
M  V30 9 O 2.855150 0.437213 0.949838 0
M  V30 10 C 1.702906 1.126948 1.380766 0
M  V30 11 C 1.960372 2.644398 1.330371 0
M  V30 12 C 0.698112 3.314833 1.811192 0
M  V30 13 C -0.133477 3.804932 0.668171 0
M  V30 14 N -0.345822 2.736452 -0.293302 0
M  V30 15 C -1.395816 3.085695 -1.233916 0
M  V30 16 C -1.755939 1.994357 -2.144266 0
M  V30 17 C -2.785165 1.172456 -1.665191 0
M  V30 18 C -3.288635 0.083250 -2.346054 0
M  V30 19 C -2.739471 -0.211097 -3.576411 0
M  V30 20 C -1.727344 0.579434 -4.070772 0
M  V30 21 C -1.243138 1.657162 -3.376312 0
M  V30 22 C 0.924093 2.543121 -0.966807 0
M  V30 23 C 2.110021 3.006708 -0.156735 0
M  V30 24 C 2.001162 -1.917339 1.089194 0
M  V30 25 C -0.480616 -5.443890 2.121193 0
M  V30 26 C -0.420860 -6.555616 1.275953 0
M  V30 27 C -1.601952 -7.220134 1.056209 0
M  V30 28 N -2.761318 -6.806332 1.637486 0
M  V30 29 C -2.790073 -5.734341 2.445631 0
M  V30 30 N -3.780824 -5.130101 3.129282 0
M  V30 31 C -3.292278 -4.060778 3.814061 0
M  V30 32 C -1.950930 -3.966366 3.570343 0
M  V30 33 C -1.642355 -5.006972 2.720337 0
M  V30 34 H 0.788477 -4.137998 0.238684 0
M  V30 35 H 3.738737 -4.630715 0.362049 0
M  V30 36 H 5.049317 -0.642356 0.176137 0
M  V30 37 H 1.500599 0.806993 2.430233 0
M  V30 38 H 0.830024 0.961992 0.722365 0
M  V30 39 H 2.861785 2.920428 1.874385 0
M  V30 40 H 1.016823 4.213845 2.388014 0
M  V30 41 H 0.115000 2.613056 2.480583 0
M  V30 42 H -1.146607 4.057126 1.074179 0
M  V30 43 H 0.323473 4.678037 0.206643 0
M  V30 44 H -2.308297 3.471806 -0.744178 0
M  V30 45 H -1.000974 3.957249 -1.822376 0
M  V30 46 H -3.272141 1.341291 -0.697177 0
M  V30 47 H -4.087329 -0.531559 -1.944650 0
M  V30 48 H -3.132744 -1.064554 -4.113002 0
M  V30 49 H -1.282959 0.355597 -5.047902 0
M  V30 50 H -0.446553 2.324431 -3.703833 0
M  V30 51 H 0.993087 1.487618 -1.264633 0
M  V30 52 H 0.977132 3.117093 -1.938048 0
M  V30 53 H 2.211461 4.088443 -0.219697 0
M  V30 54 H 2.988901 2.457290 -0.587853 0
M  V30 55 H 1.062882 -1.460188 1.422061 0
M  V30 56 H 0.543196 -6.811303 0.858858 0
M  V30 57 H -1.571338 -8.072423 0.412560 0
M  V30 58 H -4.792761 -5.380034 3.180513 0
M  V30 59 H -3.801242 -3.341579 4.469926 0
M  V30 60 H -1.245791 -3.256567 3.935289 0
M  V30 END ATOM
M  V30 BEGIN BOND
M  V30 1 2 1 2
M  V30 2 1 2 3
M  V30 3 1 3 4
M  V30 4 2 4 5
M  V30 5 1 5 6
M  V30 6 2 6 7
M  V30 7 1 7 8
M  V30 8 1 8 9
M  V30 9 1 9 10
M  V30 10 1 10 11
M  V30 11 1 11 12
M  V30 12 1 12 13
M  V30 13 1 13 14
M  V30 14 1 14 15
M  V30 15 1 15 16
M  V30 16 2 16 17
M  V30 17 1 17 18
M  V30 18 2 18 19
M  V30 19 1 19 20
M  V30 20 2 20 21
M  V30 21 1 14 22
M  V30 22 1 22 23
M  V30 23 2 8 24
M  V30 24 1 2 25
M  V30 25 2 25 26
M  V30 26 1 26 27
M  V30 27 2 27 28
M  V30 28 1 28 29
M  V30 29 1 29 30
M  V30 30 1 30 31
M  V30 31 2 31 32
M  V30 32 1 32 33
M  V30 33 1 24 4
M  V30 34 1 33 25
M  V30 35 1 23 11
M  V30 36 2 33 29
M  V30 37 1 21 16
M  V30 38 1 3 34
M  V30 39 1 5 35
M  V30 40 1 7 36
M  V30 41 1 10 37
M  V30 42 1 10 38
M  V30 43 1 11 39
M  V30 44 1 12 40
M  V30 45 1 12 41
M  V30 46 1 13 42
M  V30 47 1 13 43
M  V30 48 1 15 44
M  V30 49 1 15 45
M  V30 50 1 17 46
M  V30 51 1 18 47
M  V30 52 1 19 48
M  V30 53 1 20 49
M  V30 54 1 21 50
M  V30 55 1 22 51
M  V30 56 1 22 52
M  V30 57 1 23 53
M  V30 58 1 23 54
M  V30 59 1 24 55
M  V30 60 1 26 56
M  V30 61 1 27 57
M  V30 62 1 30 58
M  V30 63 1 31 59
M  V30 64 1 32 60
M  V30 END BOND
M  V30 END CTAB
M  END
>  <Dataset>  (26) 
ChEMBL_Kinases

>  <Ligand_Instance>  (26) 
nan

>  <PDB_ID>  (26) 
nan

>  <Standardized_SMILES>  (26) 
O=C(Nc1cncc(OCC2CCN(Cc3ccccc3)CC2)c1)c1ccnc2[nH]ccc12

>  <Name>  (26) 
nan

>  <Pocket>  (26) 
nan

>  <ATP_Site>  (26) 
nan

>  <Peripheral>  (26) 
nan

>  <Num_H_Atoms_ProtBoundConf>  (26) 
nan

>  <Num_Resolved_Atoms>  (26) 
nan

>  <Num_Not_Resolved_Atoms>  (26) 
nan

$$$$
CHEMBL4877169
     RDKit          3D

  0  0  0  0  0  0  0  0  0  0999 V3000
M  V30 BEGIN CTAB
M  V30 COUNTS 44 47 0 0 0
M  V30 BEGIN ATOM
M  V30 1 N 2.001971 -3.346829 2.925677 0
M  V30 2 C 2.335401 -2.865908 1.905765 0
M  V30 3 C 2.744875 -2.266242 0.682603 0
M  V30 4 C 4.057430 -1.922904 0.450700 0
M  V30 5 C 4.352416 -1.350996 -0.767393 0
M  V30 6 C 3.403630 -1.116553 -1.737998 0
M  V30 7 C 2.073501 -1.457901 -1.518112 0
M  V30 8 N 1.045661 -1.237448 -2.498097 0
M  V30 9 C -0.288061 -1.615798 -2.100644 0
M  V30 10 C -0.897311 -0.852268 -1.178486 0
M  V30 11 C -0.379737 0.336335 -0.510652 0
M  V30 12 C 0.332754 1.212421 -1.316773 0
M  V30 13 C 0.865087 2.365813 -0.752002 0
M  V30 14 C 0.717174 2.682195 0.581062 0
M  V30 15 C 0.001474 1.794258 1.373225 0
M  V30 16 C -0.534404 0.640926 0.823561 0
M  V30 17 O -1.263029 -0.273572 1.611920 0
M  V30 18 C -1.354027 0.117022 2.959504 0
M  V30 19 C -2.296863 0.880193 3.613808 0
M  V30 20 C -2.159755 1.126401 4.963000 0
M  V30 21 C -1.079892 0.611251 5.663454 0
M  V30 22 C -0.119779 -0.155727 5.039182 0
M  V30 23 C -0.276516 -0.390008 3.689330 0
M  V30 24 C -2.218910 -1.425797 -0.940959 0
M  V30 25 O -3.148256 -1.061277 -0.167267 0
M  V30 26 N -2.385489 -2.590780 -1.774892 0
M  V30 27 C -1.166991 -2.707092 -2.503945 0
M  V30 28 O -0.763151 -3.533153 -3.368558 0
M  V30 29 C 1.780279 -2.038336 -0.277743 0
M  V30 30 H 4.742295 -2.135409 1.252790 0
M  V30 31 H 5.402630 -1.083837 -0.938530 0
M  V30 32 H 3.688753 -0.657199 -2.689985 0
M  V30 33 H 1.374075 -0.825564 -3.402393 0
M  V30 34 H 0.554802 1.152013 -2.357422 0
M  V30 35 H 1.436717 3.113446 -1.296979 0
M  V30 36 H 1.123188 3.573416 1.038340 0
M  V30 37 H -0.125915 2.025155 2.422364 0
M  V30 38 H -3.077366 1.210020 2.935627 0
M  V30 39 H -2.932838 1.726770 5.401401 0
M  V30 40 H -0.990406 0.818041 6.726175 0
M  V30 41 H 0.703032 -0.534483 5.629869 0
M  V30 42 H 0.527017 -1.002129 3.284612 0
M  V30 43 H -3.153369 -3.291534 -1.926502 0
M  V30 44 H 0.745787 -2.317751 -0.071050 0
M  V30 END ATOM
M  V30 BEGIN BOND
M  V30 1 3 1 2
M  V30 2 1 2 3
M  V30 3 2 3 4
M  V30 4 1 4 5
M  V30 5 2 5 6
M  V30 6 1 6 7
M  V30 7 1 7 8
M  V30 8 1 8 9
M  V30 9 2 9 10
M  V30 10 1 10 11
M  V30 11 2 11 12
M  V30 12 1 12 13
M  V30 13 2 13 14
M  V30 14 1 14 15
M  V30 15 2 15 16
M  V30 16 1 16 17
M  V30 17 1 17 18
M  V30 18 2 18 19
M  V30 19 1 19 20
M  V30 20 2 20 21
M  V30 21 1 21 22
M  V30 22 2 22 23
M  V30 23 1 10 24
M  V30 24 2 24 25
M  V30 25 1 24 26
M  V30 26 1 26 27
M  V30 27 2 27 28
M  V30 28 2 7 29
M  V30 29 1 29 3
M  V30 30 1 27 9
M  V30 31 1 16 11
M  V30 32 1 23 18
M  V30 33 1 4 30
M  V30 34 1 5 31
M  V30 35 1 6 32
M  V30 36 1 8 33
M  V30 37 1 12 34
M  V30 38 1 13 35
M  V30 39 1 14 36
M  V30 40 1 15 37
M  V30 41 1 19 38
M  V30 42 1 20 39
M  V30 43 1 21 40
M  V30 44 1 22 41
M  V30 45 1 23 42
M  V30 46 1 26 43
M  V30 47 1 29 44
M  V30 END BOND
M  V30 END CTAB
M  END
>  <Dataset>  (27) 
ChEMBL_Kinases

>  <Ligand_Instance>  (27) 
nan

>  <PDB_ID>  (27) 
nan

>  <Standardized_SMILES>  (27) 
N#Cc1cccc(NC2=C(c3ccccc3Oc3ccccc3)C(=O)NC2=O)c1

>  <Name>  (27) 
nan

>  <Pocket>  (27) 
nan

>  <ATP_Site>  (27) 
nan

>  <Peripheral>  (27) 
nan

>  <Num_H_Atoms_ProtBoundConf>  (27) 
nan

>  <Num_Resolved_Atoms>  (27) 
nan

>  <Num_Not_Resolved_Atoms>  (27) 
nan

$$$$
CHEMBL3884277
     RDKit          3D

  0  0  0  0  0  0  0  0  0  0999 V3000
M  V30 BEGIN CTAB
M  V30 COUNTS 52 55 0 0 0
M  V30 BEGIN ATOM
M  V30 1 C -1.513376 -4.160722 0.627154 0
M  V30 2 C -0.219764 -3.861154 1.251848 0
M  V30 3 O -0.296832 -3.995744 2.498019 0
M  V30 4 N 1.048171 -3.470009 0.791643 0
M  V30 5 C 2.058271 -3.284878 1.814997 0
M  V30 6 C 2.294789 -1.793722 1.864955 0
M  V30 7 C 2.713261 -1.242098 0.516239 0
M  V30 8 N 2.080543 0.049663 0.257346 0
M  V30 9 C 2.765172 1.311360 0.221729 0
M  V30 10 O 4.004323 1.539430 0.401595 0
M  V30 11 C 1.817865 2.430329 -0.069523 0
M  V30 12 C 1.777173 3.328482 1.134900 0
M  V30 13 C 2.190106 3.151090 -1.334022 0
M  V30 14 C 0.536997 1.690757 -0.195391 0
M  V30 15 C -0.715343 2.242684 -0.470207 0
M  V30 16 N -1.765536 1.384047 -0.543667 0
M  V30 17 C -1.572027 0.052562 -0.353150 0
M  V30 18 N -2.794272 -0.662699 -0.472653 0
M  V30 19 C -3.646190 -0.904031 0.645576 0
M  V30 20 C -3.247634 -0.415295 1.876920 0
M  V30 21 C -4.058077 -0.638355 2.970416 0
M  V30 22 C -5.236745 -1.354917 2.730693 0
M  V30 23 N -5.590133 -1.815434 1.512187 0
M  V30 24 C -4.811809 -1.609729 0.422149 0
M  V30 25 N -0.359017 -0.494522 -0.085461 0
M  V30 26 C 0.711615 0.333664 -0.004972 0
M  V30 27 C 2.617338 -2.199194 -0.603277 0
M  V30 28 C 1.527616 -3.215428 -0.549500 0
M  V30 29 H -1.852490 -5.169644 0.940787 0
M  V30 30 H -2.327116 -3.468141 0.965278 0
M  V30 31 H -1.430998 -4.068222 -0.467784 0
M  V30 32 H 3.012260 -3.761994 1.466154 0
M  V30 33 H 1.765344 -3.627669 2.805222 0
M  V30 34 H 1.311054 -1.322660 2.094949 0
M  V30 35 H 2.973054 -1.545130 2.686094 0
M  V30 36 H 3.792201 -0.974869 0.663862 0
M  V30 37 H 1.447380 2.719455 1.996080 0
M  V30 38 H 1.018340 4.128792 1.004488 0
M  V30 39 H 2.788585 3.718592 1.373593 0
M  V30 40 H 1.290425 3.297400 -1.970099 0
M  V30 41 H 2.647252 4.128575 -1.076895 0
M  V30 42 H 2.937880 2.541826 -1.886697 0
M  V30 43 H -0.845537 3.312425 -0.619012 0
M  V30 44 H -3.003732 -0.986085 -1.430877 0
M  V30 45 H -2.335566 0.129668 2.017974 0
M  V30 46 H -3.855600 -0.309768 3.970529 0
M  V30 47 H -5.908472 -1.553027 3.575369 0
M  V30 48 H -5.055409 -1.959493 -0.568937 0
M  V30 49 H 3.584825 -2.760087 -0.692054 0
M  V30 50 H 2.571619 -1.617619 -1.556041 0
M  V30 51 H 1.866509 -4.193296 -0.951823 0
M  V30 52 H 0.656048 -2.951709 -1.213013 0
M  V30 END ATOM
M  V30 BEGIN BOND
M  V30 1 1 1 2
M  V30 2 2 2 3
M  V30 3 1 2 4
M  V30 4 1 4 5
M  V30 5 1 5 6
M  V30 6 1 6 7
M  V30 7 1 7 8
M  V30 8 1 8 9
M  V30 9 2 9 10
M  V30 10 1 9 11
M  V30 11 1 11 12
M  V30 12 1 11 13
M  V30 13 1 11 14
M  V30 14 2 14 15
M  V30 15 1 15 16
M  V30 16 2 16 17
M  V30 17 1 17 18
M  V30 18 1 18 19
M  V30 19 2 19 20
M  V30 20 1 20 21
M  V30 21 2 21 22
M  V30 22 1 22 23
M  V30 23 2 23 24
M  V30 24 1 17 25
M  V30 25 2 25 26
M  V30 26 1 7 27
M  V30 27 1 27 28
M  V30 28 1 28 4
M  V30 29 1 26 8
M  V30 30 1 26 14
M  V30 31 1 24 19
M  V30 32 1 1 29
M  V30 33 1 1 30
M  V30 34 1 1 31
M  V30 35 1 5 32
M  V30 36 1 5 33
M  V30 37 1 6 34
M  V30 38 1 6 35
M  V30 39 1 7 36
M  V30 40 1 12 37
M  V30 41 1 12 38
M  V30 42 1 12 39
M  V30 43 1 13 40
M  V30 44 1 13 41
M  V30 45 1 13 42
M  V30 46 1 15 43
M  V30 47 1 18 44
M  V30 48 1 20 45
M  V30 49 1 21 46
M  V30 50 1 22 47
M  V30 51 1 24 48
M  V30 52 1 27 49
M  V30 53 1 27 50
M  V30 54 1 28 51
M  V30 55 1 28 52
M  V30 END BOND
M  V30 END CTAB
M  END
>  <Dataset>  (28) 
ChEMBL_Kinases

>  <Ligand_Instance>  (28) 
nan

>  <PDB_ID>  (28) 
nan

>  <Standardized_SMILES>  (28) 
CC(=O)N1CCC(N2C(=O)C(C)(C)c3cnc(Nc4cccnc4)nc32)CC1

>  <Name>  (28) 
nan

>  <Pocket>  (28) 
nan

>  <ATP_Site>  (28) 
nan

>  <Peripheral>  (28) 
nan

>  <Num_H_Atoms_ProtBoundConf>  (28) 
nan

>  <Num_Resolved_Atoms>  (28) 
nan

>  <Num_Not_Resolved_Atoms>  (28) 
nan

$$$$
CHEMBL3884253
     RDKit          3D

  0  0  0  0  0  0  0  0  0  0999 V3000
M  V30 BEGIN CTAB
M  V30 COUNTS 44 46 0 0 0
M  V30 BEGIN ATOM
M  V30 1 C 0.170293 -4.831103 2.500928 0
M  V30 2 C 1.020849 -3.677077 2.018768 0
M  V30 3 C 0.230171 -2.815480 1.086972 0 CFG=2
M  V30 4 C -0.246345 -3.584726 -0.117564 0
M  V30 5 N 1.104736 -1.707847 0.686627 0
M  V30 6 C 2.303803 -1.908613 -0.013037 0
M  V30 7 O 2.872714 -2.941141 -0.443182 0
M  V30 8 C 2.959718 -0.622581 -0.247899 0
M  V30 9 C 3.241678 -0.318499 -1.690651 0
M  V30 10 C 4.247952 -0.484961 0.567835 0
M  V30 11 C 2.002237 0.351874 0.348469 0
M  V30 12 C 2.028604 1.727645 0.436128 0
M  V30 13 N 1.009617 2.344086 1.056584 0
M  V30 14 C -0.046752 1.717414 1.606509 0
M  V30 15 N -0.954793 2.638409 2.179778 0
M  V30 16 C -2.200815 2.863580 1.543226 0
M  V30 17 C -2.528651 2.060382 0.448251 0
M  V30 18 C -3.699841 2.167752 -0.259040 0
M  V30 19 C -4.579232 3.160458 0.190684 0
M  V30 20 N -4.262250 3.942600 1.255406 0
M  V30 21 C -3.118601 3.822468 1.929906 0
M  V30 22 N -0.072366 0.363566 1.519745 0
M  V30 23 C 0.920308 -0.316913 0.908403 0
M  V30 24 H 0.613576 -5.224064 3.441017 0
M  V30 25 H -0.873869 -4.536903 2.718815 0
M  V30 26 H 0.206208 -5.670766 1.778620 0
M  V30 27 H 1.878200 -4.098592 1.470887 0
M  V30 28 H 1.342104 -3.085255 2.898918 0
M  V30 29 H -0.659941 -2.418109 1.624999 0
M  V30 30 H -1.361778 -3.618686 -0.188257 0
M  V30 31 H 0.186315 -3.183096 -1.055931 0
M  V30 32 H 0.087769 -4.636539 -0.021799 0
M  V30 33 H 4.074387 -0.964899 -2.016360 0
M  V30 34 H 2.335105 -0.483506 -2.297354 0
M  V30 35 H 3.524879 0.740195 -1.807492 0
M  V30 36 H 4.508689 0.595796 0.542351 0
M  V30 37 H 5.044440 -1.120866 0.190319 0
M  V30 38 H 3.938481 -0.747016 1.616154 0
M  V30 39 H 2.875098 2.227052 -0.006069 0
M  V30 40 H -0.621534 3.089967 3.042392 0
M  V30 41 H -1.844719 1.275378 0.084738 0
M  V30 42 H -3.930053 1.518941 -1.116960 0
M  V30 43 H -5.523629 3.303365 -0.317209 0
M  V30 44 H -2.804877 4.415490 2.782962 0
M  V30 END ATOM
M  V30 BEGIN BOND
M  V30 1 1 1 2
M  V30 2 1 2 3
M  V30 3 1 3 4
M  V30 4 1 3 5
M  V30 5 1 5 6
M  V30 6 2 6 7
M  V30 7 1 6 8
M  V30 8 1 8 9
M  V30 9 1 8 10
M  V30 10 1 8 11
M  V30 11 2 11 12
M  V30 12 1 12 13
M  V30 13 2 13 14
M  V30 14 1 14 15
M  V30 15 1 15 16
M  V30 16 2 16 17
M  V30 17 1 17 18
M  V30 18 2 18 19
M  V30 19 1 19 20
M  V30 20 2 20 21
M  V30 21 1 14 22
M  V30 22 2 22 23
M  V30 23 1 23 5
M  V30 24 1 23 11
M  V30 25 1 21 16
M  V30 26 1 1 24
M  V30 27 1 1 25
M  V30 28 1 1 26
M  V30 29 1 2 27
M  V30 30 1 2 28
M  V30 31 1 3 29 CFG=1
M  V30 32 1 4 30
M  V30 33 1 4 31
M  V30 34 1 4 32
M  V30 35 1 9 33
M  V30 36 1 9 34
M  V30 37 1 9 35
M  V30 38 1 10 36
M  V30 39 1 10 37
M  V30 40 1 10 38
M  V30 41 1 12 39
M  V30 42 1 15 40
M  V30 43 1 17 41
M  V30 44 1 18 42
M  V30 45 1 19 43
M  V30 46 1 21 44
M  V30 END BOND
M  V30 END CTAB
M  END
>  <Dataset>  (29) 
ChEMBL_Kinases

>  <Ligand_Instance>  (29) 
nan

>  <PDB_ID>  (29) 
nan

>  <Standardized_SMILES>  (29) 
CC[C@H](C)N1C(=O)C(C)(C)c2cnc(Nc3cccnc3)nc21

>  <Name>  (29) 
nan

>  <Pocket>  (29) 
nan

>  <ATP_Site>  (29) 
nan

>  <Peripheral>  (29) 
nan

>  <Num_H_Atoms_ProtBoundConf>  (29) 
nan

>  <Num_Resolved_Atoms>  (29) 
nan

>  <Num_Not_Resolved_Atoms>  (29) 
nan

$$$$
CHEMBL490423
     RDKit          3D

  0  0  0  0  0  0  0  0  0  0999 V3000
M  V30 BEGIN CTAB
M  V30 COUNTS 43 47 0 0 0
M  V30 BEGIN ATOM
M  V30 1 F 7.716697 -5.217660 -0.043185 0
M  V30 2 C 6.864318 -5.036948 -1.095147 0
M  V30 3 F 6.420884 -6.290656 -1.526074 0
M  V30 4 F 7.522476 -4.437871 -2.171950 0
M  V30 5 C 5.761683 -4.132027 -0.740682 0
M  V30 6 C 4.681329 -4.014474 -1.593292 0
M  V30 7 C 3.579561 -3.183150 -1.354167 0
M  V30 8 C 3.579588 -2.429336 -0.179418 0
M  V30 9 C 2.463612 -1.538578 0.139170 0
M  V30 10 C 1.238259 -1.982137 -0.332182 0
M  V30 11 C 0.100398 -1.226649 -0.095396 0
M  V30 12 C 0.237696 -0.036945 0.616051 0
M  V30 13 O -0.912945 0.733575 0.859633 0
M  V30 14 C -1.663065 0.519931 2.013129 0
M  V30 15 C -1.277092 -0.445742 2.914626 0
M  V30 16 N -1.898790 -0.775411 4.083009 0
M  V30 17 C -3.020455 -0.061680 4.371670 0
M  V30 18 C -3.439682 0.919919 3.485845 0
M  V30 19 S -4.834966 2.009368 3.565876 0
M  V30 20 C -4.490445 2.862547 1.987209 0
M  V30 21 C -5.332383 3.910187 1.493703 0
M  V30 22 N -5.384541 5.221771 1.792346 0
M  V30 23 N -6.339271 5.811473 1.074901 0
M  V30 24 N -6.891307 4.886336 0.325824 0
M  V30 25 N -6.290647 3.709477 0.564385 0
M  V30 26 C -3.375844 2.251407 1.563041 0
M  V30 27 C -2.796122 1.248368 2.294383 0
M  V30 28 C 1.471367 0.397330 1.083411 0
M  V30 29 C 2.602530 -0.360016 0.844391 0
M  V30 30 C 4.658884 -2.524069 0.707704 0
M  V30 31 C 5.721031 -3.364024 0.417157 0
M  V30 32 H 4.688198 -4.601979 -2.502051 0
M  V30 33 H 2.756948 -3.123764 -2.049948 0
M  V30 34 H 1.072783 -2.892362 -0.887327 0
M  V30 35 H -0.899824 -1.515715 -0.438241 0
M  V30 36 H -0.378637 -1.006165 2.667671 0
M  V30 37 H -3.625042 -0.200953 5.255940 0
M  V30 38 H -7.686118 5.055982 -0.356040 0
M  V30 39 H -3.000385 2.622566 0.618670 0
M  V30 40 H 1.574216 1.316987 1.632678 0
M  V30 41 H 3.603031 -0.076181 1.183784 0
M  V30 42 H 4.630049 -1.927537 1.610355 0
M  V30 43 H 6.566990 -3.454573 1.087327 0
M  V30 END ATOM
M  V30 BEGIN BOND
M  V30 1 1 1 2
M  V30 2 1 2 3
M  V30 3 1 2 4
M  V30 4 1 2 5
M  V30 5 2 5 6
M  V30 6 1 6 7
M  V30 7 2 7 8
M  V30 8 1 8 9
M  V30 9 2 9 10
M  V30 10 1 10 11
M  V30 11 2 11 12
M  V30 12 1 12 13
M  V30 13 1 13 14
M  V30 14 2 14 15
M  V30 15 1 15 16
M  V30 16 2 16 17
M  V30 17 1 17 18
M  V30 18 1 18 19
M  V30 19 1 19 20
M  V30 20 1 20 21
M  V30 21 1 21 22
M  V30 22 2 22 23
M  V30 23 1 23 24
M  V30 24 1 24 25
M  V30 25 2 20 26
M  V30 26 1 26 27
M  V30 27 1 12 28
M  V30 28 2 28 29
M  V30 29 1 8 30
M  V30 30 2 30 31
M  V30 31 1 31 5
M  V30 32 1 29 9
M  V30 33 1 27 14
M  V30 34 2 27 18
M  V30 35 2 25 21
M  V30 36 1 6 32
M  V30 37 1 7 33
M  V30 38 1 10 34
M  V30 39 1 11 35
M  V30 40 1 15 36
M  V30 41 1 17 37
M  V30 42 1 24 38
M  V30 43 1 26 39
M  V30 44 1 28 40
M  V30 45 1 29 41
M  V30 46 1 30 42
M  V30 47 1 31 43
M  V30 END BOND
M  V30 END CTAB
M  END
>  <Dataset>  (30) 
ChEMBL_Kinases

>  <Ligand_Instance>  (30) 
nan

>  <PDB_ID>  (30) 
nan

>  <Standardized_SMILES>  (30) 
FC(F)(F)c1ccc(-c2ccc(Oc3cncc4sc(-c5nn[nH]n5)cc34)cc2)cc1

>  <Name>  (30) 
nan

>  <Pocket>  (30) 
nan

>  <ATP_Site>  (30) 
nan

>  <Peripheral>  (30) 
nan

>  <Num_H_Atoms_ProtBoundConf>  (30) 
nan

>  <Num_Resolved_Atoms>  (30) 
nan

>  <Num_Not_Resolved_Atoms>  (30) 
nan

$$$$
CHEMBL490636
     RDKit          3D

  0  0  0  0  0  0  0  0  0  0999 V3000
M  V30 BEGIN CTAB
M  V30 COUNTS 51 55 0 0 0
M  V30 BEGIN ATOM
M  V30 1 C 2.188549 -2.871829 3.308117 0
M  V30 2 O 2.277446 -3.708668 2.218002 0
M  V30 3 C 3.114148 -3.166558 1.220305 0
M  V30 4 C 2.634763 -1.871929 0.715498 0
M  V30 5 C 3.191009 -0.683444 1.205182 0
M  V30 6 C 2.824802 0.597835 0.850337 0
M  V30 7 C 1.798945 0.716102 -0.089578 0
M  V30 8 C 1.218090 -0.434069 -0.602072 0
M  V30 9 C 0.207162 -0.549223 -1.542186 0
M  V30 10 C -0.567486 0.496503 -2.203624 0
M  V30 11 C -1.189466 1.547081 -1.639460 0
M  V30 12 C -1.282054 1.948199 -0.227044 0
M  V30 13 C -1.069857 3.155507 0.407216 0
M  V30 14 O -1.294581 3.025713 1.693110 0
M  V30 15 C -1.648912 1.829500 2.022136 0
M  V30 16 C -1.983885 1.215494 3.211003 0
M  V30 17 C -2.338832 -0.126847 3.269508 0
M  V30 18 C -2.707702 -0.818759 4.546487 0
M  V30 19 O -1.556963 -1.373385 5.154586 0
M  V30 20 C -2.351072 -0.858484 2.082142 0
M  V30 21 C -2.010056 -0.214127 0.915111 0
M  V30 22 C -1.653716 1.117743 0.838611 0
M  V30 23 C -1.806686 2.277375 -2.757109 0
M  V30 24 O -2.483028 3.323768 -2.661833 0
M  V30 25 N -1.525724 1.621757 -3.989680 0
M  V30 26 C -0.738187 0.490310 -3.630882 0
M  V30 27 O -0.312012 -0.317263 -4.494856 0
M  V30 28 C 0.046944 -1.909985 -1.683070 0
M  V30 29 N 0.896772 -2.623717 -0.884737 0
M  V30 30 C 0.992020 -4.065319 -0.799834 0
M  V30 31 C 1.630850 -1.705232 -0.205161 0
M  V30 32 H 1.515758 -3.352342 4.060004 0
M  V30 33 H 3.143192 -2.658894 3.808365 0
M  V30 34 H 1.765317 -1.902710 2.954637 0
M  V30 35 H 4.077129 -2.974075 1.774244 0
M  V30 36 H 3.389052 -3.903334 0.456389 0
M  V30 37 H 3.991805 -0.783645 1.938908 0
M  V30 38 H 3.304129 1.444722 1.274673 0
M  V30 39 H 1.546439 1.712827 -0.345986 0
M  V30 40 H -0.759723 4.053551 -0.143296 0
M  V30 41 H -1.987358 1.748945 4.159852 0
M  V30 42 H -3.456335 -1.608798 4.323301 0
M  V30 43 H -3.120608 -0.096951 5.269822 0
M  V30 44 H -1.328085 -2.230249 4.674715 0
M  V30 45 H -2.631856 -1.901293 2.144777 0
M  V30 46 H -2.065234 -0.854065 0.064118 0
M  V30 47 H -1.834384 1.908254 -4.964110 0
M  V30 48 H -0.674982 -2.352895 -2.356058 0
M  V30 49 H 0.182057 -4.469112 -1.483434 0
M  V30 50 H 0.765201 -4.501998 0.164173 0
M  V30 51 H 1.924909 -4.468694 -1.296657 0
M  V30 END ATOM
M  V30 BEGIN BOND
M  V30 1 1 1 2
M  V30 2 1 2 3
M  V30 3 1 3 4
M  V30 4 2 4 5
M  V30 5 1 5 6
M  V30 6 2 6 7
M  V30 7 1 7 8
M  V30 8 1 8 9
M  V30 9 1 9 10
M  V30 10 2 10 11
M  V30 11 1 11 12
M  V30 12 2 12 13
M  V30 13 1 13 14
M  V30 14 1 14 15
M  V30 15 2 15 16
M  V30 16 1 16 17
M  V30 17 1 17 18
M  V30 18 1 18 19
M  V30 19 2 17 20
M  V30 20 1 20 21
M  V30 21 2 21 22
M  V30 22 1 11 23
M  V30 23 2 23 24
M  V30 24 1 23 25
M  V30 25 1 25 26
M  V30 26 2 26 27
M  V30 27 2 9 28
M  V30 28 1 28 29
M  V30 29 1 29 30
M  V30 30 1 29 31
M  V30 31 1 31 4
M  V30 32 2 31 8
M  V30 33 1 26 10
M  V30 34 1 22 12
M  V30 35 1 22 15
M  V30 36 1 1 32
M  V30 37 1 1 33
M  V30 38 1 1 34
M  V30 39 1 3 35
M  V30 40 1 3 36
M  V30 41 1 5 37
M  V30 42 1 6 38
M  V30 43 1 7 39
M  V30 44 1 13 40
M  V30 45 1 16 41
M  V30 46 1 18 42
M  V30 47 1 18 43
M  V30 48 1 19 44
M  V30 49 1 20 45
M  V30 50 1 21 46
M  V30 51 1 25 47
M  V30 52 1 28 48
M  V30 53 1 30 49
M  V30 54 1 30 50
M  V30 55 1 30 51
M  V30 END BOND
M  V30 END CTAB
M  END
>  <Dataset>  (31) 
ChEMBL_Kinases

>  <Ligand_Instance>  (31) 
nan

>  <PDB_ID>  (31) 
nan

>  <Standardized_SMILES>  (31) 
COCc1cccc2c(C3=C(c4coc5cc(CO)ccc45)C(=O)NC3=O)cn(C)c12

>  <Name>  (31) 
nan

>  <Pocket>  (31) 
nan

>  <ATP_Site>  (31) 
nan

>  <Peripheral>  (31) 
nan

>  <Num_H_Atoms_ProtBoundConf>  (31) 
nan

>  <Num_Resolved_Atoms>  (31) 
nan

>  <Num_Not_Resolved_Atoms>  (31) 
nan

$$$$
CHEMBL489993
     RDKit          3D

  0  0  0  0  0  0  0  0  0  0999 V3000
M  V30 BEGIN CTAB
M  V30 COUNTS 47 50 0 0 0
M  V30 BEGIN ATOM
M  V30 1 C 1.217572 -4.660185 0.644042 0
M  V30 2 C 0.934370 -3.660896 -0.420576 0
M  V30 3 C -0.010284 -3.969333 -1.404761 0
M  V30 4 C -0.273142 -3.042704 -2.392394 0
M  V30 5 C -1.278747 -3.375387 -3.428766 0
M  V30 6 C 0.349992 -1.821516 -2.461538 0
M  V30 7 C 1.282038 -1.502597 -1.500769 0
M  V30 8 C 2.090206 -0.275520 -1.376318 0
M  V30 9 N 2.877788 0.443214 -2.195086 0
M  V30 10 O 3.358992 1.474156 -1.591072 0
M  V30 11 C 2.953764 1.552742 -0.335979 0
M  V30 12 C 3.135304 2.399083 0.738978 0
M  V30 13 N 2.543509 2.177003 1.935431 0
M  V30 14 C 1.743433 1.120638 2.149486 0
M  V30 15 N 1.093616 0.796413 3.344612 0
M  V30 16 C -0.109582 1.207679 4.017629 0 CFG=1
M  V30 17 C 0.039545 2.692813 4.354077 0
M  V30 18 C -1.340925 1.010873 3.250844 0
M  V30 19 C -1.654944 -0.139292 2.560092 0
M  V30 20 C -2.804017 -0.360877 1.824673 0
M  V30 21 C -3.717434 0.681973 1.788512 0
M  V30 22 C -3.467050 1.869532 2.461653 0
M  V30 23 C -2.296693 2.027741 3.179832 0
M  V30 24 C 1.578654 0.291317 1.062496 0
M  V30 25 C 2.134311 0.438669 -0.170566 0
M  V30 26 C 1.549041 -2.421663 -0.512630 0
M  V30 27 H 1.322454 -5.689450 0.241034 0
M  V30 28 H 2.186738 -4.384012 1.154450 0
M  V30 29 H 0.443296 -4.616631 1.449197 0
M  V30 30 H -0.518948 -4.929681 -1.373002 0
M  V30 31 H -2.140486 -2.658309 -3.293917 0
M  V30 32 H -1.707777 -4.393652 -3.239014 0
M  V30 33 H -0.893622 -3.352669 -4.450554 0
M  V30 34 H 0.193858 -1.054467 -3.204693 0
M  V30 35 H 3.778027 3.267055 0.595783 0
M  V30 36 H 1.725187 0.075496 3.754941 0
M  V30 37 H -0.231820 0.677643 4.973577 0
M  V30 38 H -0.740962 2.969636 5.112131 0
M  V30 39 H 1.054858 2.857369 4.806995 0
M  V30 40 H -0.009274 3.276042 3.432560 0
M  V30 41 H -0.965308 -0.971467 2.573376 0
M  V30 42 H -2.969460 -1.297124 1.309830 0
M  V30 43 H -4.638382 0.561249 1.220919 0
M  V30 44 H -4.236677 2.644617 2.384478 0
M  V30 45 H -2.183702 2.983665 3.670909 0
M  V30 46 H 0.928795 -0.577637 1.193004 0
M  V30 47 H 2.263973 -2.285819 0.287690 0
M  V30 END ATOM
M  V30 BEGIN BOND
M  V30 1 1 1 2
M  V30 2 2 2 3
M  V30 3 1 3 4
M  V30 4 1 4 5
M  V30 5 2 4 6
M  V30 6 1 6 7
M  V30 7 1 7 8
M  V30 8 2 8 9
M  V30 9 1 9 10
M  V30 10 1 10 11
M  V30 11 2 11 12
M  V30 12 1 12 13
M  V30 13 2 13 14
M  V30 14 1 14 15
M  V30 15 1 15 16
M  V30 16 1 16 17
M  V30 17 1 16 18
M  V30 18 2 18 19
M  V30 19 1 19 20
M  V30 20 2 20 21
M  V30 21 1 21 22
M  V30 22 2 22 23
M  V30 23 1 14 24
M  V30 24 2 24 25
M  V30 25 2 7 26
M  V30 26 1 26 2
M  V30 27 1 25 8
M  V30 28 1 25 11
M  V30 29 1 23 18
M  V30 30 1 1 27
M  V30 31 1 1 28
M  V30 32 1 1 29
M  V30 33 1 3 30
M  V30 34 1 5 31
M  V30 35 1 5 32
M  V30 36 1 5 33
M  V30 37 1 6 34
M  V30 38 1 12 35
M  V30 39 1 15 36
M  V30 40 1 16 37 CFG=1
M  V30 41 1 17 38
M  V30 42 1 17 39
M  V30 43 1 17 40
M  V30 44 1 19 41
M  V30 45 1 20 42
M  V30 46 1 21 43
M  V30 47 1 22 44
M  V30 48 1 23 45
M  V30 49 1 24 46
M  V30 50 1 26 47
M  V30 END BOND
M  V30 END CTAB
M  END
>  <Dataset>  (32) 
ChEMBL_Kinases

>  <Ligand_Instance>  (32) 
nan

>  <PDB_ID>  (32) 
nan

>  <Standardized_SMILES>  (32) 
Cc1cc(C)cc(-c2noc3cnc(N[C@@H](C)c4ccccc4)cc23)c1

>  <Name>  (32) 
nan

>  <Pocket>  (32) 
nan

>  <ATP_Site>  (32) 
nan

>  <Peripheral>  (32) 
nan

>  <Num_H_Atoms_ProtBoundConf>  (32) 
nan

>  <Num_Resolved_Atoms>  (32) 
nan

>  <Num_Not_Resolved_Atoms>  (32) 
nan

$$$$
CHEMBL391450
     RDKit          3D

  0  0  0  0  0  0  0  0  0  0999 V3000
M  V30 BEGIN CTAB
M  V30 COUNTS 45 49 0 0 0
M  V30 BEGIN ATOM
M  V30 1 O 4.612237 -6.694985 0.704798 0
M  V30 2 C 3.353959 -6.824661 0.149801 0
M  V30 3 C 2.932769 -5.594792 -0.579677 0
M  V30 4 C 3.166354 -5.342988 -1.912298 0
M  V30 5 C 2.747717 -4.181473 -2.527908 0
M  V30 6 C 2.071283 -3.233626 -1.792488 0
M  V30 7 C 1.834703 -3.485486 -0.448847 0
M  V30 8 C 2.248736 -4.645244 0.180696 0
M  V30 9 C 1.091353 -2.345237 0.175520 0
M  V30 10 C 0.907565 -1.382647 -0.938061 0
M  V30 11 C 0.379239 -0.153510 -1.273536 0
M  V30 12 C -0.318021 0.732797 -0.345691 0
M  V30 13 C 0.294416 0.893188 0.904141 0
M  V30 14 C -0.233017 1.700203 1.906230 0
M  V30 15 C -1.418705 2.352852 1.604493 0
M  V30 16 C -1.953992 3.193935 2.670226 0
M  V30 17 C -2.676750 4.327059 2.373695 0
M  V30 18 C -3.207276 5.159695 3.344816 0
M  V30 19 C -3.019123 4.865724 4.686859 0
M  V30 20 O -3.543303 5.688426 5.675606 0
M  V30 21 C -2.294566 3.729846 4.987123 0
M  V30 22 C -1.771292 2.908578 4.009182 0
M  V30 23 C -2.054365 2.221308 0.384084 0
M  V30 24 C -1.499301 1.409434 -0.588193 0
M  V30 25 N 0.639563 0.036775 -2.589805 0
M  V30 26 N 1.301516 -1.024193 -3.060855 0
M  V30 27 C 1.488765 -1.925565 -2.075057 0
M  V30 28 H 4.644859 -5.822354 1.192869 0
M  V30 29 H 2.610903 -7.085808 0.951022 0
M  V30 30 H 3.362952 -7.673849 -0.577422 0
M  V30 31 H 3.702302 -6.103832 -2.475091 0
M  V30 32 H 2.941667 -4.003845 -3.576651 0
M  V30 33 H 2.051533 -4.822965 1.241686 0
M  V30 34 H 0.129965 -2.748455 0.543438 0
M  V30 35 H 1.740182 -1.959542 0.980537 0
M  V30 36 H 1.226053 0.379444 1.138306 0
M  V30 37 H 0.286732 1.781538 2.846679 0
M  V30 38 H -2.830916 4.568120 1.324034 0
M  V30 39 H -3.776732 6.052252 3.102031 0
M  V30 40 H -3.741209 5.359025 6.605482 0
M  V30 41 H -2.109688 3.441325 6.010970 0
M  V30 42 H -1.197531 2.009247 4.227499 0
M  V30 43 H -2.977097 2.743544 0.180401 0
M  V30 44 H -1.938875 1.257524 -1.566994 0
M  V30 45 H 1.623267 -1.129784 -4.053504 0
M  V30 END ATOM
M  V30 BEGIN BOND
M  V30 1 1 1 2
M  V30 2 1 2 3
M  V30 3 2 3 4
M  V30 4 1 4 5
M  V30 5 2 5 6
M  V30 6 1 6 7
M  V30 7 2 7 8
M  V30 8 1 7 9
M  V30 9 1 9 10
M  V30 10 1 10 11
M  V30 11 1 11 12
M  V30 12 2 12 13
M  V30 13 1 13 14
M  V30 14 2 14 15
M  V30 15 1 15 16
M  V30 16 2 16 17
M  V30 17 1 17 18
M  V30 18 2 18 19
M  V30 19 1 19 20
M  V30 20 1 19 21
M  V30 21 2 21 22
M  V30 22 1 15 23
M  V30 23 2 23 24
M  V30 24 2 11 25
M  V30 25 1 25 26
M  V30 26 1 26 27
M  V30 27 1 8 3
M  V30 28 2 27 10
M  V30 29 1 27 6
M  V30 30 1 24 12
M  V30 31 1 22 16
M  V30 32 1 1 28
M  V30 33 1 2 29
M  V30 34 1 2 30
M  V30 35 1 4 31
M  V30 36 1 5 32
M  V30 37 1 8 33
M  V30 38 1 9 34
M  V30 39 1 9 35
M  V30 40 1 13 36
M  V30 41 1 14 37
M  V30 42 1 17 38
M  V30 43 1 18 39
M  V30 44 1 20 40
M  V30 45 1 21 41
M  V30 46 1 22 42
M  V30 47 1 23 43
M  V30 48 1 24 44
M  V30 49 1 26 45
M  V30 END BOND
M  V30 END CTAB
M  END
>  <Dataset>  (33) 
ChEMBL_Kinases

>  <Ligand_Instance>  (33) 
nan

>  <PDB_ID>  (33) 
nan

>  <Standardized_SMILES>  (33) 
OCc1ccc2c(c1)Cc1c(-c3ccc(-c4ccc(O)cc4)cc3)n[nH]c1-2

>  <Name>  (33) 
nan

>  <Pocket>  (33) 
nan

>  <ATP_Site>  (33) 
nan

>  <Peripheral>  (33) 
nan

>  <Num_H_Atoms_ProtBoundConf>  (33) 
nan

>  <Num_Resolved_Atoms>  (33) 
nan

>  <Num_Not_Resolved_Atoms>  (33) 
nan

$$$$
CHEMBL491228
     RDKit          3D

  0  0  0  0  0  0  0  0  0  0999 V3000
M  V30 BEGIN CTAB
M  V30 COUNTS 44 48 0 0 0
M  V30 BEGIN ATOM
M  V30 1 N 2.266563 -3.411787 7.434571 0
M  V30 2 C 2.630886 -3.983260 6.210340 0
M  V30 3 O 3.086902 -5.135541 6.144675 0
M  V30 4 C 2.454653 -3.171766 5.007000 0
M  V30 5 C 2.800019 -3.690290 3.777697 0
M  V30 6 C 2.673692 -3.005133 2.566391 0
M  V30 7 C 2.160972 -1.722805 2.673453 0
M  V30 8 C 1.993963 -0.926908 1.443031 0
M  V30 9 C 0.948034 -0.013642 1.424179 0
M  V30 10 C 0.717481 0.773141 0.315415 0
M  V30 11 C 1.525570 0.664489 -0.796518 0
M  V30 12 O 1.509843 1.321323 -2.012221 0
M  V30 13 C 0.582399 2.271330 -2.401751 0
M  V30 14 C 0.983145 3.549814 -2.713384 0
M  V30 15 N 0.218557 4.600135 -3.111036 0
M  V30 16 C -1.099502 4.348348 -3.210050 0
M  V30 17 C -1.568982 3.086101 -2.912033 0
M  V30 18 S -3.247883 2.429308 -2.945897 0
M  V30 19 C -2.769658 0.743358 -2.405988 0
M  V30 20 C -3.748065 -0.278049 -2.245343 0
M  V30 21 N -4.602262 -0.661034 -3.213482 0
M  V30 22 N -5.388454 -1.623925 -2.775886 0
M  V30 23 N -5.048254 -1.876749 -1.507746 0
M  V30 24 N -4.042206 -1.056966 -1.170067 0
M  V30 25 C -1.442688 0.835864 -2.258425 0
M  V30 26 C -0.764054 2.001077 -2.499349 0
M  V30 27 C 2.575810 -0.253835 -0.775018 0
M  V30 28 C 2.831291 -1.060141 0.330091 0
M  V30 29 C 1.794099 -1.144748 3.887950 0
M  V30 30 C 1.949120 -1.888271 5.048273 0
M  V30 31 H 1.224361 -3.252238 7.475471 0
M  V30 32 H 2.029512 -2.993364 8.340416 0
M  V30 33 H 3.184325 -4.684783 3.809158 0
M  V30 34 H 2.953487 -3.442739 1.628584 0
M  V30 35 H 0.272895 0.128100 2.257202 0
M  V30 36 H -0.053865 1.515703 0.177099 0
M  V30 37 H 2.057770 3.755617 -2.632703 0
M  V30 38 H -1.843109 5.075013 -3.512881 0
M  V30 39 H -5.428972 -2.562217 -0.818488 0
M  V30 40 H -0.968651 -0.081729 -1.936484 0
M  V30 41 H 3.299950 -0.459924 -1.566087 0
M  V30 42 H 3.619575 -1.782043 0.408007 0
M  V30 43 H 1.402700 -0.158314 3.943702 0
M  V30 44 H 1.666916 -1.447343 5.995719 0
M  V30 END ATOM
M  V30 BEGIN BOND
M  V30 1 1 1 2
M  V30 2 2 2 3
M  V30 3 1 2 4
M  V30 4 2 4 5
M  V30 5 1 5 6
M  V30 6 2 6 7
M  V30 7 1 7 8
M  V30 8 2 8 9
M  V30 9 1 9 10
M  V30 10 2 10 11
M  V30 11 1 11 12
M  V30 12 1 12 13
M  V30 13 2 13 14
M  V30 14 1 14 15
M  V30 15 2 15 16
M  V30 16 1 16 17
M  V30 17 1 17 18
M  V30 18 1 18 19
M  V30 19 1 19 20
M  V30 20 1 20 21
M  V30 21 2 21 22
M  V30 22 1 22 23
M  V30 23 1 23 24
M  V30 24 2 19 25
M  V30 25 1 25 26
M  V30 26 1 11 27
M  V30 27 2 27 28
M  V30 28 1 7 29
M  V30 29 2 29 30
M  V30 30 1 30 4
M  V30 31 1 28 8
M  V30 32 1 26 13
M  V30 33 2 26 17
M  V30 34 2 24 20
M  V30 35 1 1 31
M  V30 36 1 1 32
M  V30 37 1 5 33
M  V30 38 1 6 34
M  V30 39 1 9 35
M  V30 40 1 10 36
M  V30 41 1 14 37
M  V30 42 1 16 38
M  V30 43 1 23 39
M  V30 44 1 25 40
M  V30 45 1 27 41
M  V30 46 1 28 42
M  V30 47 1 29 43
M  V30 48 1 30 44
M  V30 END BOND
M  V30 END CTAB
M  END
>  <Dataset>  (34) 
ChEMBL_Kinases

>  <Ligand_Instance>  (34) 
nan

>  <PDB_ID>  (34) 
nan

>  <Standardized_SMILES>  (34) 
NC(=O)c1ccc(-c2ccc(Oc3cncc4sc(-c5nn[nH]n5)cc34)cc2)cc1

>  <Name>  (34) 
nan

>  <Pocket>  (34) 
nan

>  <ATP_Site>  (34) 
nan

>  <Peripheral>  (34) 
nan

>  <Num_H_Atoms_ProtBoundConf>  (34) 
nan

>  <Num_Resolved_Atoms>  (34) 
nan

>  <Num_Not_Resolved_Atoms>  (34) 
nan

$$$$
CHEMBL491263
     RDKit          3D

  0  0  0  0  0  0  0  0  0  0999 V3000
M  V30 BEGIN CTAB
M  V30 COUNTS 58 65 0 0 0
M  V30 BEGIN ATOM
M  V30 1 C 1.157893 -4.167521 2.951245 0
M  V30 2 O 0.493112 -3.186315 3.684592 0
M  V30 3 C 0.438384 -2.043610 2.897332 0 CFG=1
M  V30 4 C -0.977926 -1.669058 2.533740 0 CFG=2
M  V30 5 O -1.457324 -2.683269 1.665429 0
M  V30 6 C -0.978106 -0.322106 1.848969 0 CFG=1
M  V30 7 C 0.271161 0.398396 1.738057 0 CFG=1
M  V30 8 O 1.361273 0.008356 2.500563 0
M  V30 9 C 1.005905 -0.814727 3.557650 0 CFG=2
M  V30 10 C 2.134595 -1.047897 4.484789 0
M  V30 11 N 3.284705 -1.665651 3.899515 0
M  V30 12 N 0.824022 0.627395 0.421103 0
M  V30 13 C 1.921209 1.134119 -0.168244 0
M  V30 14 C 3.070025 1.638081 0.448972 0
M  V30 15 C 4.108646 2.122553 -0.303865 0
M  V30 16 C 4.014251 2.110599 -1.693407 0
M  V30 17 C 2.871848 1.608466 -2.263274 0
M  V30 18 C 1.827634 1.122210 -1.543209 0
M  V30 19 C 0.617518 0.583212 -1.858390 0
M  V30 20 C -0.096624 0.295536 -2.985487 0
M  V30 21 C -1.348332 -0.265937 -2.886817 0
M  V30 22 C -1.883967 -0.548604 -1.664321 0
M  V30 23 C -3.030633 -1.076877 -1.153579 0
M  V30 24 C -4.164757 -1.560312 -1.691498 0
M  V30 25 C -5.216230 -2.048537 -0.956409 0
M  V30 26 C -5.096288 -2.040654 0.438220 0
M  V30 27 C -3.944022 -1.550500 1.016997 0
M  V30 28 C -2.914285 -1.070243 0.219149 0
M  V30 29 N -1.732857 -0.558354 0.621622 0
M  V30 30 C -1.152503 -0.257012 -0.538635 0
M  V30 31 C 0.074623 0.310170 -0.637294 0
M  V30 32 C -1.901991 -0.470604 -4.204793 0
M  V30 33 O -2.968496 -0.931988 -4.646997 0
M  V30 34 N -0.891811 0.008260 -5.093331 0
M  V30 35 C 0.239604 0.489577 -4.367585 0
M  V30 36 O 1.207442 0.940639 -4.977966 0
M  V30 37 H 0.601493 -4.384799 1.992095 0
M  V30 38 H 1.240790 -5.125665 3.526653 0
M  V30 39 H 2.167232 -3.876777 2.616546 0
M  V30 40 H 0.948632 -2.226038 1.905697 0
M  V30 41 H -1.549407 -1.665941 3.468416 0
M  V30 42 H -1.950428 -3.319426 2.241176 0
M  V30 43 H -1.721903 0.282933 2.465247 0
M  V30 44 H 0.088350 1.470328 2.112118 0
M  V30 45 H 0.197464 -0.264624 4.114459 0
M  V30 46 H 1.730965 -1.634814 5.354102 0
M  V30 47 H 2.470856 -0.092248 4.934072 0
M  V30 48 H 3.843273 -0.900676 3.420360 0
M  V30 49 H 3.904202 -1.997306 4.697816 0
M  V30 50 H 3.150392 1.650884 1.513460 0
M  V30 51 H 5.027463 2.527201 0.118379 0
M  V30 52 H 4.811598 2.483470 -2.314737 0
M  V30 53 H 2.815196 1.605585 -3.317516 0
M  V30 54 H -4.276965 -1.575726 -2.741473 0
M  V30 55 H -6.106199 -2.425988 -1.440455 0
M  V30 56 H -5.945765 -2.434262 1.009216 0
M  V30 57 H -3.885293 -1.552460 2.076253 0
M  V30 58 H -0.985038 0.000707 -6.157460 0
M  V30 END ATOM
M  V30 BEGIN BOND
M  V30 1 1 1 2
M  V30 2 1 2 3
M  V30 3 1 3 4
M  V30 4 1 4 5
M  V30 5 1 4 6
M  V30 6 1 6 7
M  V30 7 1 7 8
M  V30 8 1 8 9
M  V30 9 1 9 10
M  V30 10 1 10 11
M  V30 11 1 7 12
M  V30 12 1 12 13
M  V30 13 2 13 14
M  V30 14 1 14 15
M  V30 15 2 15 16
M  V30 16 1 16 17
M  V30 17 2 17 18
M  V30 18 1 18 19
M  V30 19 2 19 20
M  V30 20 1 20 21
M  V30 21 2 21 22
M  V30 22 1 22 23
M  V30 23 2 23 24
M  V30 24 1 24 25
M  V30 25 2 25 26
M  V30 26 1 26 27
M  V30 27 2 27 28
M  V30 28 1 28 29
M  V30 29 1 29 30
M  V30 30 2 30 31
M  V30 31 1 21 32
M  V30 32 2 32 33
M  V30 33 1 32 34
M  V30 34 1 34 35
M  V30 35 2 35 36
M  V30 36 1 9 3
M  V30 37 1 31 12
M  V30 38 1 29 6
M  V30 39 1 18 13
M  V30 40 1 31 19
M  V30 41 1 35 20
M  V30 42 1 30 22
M  V30 43 1 28 23
M  V30 44 1 1 37
M  V30 45 1 1 38
M  V30 46 1 1 39
M  V30 47 1 3 40 CFG=3
M  V30 48 1 4 41 CFG=1
M  V30 49 1 5 42
M  V30 50 1 6 43 CFG=1
M  V30 51 1 7 44 CFG=1
M  V30 52 1 9 45 CFG=1
M  V30 53 1 10 46
M  V30 54 1 10 47
M  V30 55 1 11 48
M  V30 56 1 11 49
M  V30 57 1 14 50
M  V30 58 1 15 51
M  V30 59 1 16 52
M  V30 60 1 17 53
M  V30 61 1 24 54
M  V30 62 1 25 55
M  V30 63 1 26 56
M  V30 64 1 27 57
M  V30 65 1 34 58
M  V30 END BOND
M  V30 END CTAB
M  END
>  <Dataset>  (35) 
ChEMBL_Kinases

>  <Ligand_Instance>  (35) 
nan

>  <PDB_ID>  (35) 
nan

>  <Standardized_SMILES>  (35) 
CO[C@H]1[C@H](O)[C@H]2[C@@H](O[C@@H]1CN)n1c3ccccc3c3c4c(c5c6ccccc6n2c5c31)C(=O)NC4=O

>  <Name>  (35) 
nan

>  <Pocket>  (35) 
nan

>  <ATP_Site>  (35) 
nan

>  <Peripheral>  (35) 
nan

>  <Num_H_Atoms_ProtBoundConf>  (35) 
nan

>  <Num_Resolved_Atoms>  (35) 
nan

>  <Num_Not_Resolved_Atoms>  (35) 
nan

$$$$
CHEMBL598237
     RDKit          3D

  0  0  0  0  0  0  0  0  0  0999 V3000
M  V30 BEGIN CTAB
M  V30 COUNTS 39 41 0 0 0
M  V30 BEGIN ATOM
M  V30 1 C -0.423890 -6.511415 5.100927 0
M  V30 2 O -0.576707 -5.104578 5.119950 0
M  V30 3 C -0.132449 -4.374432 4.025656 0
M  V30 4 C 0.461255 -4.860848 2.878438 0
M  V30 5 C 0.848456 -3.993895 1.874985 0
M  V30 6 C 0.640727 -2.623513 2.017671 0
M  V30 7 N 1.039362 -1.726289 0.983583 0
M  V30 8 C 0.470610 -0.512536 0.802985 0
M  V30 9 C 1.079054 0.120110 -0.286110 0
M  V30 10 C 0.673434 1.466371 -0.734070 0
M  V30 11 C -0.706289 1.671334 -0.810927 0
M  V30 12 C -1.247692 2.875452 -1.212772 0
M  V30 13 C -0.360997 3.882012 -1.539891 0
M  V30 14 C -0.779322 5.206018 -1.980592 0
M  V30 15 N -2.184516 5.438338 -2.066687 0
M  V30 16 O -0.095732 6.208696 -2.307753 0
M  V30 17 C 1.020906 3.711537 -1.474427 0
M  V30 18 C 1.545334 2.492007 -1.067596 0
M  V30 19 C 2.025400 -0.782297 -0.727430 0
M  V30 20 N 2.849994 -0.467413 -1.843195 0
M  V30 21 N 1.973319 -1.879839 0.058627 0
M  V30 22 C 0.045198 -2.145000 3.170442 0
M  V30 23 C -0.354910 -3.003081 4.199202 0
M  V30 24 H -0.720093 -6.871747 4.090032 0
M  V30 25 H -1.102754 -7.018855 5.813050 0
M  V30 26 H 0.638244 -6.821829 5.243490 0
M  V30 27 H 0.587463 -5.925587 2.841790 0
M  V30 28 H 1.310540 -4.407258 0.989594 0
M  V30 29 H -0.336536 -0.100226 1.416684 0
M  V30 30 H -1.404183 0.893632 -0.558265 0
M  V30 31 H -2.308774 3.065792 -1.282699 0
M  V30 32 H -2.703509 5.234488 -1.163676 0
M  V30 33 H -2.911564 5.756759 -2.750952 0
M  V30 34 H 1.720620 4.482811 -1.724949 0
M  V30 35 H 2.593775 2.249504 -0.980498 0
M  V30 36 H 2.461254 -0.298208 -2.804575 0
M  V30 37 H 3.889353 -0.353053 -1.926602 0
M  V30 38 H -0.124562 -1.065172 3.295690 0
M  V30 39 H -0.812851 -2.548594 5.066982 0
M  V30 END ATOM
M  V30 BEGIN BOND
M  V30 1 1 1 2
M  V30 2 1 2 3
M  V30 3 2 3 4
M  V30 4 1 4 5
M  V30 5 2 5 6
M  V30 6 1 6 7
M  V30 7 1 7 8
M  V30 8 2 8 9
M  V30 9 1 9 10
M  V30 10 2 10 11
M  V30 11 1 11 12
M  V30 12 2 12 13
M  V30 13 1 13 14
M  V30 14 1 14 15
M  V30 15 2 14 16
M  V30 16 1 13 17
M  V30 17 2 17 18
M  V30 18 1 9 19
M  V30 19 1 19 20
M  V30 20 2 19 21
M  V30 21 1 6 22
M  V30 22 2 22 23
M  V30 23 1 23 3
M  V30 24 1 21 7
M  V30 25 1 18 10
M  V30 26 1 1 24
M  V30 27 1 1 25
M  V30 28 1 1 26
M  V30 29 1 4 27
M  V30 30 1 5 28
M  V30 31 1 8 29
M  V30 32 1 11 30
M  V30 33 1 12 31
M  V30 34 1 15 32
M  V30 35 1 15 33
M  V30 36 1 17 34
M  V30 37 1 18 35
M  V30 38 1 20 36
M  V30 39 1 20 37
M  V30 40 1 22 38
M  V30 41 1 23 39
M  V30 END BOND
M  V30 END CTAB
M  END
>  <Dataset>  (36) 
ChEMBL_Kinases

>  <Ligand_Instance>  (36) 
nan

>  <PDB_ID>  (36) 
nan

>  <Standardized_SMILES>  (36) 
COc1ccc(-n2cc(-c3ccc(C(N)=O)cc3)c(N)n2)cc1

>  <Name>  (36) 
nan

>  <Pocket>  (36) 
nan

>  <ATP_Site>  (36) 
nan

>  <Peripheral>  (36) 
nan

>  <Num_H_Atoms_ProtBoundConf>  (36) 
nan

>  <Num_Resolved_Atoms>  (36) 
nan

>  <Num_Not_Resolved_Atoms>  (36) 
nan

$$$$
CHEMBL597839
     RDKit          3D

  0  0  0  0  0  0  0  0  0  0999 V3000
M  V30 BEGIN CTAB
M  V30 COUNTS 53 58 0 0 0
M  V30 BEGIN ATOM
M  V30 1 N -1.519960 -3.899810 3.747009 0
M  V30 2 C -0.631907 -3.236346 2.880858 0
M  V30 3 N 0.682221 -2.956214 3.037456 0
M  V30 4 N 1.127208 -2.314731 1.969674 0
M  V30 5 C 2.433677 -1.803285 1.647667 0
M  V30 6 C 3.601679 -2.489865 1.531469 0
M  V30 7 C 4.752075 -1.795409 1.211174 0
M  V30 8 C 4.735100 -0.432652 1.009679 0
M  V30 9 C 3.561102 0.284619 1.122408 0
M  V30 10 C 3.513902 1.745289 0.911977 0
M  V30 11 C 4.333253 2.416092 0.036695 0
M  V30 12 C 4.204938 3.787014 -0.082635 0
M  V30 13 C 3.269474 4.493214 0.660973 0
M  V30 14 C 2.965885 5.837744 0.708563 0
M  V30 15 C 1.949108 5.976840 1.626130 0
M  V30 16 N 1.657672 4.768624 2.105925 0
M  V30 17 C 2.447027 3.816265 1.540293 0
M  V30 18 C 2.572456 2.434663 1.664152 0
M  V30 19 C 2.400029 -0.419334 1.446140 0
M  V30 20 C 0.095626 -2.166623 1.092080 0
M  V30 21 C -1.049872 -2.748684 1.648417 0
M  V30 22 C -2.343747 -2.763218 0.958605 0
M  V30 23 C -3.489398 -2.440954 1.663308 0
M  V30 24 C -4.701070 -2.458924 0.999626 0
M  V30 25 C -4.776697 -2.794073 -0.353620 0
M  V30 26 C -3.621136 -3.115487 -1.049951 0
M  V30 27 C -2.379722 -3.104409 -0.398685 0
M  V30 28 C -3.543653 -3.489659 -2.481701 0
M  V30 29 C -4.800005 -3.237085 -3.253620 0
M  V30 30 N -5.985445 -3.178717 -2.455067 0
M  V30 31 C -6.053001 -2.816630 -1.066581 0
M  V30 32 O -7.124252 -2.531091 -0.469811 0
M  V30 33 H -1.788495 -4.887843 3.675034 0
M  V30 34 H -1.923317 -3.305743 4.520046 0
M  V30 35 H 3.521788 -3.541181 1.704301 0
M  V30 36 H 5.672019 -2.381166 1.126831 0
M  V30 37 H 5.658173 0.072013 0.760410 0
M  V30 38 H 5.057157 1.848251 -0.535225 0
M  V30 39 H 4.868459 4.285139 -0.783486 0
M  V30 40 H 3.408418 6.654881 0.156625 0
M  V30 41 H 1.438687 6.898340 1.939134 0
M  V30 42 H 0.912304 4.567539 2.831072 0
M  V30 43 H 1.879339 2.024366 2.377396 0
M  V30 44 H 1.497334 0.206466 1.521710 0
M  V30 45 H 0.129163 -1.681547 0.116318 0
M  V30 46 H -3.505068 -2.176652 2.693489 0
M  V30 47 H -5.669686 -2.223594 1.449533 0
M  V30 48 H -1.434997 -3.344410 -0.878519 0
M  V30 49 H -3.280532 -4.573604 -2.490401 0
M  V30 50 H -2.651691 -2.963953 -2.930515 0
M  V30 51 H -4.641901 -2.348133 -3.896144 0
M  V30 52 H -4.930438 -4.087454 -3.983104 0
M  V30 53 H -6.913220 -3.422860 -2.915510 0
M  V30 END ATOM
M  V30 BEGIN BOND
M  V30 1 1 1 2
M  V30 2 2 2 3
M  V30 3 1 3 4
M  V30 4 1 4 5
M  V30 5 2 5 6
M  V30 6 1 6 7
M  V30 7 2 7 8
M  V30 8 1 8 9
M  V30 9 1 9 10
M  V30 10 2 10 11
M  V30 11 1 11 12
M  V30 12 2 12 13
M  V30 13 1 13 14
M  V30 14 2 14 15
M  V30 15 1 15 16
M  V30 16 1 16 17
M  V30 17 2 17 18
M  V30 18 2 9 19
M  V30 19 1 4 20
M  V30 20 2 20 21
M  V30 21 1 21 22
M  V30 22 2 22 23
M  V30 23 1 23 24
M  V30 24 2 24 25
M  V30 25 1 25 26
M  V30 26 2 26 27
M  V30 27 1 26 28
M  V30 28 1 28 29
M  V30 29 1 29 30
M  V30 30 1 30 31
M  V30 31 2 31 32
M  V30 32 1 21 2
M  V30 33 1 27 22
M  V30 34 1 19 5
M  V30 35 1 31 25
M  V30 36 1 18 10
M  V30 37 1 17 13
M  V30 38 1 1 33
M  V30 39 1 1 34
M  V30 40 1 6 35
M  V30 41 1 7 36
M  V30 42 1 8 37
M  V30 43 1 11 38
M  V30 44 1 12 39
M  V30 45 1 14 40
M  V30 46 1 15 41
M  V30 47 1 16 42
M  V30 48 1 18 43
M  V30 49 1 19 44
M  V30 50 1 20 45
M  V30 51 1 23 46
M  V30 52 1 24 47
M  V30 53 1 27 48
M  V30 54 1 28 49
M  V30 55 1 28 50
M  V30 56 1 29 51
M  V30 57 1 29 52
M  V30 58 1 30 53
M  V30 END BOND
M  V30 END CTAB
M  END
>  <Dataset>  (37) 
ChEMBL_Kinases

>  <Ligand_Instance>  (37) 
nan

>  <PDB_ID>  (37) 
nan

>  <Standardized_SMILES>  (37) 
Nc1nn(-c2cccc(-c3ccc4cc[nH]c4c3)c2)cc1-c1ccc2c(c1)CCNC2=O

>  <Name>  (37) 
nan

>  <Pocket>  (37) 
nan

>  <ATP_Site>  (37) 
nan

>  <Peripheral>  (37) 
nan

>  <Num_H_Atoms_ProtBoundConf>  (37) 
nan

>  <Num_Resolved_Atoms>  (37) 
nan

>  <Num_Not_Resolved_Atoms>  (37) 
nan

$$$$
CHEMBL3883813
     RDKit          3D

  0  0  0  0  0  0  0  0  0  0999 V3000
M  V30 BEGIN CTAB
M  V30 COUNTS 28 30 0 0 0
M  V30 BEGIN ATOM
M  V30 1 C -2.150975 -3.843317 3.906130 0
M  V30 2 O -1.718041 -2.583994 4.435014 0
M  V30 3 C -1.054714 -1.659694 3.654539 0
M  V30 4 C -0.664172 -0.465278 4.224068 0
M  V30 5 C 0.002294 0.436627 3.397538 0
M  V30 6 C 0.242993 0.110966 2.068145 0
M  V30 7 C 0.864616 0.777647 1.021014 0
M  V30 8 C 0.803652 -0.048714 -0.080601 0
M  V30 9 C 1.343687 0.272749 -1.398133 0
M  V30 10 C 1.234867 -0.619801 -2.442618 0
M  V30 11 C 1.766973 -0.265460 -3.681311 0
M  V30 12 N 2.376558 0.902350 -3.894677 0
M  V30 13 C 2.485110 1.775869 -2.879394 0
M  V30 14 C 1.975118 1.474024 -1.632414 0
M  V30 15 N 0.174594 -1.195609 0.231694 0
M  V30 16 C -0.174550 -1.113223 1.542813 0
M  V30 17 N -0.817504 -1.969360 2.362260 0
M  V30 18 H -1.276421 -4.407874 3.507499 0
M  V30 19 H -2.612308 -4.431296 4.699012 0
M  V30 20 H -2.868247 -3.719635 3.067882 0
M  V30 21 H -0.841012 -0.194176 5.251157 0
M  V30 22 H 0.332555 1.390289 3.789913 0
M  V30 23 H 1.301740 1.763136 1.102357 0
M  V30 24 H 0.754326 -1.578990 -2.335506 0
M  V30 25 H 1.671206 -0.989311 -4.502982 0
M  V30 26 H 2.983801 2.708789 -3.089465 0
M  V30 27 H 2.082052 2.209108 -0.830740 0
M  V30 28 H -0.012592 -1.988810 -0.390585 0
M  V30 END ATOM
M  V30 BEGIN BOND
M  V30 1 1 1 2
M  V30 2 1 2 3
M  V30 3 2 3 4
M  V30 4 1 4 5
M  V30 5 2 5 6
M  V30 6 1 6 7
M  V30 7 2 7 8
M  V30 8 1 8 9
M  V30 9 2 9 10
M  V30 10 1 10 11
M  V30 11 2 11 12
M  V30 12 1 12 13
M  V30 13 2 13 14
M  V30 14 1 8 15
M  V30 15 1 15 16
M  V30 16 2 16 17
M  V30 17 1 17 3
M  V30 18 1 16 6
M  V30 19 1 14 9
M  V30 20 1 1 18
M  V30 21 1 1 19
M  V30 22 1 1 20
M  V30 23 1 4 21
M  V30 24 1 5 22
M  V30 25 1 7 23
M  V30 26 1 10 24
M  V30 27 1 11 25
M  V30 28 1 13 26
M  V30 29 1 14 27
M  V30 30 1 15 28
M  V30 END BOND
M  V30 END CTAB
M  END
>  <Dataset>  (38) 
ChEMBL_Kinases

>  <Ligand_Instance>  (38) 
nan

>  <PDB_ID>  (38) 
nan

>  <Standardized_SMILES>  (38) 
COc1ccc2cc(-c3ccncc3)[nH]c2n1

>  <Name>  (38) 
nan

>  <Pocket>  (38) 
nan

>  <ATP_Site>  (38) 
nan

>  <Peripheral>  (38) 
nan

>  <Num_H_Atoms_ProtBoundConf>  (38) 
nan

>  <Num_Resolved_Atoms>  (38) 
nan

>  <Num_Not_Resolved_Atoms>  (38) 
nan

$$$$
CHEMBL3914503
     RDKit          3D

  0  0  0  0  0  0  0  0  0  0999 V3000
M  V30 BEGIN CTAB
M  V30 COUNTS 43 47 0 0 0
M  V30 BEGIN ATOM
M  V30 1 C 5.061484 -2.493043 2.694764 0
M  V30 2 O 4.229124 -1.725476 1.880289 0
M  V30 3 C 4.656989 -0.695996 1.051149 0
M  V30 4 C 5.999692 -0.361253 0.986717 0
M  V30 5 C 6.437192 0.664506 0.162480 0
M  V30 6 O 7.781983 1.030138 0.071339 0
M  V30 7 C 5.530485 1.375594 -0.615171 0
M  V30 8 C 4.171758 1.051336 -0.562657 0
M  V30 9 C 3.757369 0.024868 0.266141 0
M  V30 10 C 2.348526 -0.357030 0.360637 0
M  V30 11 C 1.373795 0.616130 0.475752 0
M  V30 12 C 0.050418 0.243961 0.563982 0
M  V30 13 C -0.382855 -1.060998 0.545316 0
M  V30 14 C -1.638541 -1.612741 0.621045 0
M  V30 15 C -2.954657 -1.024873 0.747298 0
M  V30 16 N -4.059376 -1.796386 0.802418 0
M  V30 17 C -5.181129 -1.083654 0.918531 0
M  V30 18 C -6.515337 -1.445346 1.008018 0
M  V30 19 C -7.423637 -0.410973 1.120414 0
M  V30 20 C -7.052479 0.926298 1.145230 0
M  V30 21 C -5.710568 1.269698 1.054408 0
M  V30 22 C -4.804267 0.238114 0.942281 0
M  V30 23 N -3.476736 0.198725 0.837189 0
M  V30 24 N -1.360014 -2.939119 0.546018 0
M  V30 25 N -0.077675 -3.165756 0.436924 0
M  V30 26 C 0.612495 -2.010096 0.429560 0
M  V30 27 C 1.950410 -1.679285 0.338536 0
M  V30 28 H 5.919167 -2.958301 2.204876 0
M  V30 29 H 5.349667 -1.870513 3.574596 0
M  V30 30 H 4.424743 -3.334664 3.084178 0
M  V30 31 H 6.748803 -0.899902 1.586413 0
M  V30 32 H 8.297318 1.112039 0.950797 0
M  V30 33 H 5.771858 2.181385 -1.280100 0
M  V30 34 H 3.413122 1.553661 -1.132139 0
M  V30 35 H 1.701016 1.648651 0.491735 0
M  V30 36 H -0.651866 1.044078 0.650896 0
M  V30 37 H -6.790888 -2.473620 0.988166 0
M  V30 38 H -8.494321 -0.646981 1.194397 0
M  V30 39 H -7.754440 1.741353 1.232719 0
M  V30 40 H -5.346196 2.285333 1.066823 0
M  V30 41 H -2.905730 1.063645 0.827436 0
M  V30 42 H 0.310061 -4.130975 0.367898 0
M  V30 43 H 2.658201 -2.471911 0.251493 0
M  V30 END ATOM
M  V30 BEGIN BOND
M  V30 1 1 1 2
M  V30 2 1 2 3
M  V30 3 2 3 4
M  V30 4 1 4 5
M  V30 5 1 5 6
M  V30 6 2 5 7
M  V30 7 1 7 8
M  V30 8 2 8 9
M  V30 9 1 9 10
M  V30 10 2 10 11
M  V30 11 1 11 12
M  V30 12 2 12 13
M  V30 13 1 13 14
M  V30 14 1 14 15
M  V30 15 2 15 16
M  V30 16 1 16 17
M  V30 17 2 17 18
M  V30 18 1 18 19
M  V30 19 2 19 20
M  V30 20 1 20 21
M  V30 21 2 21 22
M  V30 22 1 22 23
M  V30 23 2 14 24
M  V30 24 1 24 25
M  V30 25 1 25 26
M  V30 26 2 26 27
M  V30 27 1 9 3
M  V30 28 1 27 10
M  V30 29 1 26 13
M  V30 30 1 23 15
M  V30 31 1 22 17
M  V30 32 1 1 28
M  V30 33 1 1 29
M  V30 34 1 1 30
M  V30 35 1 4 31
M  V30 36 1 6 32
M  V30 37 1 7 33
M  V30 38 1 8 34
M  V30 39 1 11 35
M  V30 40 1 12 36
M  V30 41 1 18 37
M  V30 42 1 19 38
M  V30 43 1 20 39
M  V30 44 1 21 40
M  V30 45 1 23 41
M  V30 46 1 25 42
M  V30 47 1 27 43
M  V30 END BOND
M  V30 END CTAB
M  END
>  <Dataset>  (39) 
ChEMBL_Kinases

>  <Ligand_Instance>  (39) 
nan

>  <PDB_ID>  (39) 
nan

>  <Standardized_SMILES>  (39) 
COc1cc(O)ccc1-c1ccc2c(-c3nc4ccccc4[nH]3)n[nH]c2c1

>  <Name>  (39) 
nan

>  <Pocket>  (39) 
nan

>  <ATP_Site>  (39) 
nan

>  <Peripheral>  (39) 
nan

>  <Num_H_Atoms_ProtBoundConf>  (39) 
nan

>  <Num_Resolved_Atoms>  (39) 
nan

>  <Num_Not_Resolved_Atoms>  (39) 
nan

$$$$
CHEMBL4876669
     RDKit          3D

  0  0  0  0  0  0  0  0  0  0999 V3000
M  V30 BEGIN CTAB
M  V30 COUNTS 34 37 0 0 0
M  V30 BEGIN ATOM
M  V30 1 C 1.144114 -1.432470 4.206102 0
M  V30 2 C 1.952918 -2.409943 4.769383 0
M  V30 3 N 2.609616 -3.257174 3.945433 0
M  V30 4 N 2.524402 -3.206305 2.639914 0
M  V30 5 N 3.088286 -3.944563 1.675230 0
M  V30 6 C 2.677241 -3.485508 0.487493 0
M  V30 7 C 1.820936 -2.418491 0.659336 0
M  V30 8 C 1.157515 -1.640944 -0.382097 0
M  V30 9 C 1.375016 -1.965019 -1.694767 0
M  V30 10 C 0.744892 -1.227294 -2.703150 0
M  V30 11 N -0.074220 -0.198263 -2.338587 0
M  V30 12 C -0.282045 0.113001 -1.045899 0
M  V30 13 N -1.132679 1.183136 -0.631806 0
M  V30 14 C -1.447472 1.629198 0.719166 0
M  V30 15 C -2.969936 1.696233 0.593078 0
M  V30 16 C -3.276402 1.826311 -0.884655 0
M  V30 17 C -1.902984 2.101792 -1.463804 0
M  V30 18 N 0.326030 -0.599651 -0.090521 0
M  V30 19 C 1.745902 -2.268391 2.027471 0
M  V30 20 C 1.063595 -1.390395 2.829183 0
M  V30 21 H 0.614066 -0.749323 4.855011 0
M  V30 22 H 2.071877 -2.512589 5.835777 0
M  V30 23 H 2.958927 -3.875479 -0.500413 0
M  V30 24 H 2.011468 -2.766311 -2.019319 0
M  V30 25 H 0.867790 -1.423657 -3.761829 0
M  V30 26 H -1.103013 2.667085 0.897147 0
M  V30 27 H -1.152111 0.920131 1.489502 0
M  V30 28 H -3.387243 0.725552 0.965965 0
M  V30 29 H -3.411201 2.526579 1.161162 0
M  V30 30 H -3.627385 0.845580 -1.281342 0
M  V30 31 H -3.990692 2.642493 -1.095584 0
M  V30 32 H -1.644370 3.152775 -1.233275 0
M  V30 33 H -1.801436 1.845463 -2.526471 0
M  V30 34 H 0.446990 -0.647044 2.355408 0
M  V30 END ATOM
M  V30 BEGIN BOND
M  V30 1 1 1 2
M  V30 2 2 2 3
M  V30 3 1 3 4
M  V30 4 1 4 5
M  V30 5 2 5 6
M  V30 6 1 6 7
M  V30 7 1 7 8
M  V30 8 2 8 9
M  V30 9 1 9 10
M  V30 10 2 10 11
M  V30 11 1 11 12
M  V30 12 1 12 13
M  V30 13 1 13 14
M  V30 14 1 14 15
M  V30 15 1 15 16
M  V30 16 1 16 17
M  V30 17 2 12 18
M  V30 18 2 7 19
M  V30 19 1 19 20
M  V30 20 2 20 1
M  V30 21 1 19 4
M  V30 22 1 18 8
M  V30 23 1 17 13
M  V30 24 1 1 21
M  V30 25 1 2 22
M  V30 26 1 6 23
M  V30 27 1 9 24
M  V30 28 1 10 25
M  V30 29 1 14 26
M  V30 30 1 14 27
M  V30 31 1 15 28
M  V30 32 1 15 29
M  V30 33 1 16 30
M  V30 34 1 16 31
M  V30 35 1 17 32
M  V30 36 1 17 33
M  V30 37 1 20 34
M  V30 END BOND
M  V30 END CTAB
M  END
>  <Dataset>  (40) 
ChEMBL_Kinases

>  <Ligand_Instance>  (40) 
nan

>  <PDB_ID>  (40) 
nan

>  <Standardized_SMILES>  (40) 
c1cnn2ncc(-c3ccnc(N4CCCC4)n3)c2c1

>  <Name>  (40) 
nan

>  <Pocket>  (40) 
nan

>  <ATP_Site>  (40) 
nan

>  <Peripheral>  (40) 
nan

>  <Num_H_Atoms_ProtBoundConf>  (40) 
nan

>  <Num_Resolved_Atoms>  (40) 
nan

>  <Num_Not_Resolved_Atoms>  (40) 
nan

$$$$
CHEMBL491064
     RDKit          3D

  0  0  0  0  0  0  0  0  0  0999 V3000
M  V30 BEGIN CTAB
M  V30 COUNTS 47 52 0 0 0
M  V30 BEGIN ATOM
M  V30 1 C -2.720119 1.005441 2.584408 0
M  V30 2 N -1.553071 0.180892 2.237232 0
M  V30 3 C -0.256038 0.385149 2.524981 0
M  V30 4 C 0.457183 -0.667072 1.982770 0
M  V30 5 C 1.901499 -0.669274 2.157735 0
M  V30 6 C 2.717821 0.383780 2.001269 0
M  V30 7 C 2.495330 1.775744 1.632980 0
M  V30 8 C 2.996419 2.880928 2.283109 0
M  V30 9 O 2.591022 3.972138 1.640816 0
M  V30 10 C 1.854917 3.630708 0.610124 0
M  V30 11 C 1.189333 4.318968 -0.382928 0
M  V30 12 C 0.462963 3.708740 -1.390010 0
M  V30 13 C 0.385952 2.335819 -1.423131 0
M  V30 14 C 1.039687 1.644676 -0.445113 0
M  V30 15 C 1.756622 2.260293 0.549758 0
M  V30 16 C 4.084495 -0.063194 2.280438 0
M  V30 17 O 5.176806 0.603265 2.252254 0
M  V30 18 N 4.106036 -1.442083 2.621182 0
M  V30 19 C 2.724899 -1.821856 2.542947 0
M  V30 20 O 2.366735 -3.008202 2.789960 0
M  V30 21 C -0.469052 -1.480314 1.375182 0
M  V30 22 C -0.220234 -2.649070 0.694309 0
M  V30 23 C -1.296047 -3.313005 0.150713 0
M  V30 24 C -1.152078 -4.594441 -0.626587 0
M  V30 25 C -2.258997 -5.566582 -0.662230 0
M  V30 26 C -2.051178 -4.681208 -1.825249 0
M  V30 27 C -2.609158 -2.846586 0.265919 0
M  V30 28 C -2.759364 -1.670776 0.962994 0
M  V30 29 C -1.750772 -0.937862 1.538844 0
M  V30 30 H -2.393146 1.817032 3.271953 0
M  V30 31 H -3.153068 1.473444 1.686820 0
M  V30 32 H -3.489968 0.374312 3.072691 0
M  V30 33 H 0.017064 1.272887 3.093174 0
M  V30 34 H 3.603659 2.971147 3.144899 0
M  V30 35 H 1.253649 5.403708 -0.351946 0
M  V30 36 H -0.034964 4.306321 -2.137976 0
M  V30 37 H -0.173861 1.843707 -2.199843 0
M  V30 38 H 0.958275 0.568586 -0.517652 0
M  V30 39 H 4.911303 -2.044729 2.868850 0
M  V30 40 H 0.776277 -3.042575 0.578161 0
M  V30 41 H -0.132028 -4.983541 -0.773812 0
M  V30 42 H -3.091289 -5.388191 0.039753 0
M  V30 43 H -2.025479 -6.643147 -0.776612 0
M  V30 44 H -1.631505 -5.081911 -2.771006 0
M  V30 45 H -2.786307 -3.880325 -1.980515 0
M  V30 46 H -3.483018 -3.335008 -0.142174 0
M  V30 47 H -3.747119 -1.251003 1.092157 0
M  V30 END ATOM
M  V30 BEGIN BOND
M  V30 1 1 1 2
M  V30 2 1 2 3
M  V30 3 2 3 4
M  V30 4 1 4 5
M  V30 5 2 5 6
M  V30 6 1 6 7
M  V30 7 2 7 8
M  V30 8 1 8 9
M  V30 9 1 9 10
M  V30 10 2 10 11
M  V30 11 1 11 12
M  V30 12 2 12 13
M  V30 13 1 13 14
M  V30 14 2 14 15
M  V30 15 1 6 16
M  V30 16 2 16 17
M  V30 17 1 16 18
M  V30 18 1 18 19
M  V30 19 2 19 20
M  V30 20 1 4 21
M  V30 21 2 21 22
M  V30 22 1 22 23
M  V30 23 1 23 24
M  V30 24 1 24 25
M  V30 25 1 25 26
M  V30 26 2 23 27
M  V30 27 1 27 28
M  V30 28 2 28 29
M  V30 29 1 29 2
M  V30 30 1 19 5
M  V30 31 1 29 21
M  V30 32 1 15 7
M  V30 33 1 26 24
M  V30 34 1 15 10
M  V30 35 1 1 30
M  V30 36 1 1 31
M  V30 37 1 1 32
M  V30 38 1 3 33
M  V30 39 1 8 34
M  V30 40 1 11 35
M  V30 41 1 12 36
M  V30 42 1 13 37
M  V30 43 1 14 38
M  V30 44 1 18 39
M  V30 45 1 22 40
M  V30 46 1 24 41
M  V30 47 1 25 42
M  V30 48 1 25 43
M  V30 49 1 26 44
M  V30 50 1 26 45
M  V30 51 1 27 46
M  V30 52 1 28 47
M  V30 END BOND
M  V30 END CTAB
M  END
>  <Dataset>  (41) 
ChEMBL_Kinases

>  <Ligand_Instance>  (41) 
nan

>  <PDB_ID>  (41) 
nan

>  <Standardized_SMILES>  (41) 
Cn1cc(C2=C(c3coc4ccccc34)C(=O)NC2=O)c2cc(C3CC3)ccc21

>  <Name>  (41) 
nan

>  <Pocket>  (41) 
nan

>  <ATP_Site>  (41) 
nan

>  <Peripheral>  (41) 
nan

>  <Num_H_Atoms_ProtBoundConf>  (41) 
nan

>  <Num_Resolved_Atoms>  (41) 
nan

>  <Num_Not_Resolved_Atoms>  (41) 
nan

$$$$
CHEMBL4876656
     RDKit          3D

  0  0  0  0  0  0  0  0  0  0999 V3000
M  V30 BEGIN CTAB
M  V30 COUNTS 35 36 0 0 0
M  V30 BEGIN ATOM
M  V30 1 N 1.778655 -4.414528 5.938116 0
M  V30 2 C 1.753259 -4.013655 4.846719 0
M  V30 3 C 1.734020 -3.538616 3.494192 0
M  V30 4 C 1.836592 -4.339629 2.378035 0
M  V30 5 C 1.805673 -3.826597 1.101035 0
M  V30 6 C 1.669797 -2.474147 0.869280 0
M  V30 7 N 1.613590 -1.873958 -0.433840 0
M  V30 8 C 1.485760 -0.455593 -0.386617 0
M  V30 9 N 2.413764 0.503251 -0.564855 0
M  V30 10 C 2.074284 1.810123 -0.437401 0
M  V30 11 C 0.768420 2.167954 -0.123396 0
M  V30 12 C 0.392453 3.576197 0.021888 0
M  V30 13 F -0.590167 3.871891 -0.895310 0
M  V30 14 F 1.503071 4.368812 -0.290600 0
M  V30 15 F -0.033352 3.911792 1.280204 0
M  V30 16 C -0.189595 1.165724 0.059064 0
M  V30 17 N -1.559734 1.474875 0.397966 0
M  V30 18 C -2.511018 0.367606 0.567439 0
M  V30 19 C -2.690228 -0.413483 -0.713617 0
M  V30 20 N -3.201088 0.458316 -1.765558 0
M  V30 21 N 0.206193 -0.112116 -0.079927 0
M  V30 22 C 1.573943 -1.743073 2.053890 0
M  V30 23 N 1.602650 -2.229397 3.297778 0
M  V30 24 H 1.944846 -5.401150 2.549642 0
M  V30 25 H 1.889961 -4.479038 0.226782 0
M  V30 26 H 1.677569 -2.561503 -1.217739 0
M  V30 27 H 2.856016 2.540463 -0.589315 0
M  V30 28 H -1.785868 2.502130 0.502710 0
M  V30 29 H -3.500541 0.799396 0.814189 0
M  V30 30 H -2.208457 -0.324409 1.353988 0
M  V30 31 H -3.431976 -1.208239 -0.487867 0
M  V30 32 H -1.787517 -0.952481 -1.048306 0
M  V30 33 H -2.543748 0.560587 -2.562458 0
M  V30 34 H -4.116189 0.062550 -2.101994 0
M  V30 35 H 1.463127 -0.651510 1.975173 0
M  V30 END ATOM
M  V30 BEGIN BOND
M  V30 1 3 1 2
M  V30 2 1 2 3
M  V30 3 2 3 4
M  V30 4 1 4 5
M  V30 5 2 5 6
M  V30 6 1 6 7
M  V30 7 1 7 8
M  V30 8 2 8 9
M  V30 9 1 9 10
M  V30 10 2 10 11
M  V30 11 1 11 12
M  V30 12 1 12 13
M  V30 13 1 12 14
M  V30 14 1 12 15
M  V30 15 1 11 16
M  V30 16 1 16 17
M  V30 17 1 17 18
M  V30 18 1 18 19
M  V30 19 1 19 20
M  V30 20 2 16 21
M  V30 21 1 6 22
M  V30 22 2 22 23
M  V30 23 1 23 3
M  V30 24 1 21 8
M  V30 25 1 4 24
M  V30 26 1 5 25
M  V30 27 1 7 26
M  V30 28 1 10 27
M  V30 29 1 17 28
M  V30 30 1 18 29
M  V30 31 1 18 30
M  V30 32 1 19 31
M  V30 33 1 19 32
M  V30 34 1 20 33
M  V30 35 1 20 34
M  V30 36 1 22 35
M  V30 END BOND
M  V30 END CTAB
M  END
>  <Dataset>  (42) 
ChEMBL_Kinases

>  <Ligand_Instance>  (42) 
nan

>  <PDB_ID>  (42) 
nan

>  <Standardized_SMILES>  (42) 
N#Cc1ccc(Nc2ncc(C(F)(F)F)c(NCCN)n2)cn1

>  <Name>  (42) 
nan

>  <Pocket>  (42) 
nan

>  <ATP_Site>  (42) 
nan

>  <Peripheral>  (42) 
nan

>  <Num_H_Atoms_ProtBoundConf>  (42) 
nan

>  <Num_Resolved_Atoms>  (42) 
nan

>  <Num_Not_Resolved_Atoms>  (42) 
nan

$$$$
CHEMBL491434
     RDKit          3D

  0  0  0  0  0  0  0  0  0  0999 V3000
M  V30 BEGIN CTAB
M  V30 COUNTS 40 44 0 0 0
M  V30 BEGIN ATOM
M  V30 1 Cl 3.292735 -2.751360 2.688165 0
M  V30 2 C 3.477368 -3.544706 1.137774 0
M  V30 3 C 4.050196 -4.794795 1.028929 0
M  V30 4 C 4.164744 -5.362068 -0.223938 0
M  V30 5 C 3.721157 -4.713152 -1.377885 0
M  V30 6 C 3.146344 -3.449377 -1.232376 0
M  V30 7 C 3.022115 -2.858878 0.030467 0
M  V30 8 C 2.402994 -1.538089 0.029995 0
M  V30 9 C 1.267846 -1.363206 -0.735195 0
M  V30 10 C 0.602692 -0.159615 -0.809005 0
M  V30 11 C 1.053993 0.936758 -0.107634 0
M  V30 12 O 0.628109 2.241338 0.029480 0
M  V30 13 C -0.153815 2.723218 1.052761 0
M  V30 14 C 0.486165 3.722842 1.769383 0
M  V30 15 N 0.018278 4.418171 2.835452 0
M  V30 16 C -1.228396 4.085518 3.239544 0
M  V30 17 C -1.905093 3.087367 2.547250 0
M  V30 18 S -3.557163 2.409208 2.815738 0
M  V30 19 C -3.467059 1.229236 1.443009 0
M  V30 20 C -4.554305 0.304159 1.085377 0
M  V30 21 N -5.705245 0.569694 0.438551 0
M  V30 22 N -6.389096 -0.534531 0.326162 0
M  V30 23 N -5.674365 -1.496720 0.899641 0
M  V30 24 N -4.532152 -0.998611 1.377447 0
M  V30 25 C -2.195590 1.439374 0.888485 0
M  V30 26 C -1.420344 2.393910 1.472738 0
M  V30 27 C 2.206741 0.779654 0.676092 0
M  V30 28 C 2.873143 -0.452623 0.740779 0
M  V30 29 H 4.400183 -5.315222 1.906631 0
M  V30 30 H 4.608264 -6.340377 -0.348585 0
M  V30 31 H 3.827148 -5.190301 -2.351885 0
M  V30 32 H 2.820627 -2.994298 -2.162677 0
M  V30 33 H 0.823811 -2.151392 -1.325898 0
M  V30 34 H -0.275811 0.089027 -1.373554 0
M  V30 35 H 1.503421 4.080942 1.536251 0
M  V30 36 H -1.764085 4.527104 4.064939 0
M  V30 37 H -5.856066 -2.525586 1.028259 0
M  V30 38 H -2.000138 0.798830 0.050511 0
M  V30 39 H 2.724193 1.503365 1.298132 0
M  V30 40 H 3.759939 -0.653253 1.316516 0
M  V30 END ATOM
M  V30 BEGIN BOND
M  V30 1 1 1 2
M  V30 2 2 2 3
M  V30 3 1 3 4
M  V30 4 2 4 5
M  V30 5 1 5 6
M  V30 6 2 6 7
M  V30 7 1 7 8
M  V30 8 2 8 9
M  V30 9 1 9 10
M  V30 10 2 10 11
M  V30 11 1 11 12
M  V30 12 1 12 13
M  V30 13 2 13 14
M  V30 14 1 14 15
M  V30 15 2 15 16
M  V30 16 1 16 17
M  V30 17 1 17 18
M  V30 18 1 18 19
M  V30 19 1 19 20
M  V30 20 1 20 21
M  V30 21 2 21 22
M  V30 22 1 22 23
M  V30 23 1 23 24
M  V30 24 2 19 25
M  V30 25 1 25 26
M  V30 26 1 11 27
M  V30 27 2 27 28
M  V30 28 1 7 2
M  V30 29 1 28 8
M  V30 30 1 26 13
M  V30 31 2 26 17
M  V30 32 2 24 20
M  V30 33 1 3 29
M  V30 34 1 4 30
M  V30 35 1 5 31
M  V30 36 1 6 32
M  V30 37 1 9 33
M  V30 38 1 10 34
M  V30 39 1 14 35
M  V30 40 1 16 36
M  V30 41 1 23 37
M  V30 42 1 25 38
M  V30 43 1 27 39
M  V30 44 1 28 40
M  V30 END BOND
M  V30 END CTAB
M  END
>  <Dataset>  (43) 
ChEMBL_Kinases

>  <Ligand_Instance>  (43) 
nan

>  <PDB_ID>  (43) 
nan

>  <Standardized_SMILES>  (43) 
Clc1ccccc1-c1ccc(Oc2cncc3sc(-c4nn[nH]n4)cc23)cc1

>  <Name>  (43) 
nan

>  <Pocket>  (43) 
nan

>  <ATP_Site>  (43) 
nan

>  <Peripheral>  (43) 
nan

>  <Num_H_Atoms_ProtBoundConf>  (43) 
nan

>  <Num_Resolved_Atoms>  (43) 
nan

>  <Num_Not_Resolved_Atoms>  (43) 
nan

$$$$
CHEMBL597803
     RDKit          3D

  0  0  0  0  0  0  0  0  0  0999 V3000
M  V30 BEGIN CTAB
M  V30 COUNTS 51 54 0 0 0
M  V30 BEGIN ATOM
M  V30 1 C 2.281396 1.373389 3.940001 0
M  V30 2 N 1.505471 0.519378 3.061153 0
M  V30 3 C 1.564833 -0.919301 3.273457 0
M  V30 4 C 2.663442 -1.564107 2.500237 0
M  V30 5 C 3.917390 -1.670887 3.112955 0
M  V30 6 C 5.023191 -2.242912 2.518830 0
M  V30 7 C 4.891158 -2.743189 1.239960 0
M  V30 8 Cl 6.218403 -3.492332 0.378377 0
M  V30 9 C 3.673118 -2.651218 0.616890 0
M  V30 10 C 2.564120 -2.079812 1.207331 0
M  V30 11 C 0.654333 0.855945 1.976795 0
M  V30 12 O 0.992330 2.027757 2.287077 0
M  V30 13 C -0.133459 1.557726 0.937293 0
M  V30 14 N 0.100720 2.990962 1.103577 0
M  V30 15 C -1.620684 1.379273 1.140020 0
M  V30 16 C -2.093856 0.015839 0.702518 0
M  V30 17 N -1.610374 -0.268943 -0.652591 0
M  V30 18 C -2.514079 -0.888711 -1.592780 0
M  V30 19 N -2.770671 -0.163938 -2.716881 0
M  V30 20 C -3.591603 -0.608409 -3.682507 0
M  V30 21 N -4.182375 -1.822939 -3.525705 0
M  V30 22 C -3.964891 -2.582025 -2.435156 0
M  V30 23 N -4.388010 -3.794171 -1.997483 0
M  V30 24 C -3.826287 -4.066891 -0.787947 0
M  V30 25 C -3.007613 -3.006571 -0.412085 0
M  V30 26 C -3.119915 -2.111155 -1.453936 0
M  V30 27 C -0.282368 0.039260 -1.082415 0
M  V30 28 C 0.300410 1.253492 -0.460709 0
M  V30 29 H 3.376302 1.212544 3.737448 0
M  V30 30 H 2.060026 1.022782 4.979497 0
M  V30 31 H 2.084274 2.434601 3.817122 0
M  V30 32 H 0.607854 -1.433622 3.028981 0
M  V30 33 H 1.744927 -1.156303 4.342250 0
M  V30 34 H 4.024563 -1.276235 4.124121 0
M  V30 35 H 5.970402 -2.304163 3.027834 0
M  V30 36 H 3.448712 -3.006082 -0.380688 0
M  V30 37 H 1.580345 -1.969168 0.791345 0
M  V30 38 H -0.321334 3.391572 1.945202 0
M  V30 39 H 1.041659 3.296613 0.840906 0
M  V30 40 H -2.160295 2.144266 0.551871 0
M  V30 41 H -1.851716 1.528984 2.193343 0
M  V30 42 H -1.772207 -0.787031 1.374871 0
M  V30 43 H -3.193203 0.076428 0.642568 0
M  V30 44 H -3.828347 -0.076759 -4.589036 0
M  V30 45 H -5.044347 -4.423959 -2.508401 0
M  V30 46 H -3.943263 -4.941842 -0.153500 0
M  V30 47 H -2.422625 -2.917997 0.492688 0
M  V30 48 H -0.321200 0.203586 -2.199225 0
M  V30 49 H 0.426119 -0.805056 -0.958127 0
M  V30 50 H 0.086764 2.135876 -1.126432 0
M  V30 51 H 1.410164 1.188747 -0.446250 0
M  V30 END ATOM
M  V30 BEGIN BOND
M  V30 1 1 1 2
M  V30 2 1 2 3
M  V30 3 1 3 4
M  V30 4 2 4 5
M  V30 5 1 5 6
M  V30 6 2 6 7
M  V30 7 1 7 8
M  V30 8 1 7 9
M  V30 9 2 9 10
M  V30 10 1 2 11
M  V30 11 2 11 12
M  V30 12 1 11 13
M  V30 13 1 13 14
M  V30 14 1 13 15
M  V30 15 1 15 16
M  V30 16 1 16 17
M  V30 17 1 17 18
M  V30 18 2 18 19
M  V30 19 1 19 20
M  V30 20 2 20 21
M  V30 21 1 21 22
M  V30 22 1 22 23
M  V30 23 1 23 24
M  V30 24 2 24 25
M  V30 25 1 25 26
M  V30 26 1 17 27
M  V30 27 1 27 28
M  V30 28 1 10 4
M  V30 29 1 28 13
M  V30 30 1 26 18
M  V30 31 2 26 22
M  V30 32 1 1 29
M  V30 33 1 1 30
M  V30 34 1 1 31
M  V30 35 1 3 32
M  V30 36 1 3 33
M  V30 37 1 5 34
M  V30 38 1 6 35
M  V30 39 1 9 36
M  V30 40 1 10 37
M  V30 41 1 14 38
M  V30 42 1 14 39
M  V30 43 1 15 40
M  V30 44 1 15 41
M  V30 45 1 16 42
M  V30 46 1 16 43
M  V30 47 1 20 44
M  V30 48 1 23 45
M  V30 49 1 24 46
M  V30 50 1 25 47
M  V30 51 1 27 48
M  V30 52 1 27 49
M  V30 53 1 28 50
M  V30 54 1 28 51
M  V30 END BOND
M  V30 END CTAB
M  END
>  <Dataset>  (44) 
ChEMBL_Kinases

>  <Ligand_Instance>  (44) 
nan

>  <PDB_ID>  (44) 
nan

>  <Standardized_SMILES>  (44) 
CN(Cc1ccc(Cl)cc1)C(=O)C1(N)CCN(c2ncnc3[nH]ccc23)CC1

>  <Name>  (44) 
nan

>  <Pocket>  (44) 
nan

>  <ATP_Site>  (44) 
nan

>  <Peripheral>  (44) 
nan

>  <Num_H_Atoms_ProtBoundConf>  (44) 
nan

>  <Num_Resolved_Atoms>  (44) 
nan

>  <Num_Not_Resolved_Atoms>  (44) 
nan

$$$$
CHEMBL597793
     RDKit          3D

  0  0  0  0  0  0  0  0  0  0999 V3000
M  V30 BEGIN CTAB
M  V30 COUNTS 48 51 0 0 0
M  V30 BEGIN ATOM
M  V30 1 N 1.327200 -1.561581 3.948221 0
M  V30 2 C 0.340285 -1.396753 2.903380 0
M  V30 3 C 0.919387 -1.699824 1.540760 0
M  V30 4 O 1.977854 -0.876506 1.223350 0
M  V30 5 C 2.443515 -1.233060 -0.050394 0
M  V30 6 C 3.587751 -0.387444 -0.463616 0
M  V30 7 C 3.260559 0.778269 -1.152387 0
M  V30 8 C 4.180375 1.694046 -1.619866 0
M  V30 9 C 5.528838 1.417598 -1.377029 0
M  V30 10 Cl 6.732783 2.544539 -1.947785 0
M  V30 11 C 5.847802 0.262403 -0.694804 0
M  V30 12 C 4.917785 -0.644761 -0.232901 0
M  V30 13 C -0.094857 0.049871 2.937831 0
M  V30 14 C -1.135862 0.392118 1.917806 0
M  V30 15 N -2.035736 -0.725262 1.682283 0
M  V30 16 C -2.714155 -1.000737 0.450396 0
M  V30 17 N -2.446878 -2.201874 -0.144403 0
M  V30 18 C -3.053191 -2.536790 -1.318534 0
M  V30 19 N -3.934543 -1.735261 -1.962719 0
M  V30 20 C -4.193052 -0.562847 -1.378627 0
M  V30 21 N -4.983838 0.473627 -1.694914 0
M  V30 22 C -4.926848 1.473340 -0.786013 0
M  V30 23 C -4.038760 1.082415 0.206783 0
M  V30 24 C -3.612715 -0.165113 -0.191155 0
M  V30 25 C -2.159397 -1.549085 2.896485 0
M  V30 26 C -0.835855 -2.273774 3.177417 0
M  V30 27 H 1.963402 -2.373686 3.724668 0
M  V30 28 H 0.858373 -1.825445 4.855234 0
M  V30 29 H 0.137795 -1.550598 0.790535 0
M  V30 30 H 1.181671 -2.795390 1.489072 0
M  V30 31 H 2.697855 -2.314376 -0.008163 0
M  V30 32 H 1.611765 -1.135822 -0.771847 0
M  V30 33 H 2.216252 1.031467 -1.362866 0
M  V30 34 H 3.870565 2.584135 -2.149537 0
M  V30 35 H 6.903561 0.063981 -0.515017 0
M  V30 36 H 5.148544 -1.549194 0.300048 0
M  V30 37 H 0.797491 0.687741 2.783245 0
M  V30 38 H -0.458169 0.286150 3.964583 0
M  V30 39 H -1.746360 1.225371 2.305547 0
M  V30 40 H -0.693900 0.745702 0.961140 0
M  V30 41 H -2.840182 -3.498943 -1.796598 0
M  V30 42 H -5.594193 0.538145 -2.545586 0
M  V30 43 H -5.475554 2.402974 -0.831915 0
M  V30 44 H -3.765992 1.641177 1.071553 0
M  V30 45 H -2.339306 -0.882746 3.786090 0
M  V30 46 H -2.960099 -2.276986 2.769277 0
M  V30 47 H -0.889706 -2.584196 4.242987 0
M  V30 48 H -0.778235 -3.204225 2.562707 0
M  V30 END ATOM
M  V30 BEGIN BOND
M  V30 1 1 1 2
M  V30 2 1 2 3
M  V30 3 1 3 4
M  V30 4 1 4 5
M  V30 5 1 5 6
M  V30 6 2 6 7
M  V30 7 1 7 8
M  V30 8 2 8 9
M  V30 9 1 9 10
M  V30 10 1 9 11
M  V30 11 2 11 12
M  V30 12 1 2 13
M  V30 13 1 13 14
M  V30 14 1 14 15
M  V30 15 1 15 16
M  V30 16 2 16 17
M  V30 17 1 17 18
M  V30 18 2 18 19
M  V30 19 1 19 20
M  V30 20 1 20 21
M  V30 21 1 21 22
M  V30 22 2 22 23
M  V30 23 1 23 24
M  V30 24 1 15 25
M  V30 25 1 25 26
M  V30 26 1 26 2
M  V30 27 1 12 6
M  V30 28 1 24 16
M  V30 29 2 24 20
M  V30 30 1 1 27
M  V30 31 1 1 28
M  V30 32 1 3 29
M  V30 33 1 3 30
M  V30 34 1 5 31
M  V30 35 1 5 32
M  V30 36 1 7 33
M  V30 37 1 8 34
M  V30 38 1 11 35
M  V30 39 1 12 36
M  V30 40 1 13 37
M  V30 41 1 13 38
M  V30 42 1 14 39
M  V30 43 1 14 40
M  V30 44 1 18 41
M  V30 45 1 21 42
M  V30 46 1 22 43
M  V30 47 1 23 44
M  V30 48 1 25 45
M  V30 49 1 25 46
M  V30 50 1 26 47
M  V30 51 1 26 48
M  V30 END BOND
M  V30 END CTAB
M  END
>  <Dataset>  (45) 
ChEMBL_Kinases

>  <Ligand_Instance>  (45) 
nan

>  <PDB_ID>  (45) 
nan

>  <Standardized_SMILES>  (45) 
NC1(COCc2ccc(Cl)cc2)CCN(c2ncnc3[nH]ccc23)CC1

>  <Name>  (45) 
nan

>  <Pocket>  (45) 
nan

>  <ATP_Site>  (45) 
nan

>  <Peripheral>  (45) 
nan

>  <Num_H_Atoms_ProtBoundConf>  (45) 
nan

>  <Num_Resolved_Atoms>  (45) 
nan

>  <Num_Not_Resolved_Atoms>  (45) 
nan

$$$$
CHEMBL3915221
     RDKit          3D

  0  0  0  0  0  0  0  0  0  0999 V3000
M  V30 BEGIN CTAB
M  V30 COUNTS 52 55 0 0 0
M  V30 BEGIN ATOM
M  V30 1 O 2.283231 -2.659501 -1.230548 0
M  V30 2 C 1.282238 -2.771002 -0.436958 0
M  V30 3 O 1.883644 -3.963555 -0.797286 0
M  V30 4 C 0.483335 -1.602944 0.080405 0 CFG=2
M  V30 5 C 0.963897 -0.315774 -0.500919 0
M  V30 6 C 0.868586 -0.216185 -1.974042 0
M  V30 7 C 0.389553 -1.088439 -2.943531 0
M  V30 8 C 0.421209 -0.707455 -4.266092 0
M  V30 9 C 0.912147 0.513460 -4.673684 0
M  V30 10 C 1.384974 1.366137 -3.680950 0
M  V30 11 N 1.910538 2.652917 -4.069681 0
M  V30 12 C 2.428147 3.605179 -3.094531 0
M  V30 13 N 2.103564 4.518882 -2.418904 0
M  V30 14 C 2.924441 5.163850 -1.609991 0
M  V30 15 C 4.295217 4.738740 -1.539316 0
M  V30 16 S 4.274805 3.315540 -2.757976 0
M  V30 17 N 1.336835 0.962822 -2.423254 0
M  V30 18 C 0.773459 -1.606637 1.586393 0
M  V30 19 C 0.047670 -2.770179 2.213059 0
M  V30 20 C -1.411504 -2.384439 2.329655 0 CFG=1
M  V30 21 O -1.521668 -1.681064 3.551106 0
M  V30 22 C -2.315705 -2.135809 4.563965 0
M  V30 23 C -3.135392 -3.229436 4.741037 0
M  V30 24 C -3.810291 -3.381576 5.926436 0
M  V30 25 C -3.727519 -2.499502 6.981371 0
M  V30 26 C -2.901532 -1.376268 6.831890 0
M  V30 27 Cl -2.861926 -0.329282 8.205383 0
M  V30 28 C -2.214422 -1.224959 5.619807 0
M  V30 29 Cl -1.247442 0.258355 5.675001 0
M  V30 30 C -1.755351 -1.505279 1.150750 0
M  V30 31 C -0.982750 -1.807921 -0.095753 0
M  V30 32 H 1.663122 -4.850921 -0.313983 0
M  V30 33 H 0.402110 0.512101 -0.015156 0
M  V30 34 H 2.030383 -0.143436 -0.160294 0
M  V30 35 H 0.021087 -2.016189 -2.533505 0
M  V30 36 H 0.034116 -1.430181 -4.977715 0
M  V30 37 H 0.926750 0.790831 -5.721206 0
M  V30 38 H 1.926135 2.921794 -5.076472 0
M  V30 39 H 2.409394 5.979364 -1.076152 0
M  V30 40 H 4.890232 5.425390 -0.766905 0
M  V30 41 H 0.385745 -0.650208 1.980672 0
M  V30 42 H 1.868780 -1.648723 1.763065 0
M  V30 43 H 0.472074 -2.952039 3.232772 0
M  V30 44 H 0.195871 -3.713418 1.659928 0
M  V30 45 H -2.054671 -3.313970 2.314661 0
M  V30 46 H -3.148593 -3.864186 3.882704 0
M  V30 47 H -4.439102 -4.263490 6.001619 0
M  V30 48 H -4.311665 -2.734351 7.865906 0
M  V30 49 H -2.853554 -1.511441 0.946989 0
M  V30 50 H -1.538330 -0.454856 1.440607 0
M  V30 51 H -1.329934 -1.041856 -0.847039 0
M  V30 52 H -1.267594 -2.775435 -0.559649 0
M  V30 END ATOM
M  V30 BEGIN BOND
M  V30 1 2 1 2
M  V30 2 1 2 3
M  V30 3 1 2 4
M  V30 4 1 4 5 CFG=3
M  V30 5 1 5 6
M  V30 6 2 6 7
M  V30 7 1 7 8
M  V30 8 2 8 9
M  V30 9 1 9 10
M  V30 10 1 10 11
M  V30 11 1 11 12
M  V30 12 2 12 13
M  V30 13 1 13 14
M  V30 14 2 14 15
M  V30 15 1 15 16
M  V30 16 2 10 17
M  V30 17 1 4 18
M  V30 18 1 18 19
M  V30 19 1 19 20
M  V30 20 1 20 21
M  V30 21 1 21 22
M  V30 22 2 22 23
M  V30 23 1 23 24
M  V30 24 2 24 25
M  V30 25 1 25 26
M  V30 26 1 26 27
M  V30 27 2 26 28
M  V30 28 1 28 29
M  V30 29 1 20 30
M  V30 30 1 30 31
M  V30 31 1 31 4
M  V30 32 1 17 6
M  V30 33 1 28 22
M  V30 34 1 16 12
M  V30 35 1 3 32
M  V30 36 1 5 33
M  V30 37 1 5 34
M  V30 38 1 7 35
M  V30 39 1 8 36
M  V30 40 1 9 37
M  V30 41 1 11 38
M  V30 42 1 14 39
M  V30 43 1 15 40
M  V30 44 1 18 41
M  V30 45 1 18 42
M  V30 46 1 19 43
M  V30 47 1 19 44
M  V30 48 1 20 45 CFG=1
M  V30 49 1 23 46
M  V30 50 1 24 47
M  V30 51 1 25 48
M  V30 52 1 30 49
M  V30 53 1 30 50
M  V30 54 1 31 51
M  V30 55 1 31 52
M  V30 END BOND
M  V30 END CTAB
M  END
>  <Dataset>  (46) 
ChEMBL_Kinases

>  <Ligand_Instance>  (46) 
nan

>  <PDB_ID>  (46) 
nan

>  <Standardized_SMILES>  (46) 
O=C(O)[C@]1(Cc2cccc(Nc3nccs3)n2)CC[C@@H](Oc2cccc(Cl)c2Cl)CC1

>  <Name>  (46) 
nan

>  <Pocket>  (46) 
nan

>  <ATP_Site>  (46) 
nan

>  <Peripheral>  (46) 
nan

>  <Num_H_Atoms_ProtBoundConf>  (46) 
nan

>  <Num_Resolved_Atoms>  (46) 
nan

>  <Num_Not_Resolved_Atoms>  (46) 
nan

$$$$
CHEMBL3915384
     RDKit          3D

  0  0  0  0  0  0  0  0  0  0999 V3000
M  V30 BEGIN CTAB
M  V30 COUNTS 56 57 0 0 0
M  V30 BEGIN ATOM
M  V30 1 C 2.945060 -3.710231 -1.671989 0
M  V30 2 C 2.581321 -3.224676 -0.325790 0 CFG=2
M  V30 3 C 3.617930 -3.072691 0.681387 0
M  V30 4 C 4.140840 -1.868708 0.951172 0
M  V30 5 C 3.719452 -0.667671 0.256083 0
M  V30 6 O 4.540964 -0.030280 1.028589 0
M  V30 7 C 3.238505 0.465887 -0.491091 0 CFG=1
M  V30 8 O 2.446595 0.216794 -1.608327 0
M  V30 9 C 2.830944 1.675510 0.261323 0 CFG=1
M  V30 10 O 3.228500 2.783734 -0.628089 0
M  V30 11 C 1.364849 1.911915 0.437491 0
M  V30 12 C 0.511388 0.901500 1.034236 0
M  V30 13 C -0.552462 0.511831 0.322146 0
M  V30 14 C -1.630223 -0.431753 0.533571 0
M  V30 15 C -2.821175 0.293360 0.710764 0
M  V30 16 C -4.059078 -0.254121 0.963872 0
M  V30 17 N -5.248452 0.495938 1.138836 0
M  V30 18 C -5.278786 1.944195 1.076461 0
M  V30 19 C -4.438540 2.582074 2.135272 0
M  V30 20 N -4.496753 4.007161 2.037750 0
M  V30 21 O -3.716633 3.012902 3.046878 0
M  V30 22 C -4.193645 -1.613916 1.060847 0
M  V30 23 C -3.059310 -2.375534 0.895697 0
M  V30 24 O -2.874319 -3.763107 0.941306 0
M  V30 25 C -1.856722 -1.778974 0.644268 0
M  V30 26 C -0.662170 -2.580827 0.429674 0
M  V30 27 O -0.449726 -2.644417 1.666674 0
M  V30 28 O 0.234294 -3.226003 -0.458002 0
M  V30 29 C 1.301593 -3.852230 0.243702 0 CFG=1
M  V30 30 C 1.296676 -5.328712 -0.116198 0
M  V30 31 H 2.041855 -4.049168 -2.219678 0
M  V30 32 H 3.668645 -4.568116 -1.541650 0
M  V30 33 H 3.421672 -2.926806 -2.310945 0
M  V30 34 H 2.197729 -2.112466 -0.449244 0
M  V30 35 H 3.705667 -4.093493 0.978840 0
M  V30 36 H 4.794310 -2.230807 1.696745 0
M  V30 37 H 4.236633 0.821374 -1.065531 0
M  V30 38 H 1.620074 0.721752 -1.583131 0
M  V30 39 H 3.377314 1.829178 1.166387 0
M  V30 40 H 2.737563 2.596621 -1.463488 0
M  V30 41 H 0.898763 2.295192 -0.512442 0
M  V30 42 H 1.296122 2.820653 1.137134 0
M  V30 43 H 0.735111 0.486261 2.016303 0
M  V30 44 H -0.723446 0.961868 -0.675753 0
M  V30 45 H -2.892472 1.394448 0.658967 0
M  V30 46 H -6.166496 0.059785 1.321525 0
M  V30 47 H -4.772330 2.252647 0.113251 0
M  V30 48 H -6.281086 2.367110 1.044008 0
M  V30 49 H -4.585767 4.679714 1.242884 0
M  V30 50 H -4.571717 4.902443 1.509346 0
M  V30 51 H -5.064546 -2.207103 1.251455 0
M  V30 52 H -2.972527 -4.307751 1.769270 0
M  V30 53 H 1.295477 -3.765076 1.317146 0
M  V30 54 H 2.288859 -5.737393 0.161576 0
M  V30 55 H 1.117642 -5.527983 -1.170330 0
M  V30 56 H 0.559537 -5.847692 0.531688 0
M  V30 END ATOM
M  V30 BEGIN BOND
M  V30 1 1 1 2
M  V30 2 1 2 3
M  V30 3 2 3 4
M  V30 4 1 4 5
M  V30 5 2 5 6
M  V30 6 1 5 7
M  V30 7 1 7 8
M  V30 8 1 7 9
M  V30 9 1 9 10
M  V30 10 1 9 11
M  V30 11 1 11 12
M  V30 12 2 12 13
M  V30 13 1 13 14
M  V30 14 2 14 15
M  V30 15 1 15 16
M  V30 16 1 16 17
M  V30 17 1 17 18
M  V30 18 1 18 19
M  V30 19 1 19 20
M  V30 20 2 19 21
M  V30 21 2 16 22
M  V30 22 1 22 23
M  V30 23 1 23 24
M  V30 24 2 23 25
M  V30 25 1 25 26
M  V30 26 2 26 27
M  V30 27 1 26 28
M  V30 28 1 28 29
M  V30 29 1 29 30
M  V30 30 1 29 2
M  V30 31 1 25 14
M  V30 32 1 1 31
M  V30 33 1 1 32
M  V30 34 1 1 33
M  V30 35 1 2 34 CFG=3
M  V30 36 1 3 35
M  V30 37 1 4 36
M  V30 38 1 7 37 CFG=3
M  V30 39 1 8 38
M  V30 40 1 9 39 CFG=1
M  V30 41 1 10 40
M  V30 42 1 11 41
M  V30 43 1 11 42
M  V30 44 1 12 43
M  V30 45 1 13 44
M  V30 46 1 15 45
M  V30 47 1 17 46
M  V30 48 1 18 47
M  V30 49 1 18 48
M  V30 50 1 20 49
M  V30 51 1 20 50
M  V30 52 1 22 51
M  V30 53 1 24 52
M  V30 54 1 29 53 CFG=1
M  V30 55 1 30 54
M  V30 56 1 30 55
M  V30 57 1 30 56
M  V30 END BOND
M  V30 END CTAB
M  END
>  <Dataset>  (47) 
ChEMBL_Kinases

>  <Ligand_Instance>  (47) 
nan

>  <PDB_ID>  (47) 
nan

>  <Standardized_SMILES>  (47) 
C[C@@H]1/C=C\C(=O)[C@@H](O)[C@@H](O)C/C=C/c2cc(NCC(N)=O)cc(O)c2C(=O)O[C@H]1C

>  <Name>  (47) 
nan

>  <Pocket>  (47) 
nan

>  <ATP_Site>  (47) 
nan

>  <Peripheral>  (47) 
nan

>  <Num_H_Atoms_ProtBoundConf>  (47) 
nan

>  <Num_Resolved_Atoms>  (47) 
nan

>  <Num_Not_Resolved_Atoms>  (47) 
nan

$$$$
CHEMBL491435
     RDKit          3D

  0  0  0  0  0  0  0  0  0  0999 V3000
M  V30 BEGIN CTAB
M  V30 COUNTS 40 44 0 0 0
M  V30 BEGIN ATOM
M  V30 1 F -1.180982 -6.922744 4.424953 0
M  V30 2 C -1.171928 -5.840521 3.633157 0
M  V30 3 C -0.338301 -5.807401 2.535205 0
M  V30 4 C -0.308131 -4.694335 1.694109 0
M  V30 5 C -1.143145 -3.631059 2.003659 0
M  V30 6 C -1.193306 -2.419943 1.193698 0
M  V30 7 C -2.311706 -1.637248 1.027613 0
M  V30 8 C -2.327377 -0.492076 0.249961 0
M  V30 9 C -1.161153 -0.088487 -0.410611 0
M  V30 10 O -1.208880 1.037985 -1.165477 0
M  V30 11 C -0.237303 1.660910 -1.881596 0
M  V30 12 C -0.405140 1.804565 -3.242150 0
M  V30 13 N 0.440028 2.393264 -4.139737 0
M  V30 14 C 1.595509 2.902181 -3.618755 0
M  V30 15 C 1.793438 2.773968 -2.256670 0
M  V30 16 S 3.192253 3.330794 -1.262435 0
M  V30 17 C 2.516944 2.715643 0.315672 0
M  V30 18 C 3.229576 2.878165 1.542948 0
M  V30 19 N 4.175402 2.098731 2.063410 0
M  V30 20 N 4.541817 2.644868 3.210337 0
M  V30 21 N 3.852976 3.762067 3.443879 0
M  V30 22 N 3.036569 3.908823 2.408302 0
M  V30 23 C 1.343814 2.169541 -0.048302 0
M  V30 24 C 0.929030 2.174472 -1.354362 0
M  V30 25 C -0.028555 -0.862890 -0.254791 0
M  V30 26 C -0.060026 -1.996889 0.530733 0
M  V30 27 C -1.971136 -3.681624 3.106949 0
M  V30 28 C -1.988704 -4.776301 3.918501 0
M  V30 29 H 0.335495 -6.617534 2.251360 0
M  V30 30 H 0.329520 -4.623398 0.821342 0
M  V30 31 H -3.212430 -1.943626 1.534423 0
M  V30 32 H -3.275403 0.055300 0.188346 0
M  V30 33 H -1.325483 1.406333 -3.699329 0
M  V30 34 H 2.338390 3.386049 -4.209508 0
M  V30 35 H 4.121282 4.216009 4.344202 0
M  V30 36 H 0.785753 1.741325 0.779008 0
M  V30 37 H 0.893563 -0.596577 -0.742699 0
M  V30 38 H 0.853782 -2.571136 0.621975 0
M  V30 39 H -2.626666 -2.857081 3.357106 0
M  V30 40 H -2.625905 -4.848568 4.791403 0
M  V30 END ATOM
M  V30 BEGIN BOND
M  V30 1 1 1 2
M  V30 2 2 2 3
M  V30 3 1 3 4
M  V30 4 2 4 5
M  V30 5 1 5 6
M  V30 6 2 6 7
M  V30 7 1 7 8
M  V30 8 2 8 9
M  V30 9 1 9 10
M  V30 10 1 10 11
M  V30 11 2 11 12
M  V30 12 1 12 13
M  V30 13 2 13 14
M  V30 14 1 14 15
M  V30 15 1 15 16
M  V30 16 1 16 17
M  V30 17 1 17 18
M  V30 18 1 18 19
M  V30 19 2 19 20
M  V30 20 1 20 21
M  V30 21 1 21 22
M  V30 22 2 17 23
M  V30 23 1 23 24
M  V30 24 1 9 25
M  V30 25 2 25 26
M  V30 26 1 5 27
M  V30 27 2 27 28
M  V30 28 1 28 2
M  V30 29 1 26 6
M  V30 30 1 24 11
M  V30 31 2 24 15
M  V30 32 2 22 18
M  V30 33 1 3 29
M  V30 34 1 4 30
M  V30 35 1 7 31
M  V30 36 1 8 32
M  V30 37 1 12 33
M  V30 38 1 14 34
M  V30 39 1 21 35
M  V30 40 1 23 36
M  V30 41 1 25 37
M  V30 42 1 26 38
M  V30 43 1 27 39
M  V30 44 1 28 40
M  V30 END BOND
M  V30 END CTAB
M  END
>  <Dataset>  (48) 
ChEMBL_Kinases

>  <Ligand_Instance>  (48) 
nan

>  <PDB_ID>  (48) 
nan

>  <Standardized_SMILES>  (48) 
Fc1ccc(-c2ccc(Oc3cncc4sc(-c5nn[nH]n5)cc34)cc2)cc1

>  <Name>  (48) 
nan

>  <Pocket>  (48) 
nan

>  <ATP_Site>  (48) 
nan

>  <Peripheral>  (48) 
nan

>  <Num_H_Atoms_ProtBoundConf>  (48) 
nan

>  <Num_Resolved_Atoms>  (48) 
nan

>  <Num_Not_Resolved_Atoms>  (48) 
nan

$$$$
CHEMBL608154
     RDKit          3D

  0  0  0  0  0  0  0  0  0  0999 V3000
M  V30 BEGIN CTAB
M  V30 COUNTS 41 44 0 0 0
M  V30 BEGIN ATOM
M  V30 1 C 2.181095 -1.548822 4.210397 0
M  V30 2 O 2.574146 -1.496227 2.873621 0
M  V30 3 C 2.357172 -0.433786 2.011234 0
M  V30 4 C 3.335322 0.566785 1.938192 0
M  V30 5 Cl 4.797358 0.477278 2.913332 0
M  V30 6 C 3.172122 1.656345 1.090170 0
M  V30 7 C 2.047441 1.758135 0.316890 0
M  V30 8 C 1.049984 0.788233 0.356745 0
M  V30 9 N 0.098181 1.165334 -0.493467 0
M  V30 10 C 0.464667 2.346919 -1.070715 0
M  V30 11 C -0.141928 3.170401 -2.008211 0
M  V30 12 N 0.433752 4.319467 -2.431447 0
M  V30 13 C 1.641260 4.713147 -1.947719 0
M  V30 14 C 2.293055 3.916473 -1.000110 0
M  V30 15 C 1.690430 2.748109 -0.580622 0
M  V30 16 C 1.245972 -0.277700 1.209208 0
M  V30 17 N 0.239241 -1.280623 1.262191 0
M  V30 18 C -0.018592 -2.534246 0.598445 0
M  V30 19 O 0.610844 -3.139990 -0.275349 0
M  V30 20 C -1.254806 -3.216122 1.043583 0
M  V30 21 C -1.228243 -3.457117 2.417973 0
M  V30 22 C -2.329635 -4.097263 2.987833 0
M  V30 23 C -3.335104 -4.421414 2.099409 0
M  V30 24 N -3.361461 -4.187273 0.762657 0
M  V30 25 C -2.286068 -3.560240 0.196260 0
M  V30 26 C -2.168496 -3.237808 -1.240977 0
M  V30 27 H 1.495622 -2.437756 4.310488 0
M  V30 28 H 3.030586 -1.644893 4.920325 0
M  V30 29 H 1.638161 -0.619722 4.460674 0
M  V30 30 H 3.945513 2.412044 1.057055 0
M  V30 31 H -0.795264 0.635384 -0.688403 0
M  V30 32 H -1.120109 2.887393 -2.424178 0
M  V30 33 H 2.101181 5.649149 -2.297796 0
M  V30 34 H 3.253379 4.224301 -0.611688 0
M  V30 35 H -0.413450 -0.914870 1.987474 0
M  V30 36 H -0.431669 -3.191771 3.076339 0
M  V30 37 H -2.415206 -4.329568 4.022482 0
M  V30 38 H -4.246485 -4.923401 2.417376 0
M  V30 39 H -2.089183 -2.164315 -1.447810 0
M  V30 40 H -1.375437 -3.850835 -1.756743 0
M  V30 41 H -3.132512 -3.565183 -1.710038 0
M  V30 END ATOM
M  V30 BEGIN BOND
M  V30 1 1 1 2
M  V30 2 1 2 3
M  V30 3 2 3 4
M  V30 4 1 4 5
M  V30 5 1 4 6
M  V30 6 2 6 7
M  V30 7 1 7 8
M  V30 8 1 8 9
M  V30 9 1 9 10
M  V30 10 2 10 11
M  V30 11 1 11 12
M  V30 12 2 12 13
M  V30 13 1 13 14
M  V30 14 2 14 15
M  V30 15 2 8 16
M  V30 16 1 16 17
M  V30 17 1 17 18
M  V30 18 2 18 19
M  V30 19 1 18 20
M  V30 20 2 20 21
M  V30 21 1 21 22
M  V30 22 2 22 23
M  V30 23 1 23 24
M  V30 24 2 24 25
M  V30 25 1 25 26
M  V30 26 1 16 3
M  V30 27 1 25 20
M  V30 28 1 15 7
M  V30 29 1 15 10
M  V30 30 1 1 27
M  V30 31 1 1 28
M  V30 32 1 1 29
M  V30 33 1 6 30
M  V30 34 1 9 31
M  V30 35 1 11 32
M  V30 36 1 13 33
M  V30 37 1 14 34
M  V30 38 1 17 35
M  V30 39 1 21 36
M  V30 40 1 22 37
M  V30 41 1 23 38
M  V30 42 1 26 39
M  V30 43 1 26 40
M  V30 44 1 26 41
M  V30 END BOND
M  V30 END CTAB
M  END
>  <Dataset>  (49) 
ChEMBL_Kinases

>  <Ligand_Instance>  (49) 
nan

>  <PDB_ID>  (49) 
nan

>  <Standardized_SMILES>  (49) 
COc1c(Cl)cc2c([nH]c3cnccc32)c1NC(=O)c1cccnc1C

>  <Name>  (49) 
nan

>  <Pocket>  (49) 
nan

>  <ATP_Site>  (49) 
nan

>  <Peripheral>  (49) 
nan

>  <Num_H_Atoms_ProtBoundConf>  (49) 
nan

>  <Num_Resolved_Atoms>  (49) 
nan

>  <Num_Not_Resolved_Atoms>  (49) 
nan

$$$$
CHEMBL491447
     RDKit          3D

  0  0  0  0  0  0  0  0  0  0999 V3000
M  V30 BEGIN CTAB
M  V30 COUNTS 48 52 0 0 0
M  V30 BEGIN ATOM
M  V30 1 C -3.059632 -0.870835 2.527142 0
M  V30 2 N -2.222585 -1.343011 1.466660 0
M  V30 3 C -1.521567 -0.563270 0.632734 0
M  V30 4 C -0.777060 -1.221849 -0.312312 0
M  V30 5 C 0.161538 -0.928901 -1.383237 0
M  V30 6 C 1.322446 -0.272410 -1.504525 0
M  V30 7 C 2.173251 0.457184 -0.576964 0
M  V30 8 C 3.516607 0.057221 -0.462846 0
M  V30 9 O 4.145217 0.814074 0.407834 0
M  V30 10 C 3.315671 1.705445 0.892488 0
M  V30 11 C 3.418157 2.726731 1.809791 0
M  V30 12 C 2.328574 3.523267 2.120356 0
M  V30 13 C 2.591241 4.570198 3.116245 0
M  V30 14 O 2.353437 4.127948 4.431288 0
M  V30 15 C 1.128227 3.274559 1.489487 0
M  V30 16 C 0.963144 2.256605 0.553606 0
M  V30 17 C 2.086888 1.513345 0.303668 0
M  V30 18 C 1.715031 -0.360274 -2.933357 0
M  V30 19 O 2.763841 0.135829 -3.472141 0
M  V30 20 N 0.772824 -1.084563 -3.698372 0
M  V30 21 C -0.205336 -1.443413 -2.728797 0
M  V30 22 O -1.212299 -2.116910 -3.103818 0
M  V30 23 C -1.077349 -2.559468 0.006265 0
M  V30 24 C -0.663169 -3.770924 -0.522108 0
M  V30 25 C -1.055695 -4.999019 -0.057090 0
M  V30 26 C -1.915218 -5.011720 1.002495 0
M  V30 27 C -2.361186 -3.815460 1.569646 0
M  V30 28 C -3.316751 -3.956153 2.693147 0
M  V30 29 O -4.637007 -3.797246 2.225400 0
M  V30 30 C -1.951376 -2.596975 1.082677 0
M  V30 31 H -4.103345 -1.239479 2.513856 0
M  V30 32 H -3.209519 0.246965 2.381305 0
M  V30 33 H -2.582645 -0.904035 3.538766 0
M  V30 34 H -1.521498 0.512982 0.666712 0
M  V30 35 H 4.110735 -0.723087 -0.935298 0
M  V30 36 H 4.410992 2.839555 2.251647 0
M  V30 37 H 1.841391 5.380356 2.937040 0
M  V30 38 H 3.609384 4.959472 3.102721 0
M  V30 39 H 2.613403 3.153760 4.433021 0
M  V30 40 H 0.310897 3.912161 1.755465 0
M  V30 41 H 0.048048 2.070359 0.053853 0
M  V30 42 H 0.808851 -1.287855 -4.709681 0
M  V30 43 H 0.026868 -3.805208 -1.364948 0
M  V30 44 H -0.703484 -5.917233 -0.502679 0
M  V30 45 H -2.244994 -5.983855 1.395179 0
M  V30 46 H -3.308726 -4.991055 3.111293 0
M  V30 47 H -3.185806 -3.198275 3.489942 0
M  V30 48 H -4.956389 -4.642745 1.801170 0
M  V30 END ATOM
M  V30 BEGIN BOND
M  V30 1 1 1 2
M  V30 2 1 2 3
M  V30 3 2 3 4
M  V30 4 1 4 5
M  V30 5 2 5 6
M  V30 6 1 6 7
M  V30 7 2 7 8
M  V30 8 1 8 9
M  V30 9 1 9 10
M  V30 10 2 10 11
M  V30 11 1 11 12
M  V30 12 1 12 13
M  V30 13 1 13 14
M  V30 14 2 12 15
M  V30 15 1 15 16
M  V30 16 2 16 17
M  V30 17 1 6 18
M  V30 18 2 18 19
M  V30 19 1 18 20
M  V30 20 1 20 21
M  V30 21 2 21 22
M  V30 22 1 4 23
M  V30 23 2 23 24
M  V30 24 1 24 25
M  V30 25 2 25 26
M  V30 26 1 26 27
M  V30 27 1 27 28
M  V30 28 1 28 29
M  V30 29 2 27 30
M  V30 30 1 30 2
M  V30 31 1 21 5
M  V30 32 1 30 23
M  V30 33 1 17 7
M  V30 34 1 17 10
M  V30 35 1 1 31
M  V30 36 1 1 32
M  V30 37 1 1 33
M  V30 38 1 3 34
M  V30 39 1 8 35
M  V30 40 1 11 36
M  V30 41 1 13 37
M  V30 42 1 13 38
M  V30 43 1 14 39
M  V30 44 1 15 40
M  V30 45 1 16 41
M  V30 46 1 20 42
M  V30 47 1 24 43
M  V30 48 1 25 44
M  V30 49 1 26 45
M  V30 50 1 28 46
M  V30 51 1 28 47
M  V30 52 1 29 48
M  V30 END BOND
M  V30 END CTAB
M  END
>  <Dataset>  (50) 
ChEMBL_Kinases

>  <Ligand_Instance>  (50) 
nan

>  <PDB_ID>  (50) 
nan

>  <Standardized_SMILES>  (50) 
Cn1cc(C2=C(c3coc4cc(CO)ccc34)C(=O)NC2=O)c2cccc(CO)c21

>  <Name>  (50) 
nan

>  <Pocket>  (50) 
nan

>  <ATP_Site>  (50) 
nan

>  <Peripheral>  (50) 
nan

>  <Num_H_Atoms_ProtBoundConf>  (50) 
nan

>  <Num_Resolved_Atoms>  (50) 
nan

>  <Num_Not_Resolved_Atoms>  (50) 
nan

$$$$
CHEMBL3914992
     RDKit          3D

  0  0  0  0  0  0  0  0  0  0999 V3000
M  V30 BEGIN CTAB
M  V30 COUNTS 66 69 0 0 0
M  V30 BEGIN ATOM
M  V30 1 C -1.298991 4.116998 3.223707 0
M  V30 2 C -1.290099 2.915320 2.304145 0
M  V30 3 C -0.440711 1.848318 2.950637 0
M  V30 4 C -2.700312 2.315540 2.214309 0
M  V30 5 O -0.869002 3.233775 1.001592 0
M  V30 6 C 0.380543 3.769148 0.754680 0
M  V30 7 O 1.152731 3.971380 1.748652 0
M  V30 8 N 1.057239 4.175193 -0.397789 0
M  V30 9 C 2.400029 4.713534 -0.113996 0
M  V30 10 C 2.592758 5.942049 -1.001915 0
M  V30 11 C 1.245291 6.586646 -1.179764 0
M  V30 12 C 0.441372 5.683773 -2.116715 0
M  V30 13 C 0.790984 4.221454 -1.801338 0
M  V30 14 C -0.288763 3.348487 -2.316138 0
M  V30 15 C -0.078613 1.890145 -2.105980 0
M  V30 16 O -1.188498 1.152426 -2.642862 0
M  V30 17 C -1.191140 -0.253853 -2.547505 0
M  V30 18 C -0.079936 -0.826375 -1.919482 0
M  V30 19 C -0.080388 -2.203988 -1.825342 0
M  V30 20 C -1.095279 -3.003549 -2.308201 0
M  V30 21 C -1.107267 -4.465866 -2.212946 0
M  V30 22 N -0.157003 -5.248903 -1.653312 0
M  V30 23 C -0.516043 -6.547742 -1.753190 0
M  V30 24 C 0.127478 -7.693200 -1.331165 0
M  V30 25 C -0.517853 -8.881935 -1.591224 0
M  V30 26 C -0.020455 -10.228655 -1.238391 0
M  V30 27 N 1.251456 -10.252815 -0.599255 0
M  V30 28 O -0.523871 -11.357124 -1.403245 0
M  V30 29 C -1.736833 -8.939041 -2.234969 0
M  V30 30 C -2.370501 -7.779429 -2.652766 0
M  V30 31 C -1.734731 -6.559138 -2.399935 0
M  V30 32 N -2.092477 -5.289099 -2.678945 0
M  V30 33 C -2.161266 -2.366495 -2.916674 0
M  V30 34 C -2.247310 -0.977191 -3.057508 0
M  V30 35 H -2.324945 4.259264 3.612612 0
M  V30 36 H -0.993272 5.055396 2.718146 0
M  V30 37 H -0.646422 3.962488 4.101910 0
M  V30 38 H -0.783522 1.800513 4.019875 0
M  V30 39 H -0.628272 0.858934 2.479281 0
M  V30 40 H 0.621452 2.077437 2.993952 0
M  V30 41 H -2.669417 1.462627 1.525227 0
M  V30 42 H -3.041356 2.053793 3.214827 0
M  V30 43 H -3.339393 3.100165 1.748221 0
M  V30 44 H 3.172905 3.971039 -0.332532 0
M  V30 45 H 2.504592 5.052868 0.921588 0
M  V30 46 H 3.259889 6.655324 -0.467589 0
M  V30 47 H 2.999195 5.636379 -1.975989 0
M  V30 48 H 0.760985 6.621996 -0.172120 0
M  V30 49 H 1.281929 7.582887 -1.651695 0
M  V30 50 H -0.620298 5.861007 -1.937482 0
M  V30 51 H 0.746686 5.945010 -3.149072 0
M  V30 52 H 1.727766 3.988842 -2.366731 0
M  V30 53 H -0.336618 3.507662 -3.421088 0
M  V30 54 H -1.299311 3.618613 -1.950931 0
M  V30 55 H -0.018865 1.671919 -1.029429 0
M  V30 56 H 0.868112 1.515742 -2.569857 0
M  V30 57 H 0.735791 -0.238159 -1.526469 0
M  V30 58 H 0.771807 -2.702539 -1.340477 0
M  V30 59 H 1.067861 -7.735809 -0.827977 0
M  V30 60 H 1.836437 -9.706701 0.078584 0
M  V30 61 H 2.123573 -10.819389 -0.540305 0
M  V30 62 H -2.290826 -9.838612 -2.467143 0
M  V30 63 H -3.324205 -7.749236 -3.162115 0
M  V30 64 H -2.979123 -5.003474 -3.170594 0
M  V30 65 H -3.009832 -2.932779 -3.327206 0
M  V30 66 H -3.088589 -0.495252 -3.536685 0
M  V30 END ATOM
M  V30 BEGIN BOND
M  V30 1 1 1 2
M  V30 2 1 2 3
M  V30 3 1 2 4
M  V30 4 1 2 5
M  V30 5 1 5 6
M  V30 6 2 6 7
M  V30 7 1 6 8
M  V30 8 1 8 9
M  V30 9 1 9 10
M  V30 10 1 10 11
M  V30 11 1 11 12
M  V30 12 1 12 13
M  V30 13 1 13 14
M  V30 14 1 14 15
M  V30 15 1 15 16
M  V30 16 1 16 17
M  V30 17 2 17 18
M  V30 18 1 18 19
M  V30 19 2 19 20
M  V30 20 1 20 21
M  V30 21 2 21 22
M  V30 22 1 22 23
M  V30 23 2 23 24
M  V30 24 1 24 25
M  V30 25 1 25 26
M  V30 26 1 26 27
M  V30 27 2 26 28
M  V30 28 2 25 29
M  V30 29 1 29 30
M  V30 30 2 30 31
M  V30 31 1 31 32
M  V30 32 1 20 33
M  V30 33 2 33 34
M  V30 34 1 13 8
M  V30 35 1 34 17
M  V30 36 1 32 21
M  V30 37 1 31 23
M  V30 38 1 1 35
M  V30 39 1 1 36
M  V30 40 1 1 37
M  V30 41 1 3 38
M  V30 42 1 3 39
M  V30 43 1 3 40
M  V30 44 1 4 41
M  V30 45 1 4 42
M  V30 46 1 4 43
M  V30 47 1 9 44
M  V30 48 1 9 45
M  V30 49 1 10 46
M  V30 50 1 10 47
M  V30 51 1 11 48
M  V30 52 1 11 49
M  V30 53 1 12 50
M  V30 54 1 12 51
M  V30 55 1 13 52
M  V30 56 1 14 53
M  V30 57 1 14 54
M  V30 58 1 15 55
M  V30 59 1 15 56
M  V30 60 1 18 57
M  V30 61 1 19 58
M  V30 62 1 24 59
M  V30 63 1 27 60
M  V30 64 1 27 61
M  V30 65 1 29 62
M  V30 66 1 30 63
M  V30 67 1 32 64
M  V30 68 1 33 65
M  V30 69 1 34 66
M  V30 END BOND
M  V30 END CTAB
M  END
>  <Dataset>  (51) 
ChEMBL_Kinases

>  <Ligand_Instance>  (51) 
nan

>  <PDB_ID>  (51) 
nan

>  <Standardized_SMILES>  (51) 
CC(C)(C)OC(=O)N1CCCCC1CCOc1ccc(-c2nc3cc(C(N)=O)ccc3[nH]2)cc1

>  <Name>  (51) 
nan

>  <Pocket>  (51) 
nan

>  <ATP_Site>  (51) 
nan

>  <Peripheral>  (51) 
nan

>  <Num_H_Atoms_ProtBoundConf>  (51) 
nan

>  <Num_Resolved_Atoms>  (51) 
nan

>  <Num_Not_Resolved_Atoms>  (51) 
nan

$$$$
CHEMBL3884113
     RDKit          3D

  0  0  0  0  0  0  0  0  0  0999 V3000
M  V30 BEGIN CTAB
M  V30 COUNTS 30 33 0 0 0
M  V30 BEGIN ATOM
M  V30 1 N -2.626067 -2.011730 2.149770 0
M  V30 2 C -1.308923 -2.007277 1.629067 0
M  V30 3 N -0.596846 -3.152568 1.573475 0
M  V30 4 C 0.654101 -3.143990 1.078108 0
M  V30 5 C 1.290079 -4.380407 1.070475 0
M  V30 6 C 2.590889 -4.391401 0.559272 0
M  V30 7 C 3.234678 -3.244460 0.079450 0
M  V30 8 C 2.561393 -2.040278 0.108152 0
M  V30 9 C 1.280194 -2.007850 0.607400 0
M  V30 10 C 0.593914 -0.819721 0.644378 0
M  V30 11 C 1.172899 0.326892 0.190159 0
M  V30 12 C 0.432966 1.513300 0.248610 0
M  V30 13 C 0.971802 2.724468 -0.202466 0
M  V30 14 N 0.219754 3.862053 -0.129617 0
M  V30 15 C -1.022426 3.773533 0.378033 0
M  V30 16 C -1.610526 2.614170 0.838351 0
M  V30 17 C -0.861153 1.457487 0.770313 0
M  V30 18 C -1.432143 0.287126 1.226052 0
M  V30 19 C -0.683622 -0.873778 1.159191 0
M  V30 20 H -3.324025 -2.763820 1.930767 0
M  V30 21 H -3.060600 -1.305165 2.788957 0
M  V30 22 H 0.838653 -5.280649 1.425820 0
M  V30 23 H 3.106473 -5.347475 0.543969 0
M  V30 24 H 4.240822 -3.355153 -0.295840 0
M  V30 25 H 3.120789 -1.231387 -0.271834 0
M  V30 26 H 2.130392 0.439045 -0.209792 0
M  V30 27 H 1.968656 2.740151 -0.598956 0
M  V30 28 H -1.619818 4.686528 0.434072 0
M  V30 29 H -2.621035 2.621176 1.235765 0
M  V30 30 H -2.438391 0.294035 1.621802 0
M  V30 END ATOM
M  V30 BEGIN BOND
M  V30 1 1 1 2
M  V30 2 2 2 3
M  V30 3 1 3 4
M  V30 4 2 4 5
M  V30 5 1 5 6
M  V30 6 2 6 7
M  V30 7 1 7 8
M  V30 8 2 8 9
M  V30 9 1 9 10
M  V30 10 2 10 11
M  V30 11 1 11 12
M  V30 12 2 12 13
M  V30 13 1 13 14
M  V30 14 2 14 15
M  V30 15 1 15 16
M  V30 16 2 16 17
M  V30 17 1 17 18
M  V30 18 2 18 19
M  V30 19 1 19 2
M  V30 20 1 9 4
M  V30 21 1 19 10
M  V30 22 1 17 12
M  V30 23 1 1 20
M  V30 24 1 1 21
M  V30 25 1 5 22
M  V30 26 1 6 23
M  V30 27 1 7 24
M  V30 28 1 8 25
M  V30 29 1 11 26
M  V30 30 1 13 27
M  V30 31 1 15 28
M  V30 32 1 16 29
M  V30 33 1 18 30
M  V30 END BOND
M  V30 END CTAB
M  END
>  <Dataset>  (52) 
ChEMBL_Kinases

>  <Ligand_Instance>  (52) 
nan

>  <PDB_ID>  (52) 
nan

>  <Standardized_SMILES>  (52) 
Nc1nc2ccccc2c2cc3cnccc3cc12

>  <Name>  (52) 
nan

>  <Pocket>  (52) 
nan

>  <ATP_Site>  (52) 
nan

>  <Peripheral>  (52) 
nan

>  <Num_H_Atoms_ProtBoundConf>  (52) 
nan

>  <Num_Resolved_Atoms>  (52) 
nan

>  <Num_Not_Resolved_Atoms>  (52) 
nan

$$$$
CHEMBL3914339
     RDKit          3D

  0  0  0  0  0  0  0  0  0  0999 V3000
M  V30 BEGIN CTAB
M  V30 COUNTS 56 59 0 0 0
M  V30 BEGIN ATOM
M  V30 1 C 3.603007 -3.772841 1.978712 0
M  V30 2 C 2.744754 -2.532590 2.062043 0 CFG=1
M  V30 3 C 3.184735 -1.615648 3.177829 0
M  V30 4 N 4.359449 -0.854319 2.888213 0
M  V30 5 C 4.391168 0.287464 3.788496 0
M  V30 6 C 4.393971 -0.336306 1.545681 0
M  V30 7 C 4.044039 -1.373677 0.510262 0
M  V30 8 N 2.693164 -1.818943 0.803997 0
M  V30 9 C 1.478436 -1.666487 0.112551 0
M  V30 10 O 0.448805 -2.175888 0.626187 0
M  V30 11 N 0.510401 -1.307462 -0.847239 0
M  V30 12 C -0.901084 -1.609334 -0.817611 0
M  V30 13 C -1.436690 -0.297959 -1.344567 0
M  V30 14 C -2.513808 0.561342 -1.397653 0
M  V30 15 N -3.779128 0.372260 -0.784656 0
M  V30 16 C -4.270077 0.731473 0.485002 0
M  V30 17 O -3.463433 1.330820 1.238636 0
M  V30 18 C -5.646552 0.385247 0.813131 0
M  V30 19 C -6.131885 0.736492 2.055857 0
M  V30 20 C -7.445128 0.419335 2.398729 0
M  V30 21 C -8.251742 -0.250055 1.479036 0
M  V30 22 C -7.721907 -0.581250 0.247037 0
M  V30 23 N -6.450642 -0.260116 -0.051490 0
M  V30 24 N -2.186370 1.638486 -2.137972 0
M  V30 25 N -0.934401 1.503369 -2.564336 0
M  V30 26 C -0.464513 0.333942 -2.091977 0
M  V30 27 C 0.736150 -0.555893 -2.071309 0
M  V30 28 C 0.690672 -1.514240 -3.256242 0
M  V30 29 C 2.001519 0.257311 -2.046870 0
M  V30 30 H 4.649070 -3.536447 2.291078 0
M  V30 31 H 3.629288 -4.224497 0.985801 0
M  V30 32 H 3.248042 -4.509434 2.742111 0
M  V30 33 H 1.719957 -2.862610 2.327905 0
M  V30 34 H 2.336419 -0.954462 3.487117 0
M  V30 35 H 3.395640 -2.249536 4.063257 0
M  V30 36 H 3.730340 1.065246 3.324214 0
M  V30 37 H 3.929309 0.066534 4.770523 0
M  V30 38 H 5.415723 0.703894 3.884405 0
M  V30 39 H 5.448203 -0.024585 1.342657 0
M  V30 40 H 3.787402 0.567723 1.415161 0
M  V30 41 H 4.762482 -2.216515 0.540245 0
M  V30 42 H 4.146424 -0.883938 -0.472714 0
M  V30 43 H -1.161990 -2.375656 -1.584108 0
M  V30 44 H -1.324248 -1.844504 0.153271 0
M  V30 45 H -4.386300 -0.127298 -1.468908 0
M  V30 46 H -5.540824 1.254668 2.796793 0
M  V30 47 H -7.862143 0.677828 3.362130 0
M  V30 48 H -9.271630 -0.504085 1.724618 0
M  V30 49 H -8.284164 -1.099354 -0.517494 0
M  V30 50 H -0.438332 2.205009 -3.160245 0
M  V30 51 H -0.363129 -1.701608 -3.568008 0
M  V30 52 H 1.143400 -2.478862 -2.965954 0
M  V30 53 H 1.214923 -1.116177 -4.127205 0
M  V30 54 H 2.218552 0.458760 -0.967407 0
M  V30 55 H 1.930585 1.186509 -2.631731 0
M  V30 56 H 2.867596 -0.316998 -2.424148 0
M  V30 END ATOM
M  V30 BEGIN BOND
M  V30 1 1 1 2
M  V30 2 1 2 3
M  V30 3 1 3 4
M  V30 4 1 4 5
M  V30 5 1 4 6
M  V30 6 1 6 7
M  V30 7 1 7 8
M  V30 8 1 8 9
M  V30 9 2 9 10
M  V30 10 1 9 11
M  V30 11 1 11 12
M  V30 12 1 12 13
M  V30 13 1 13 14
M  V30 14 1 14 15
M  V30 15 1 15 16
M  V30 16 2 16 17
M  V30 17 1 16 18
M  V30 18 2 18 19
M  V30 19 1 19 20
M  V30 20 2 20 21
M  V30 21 1 21 22
M  V30 22 2 22 23
M  V30 23 2 14 24
M  V30 24 1 24 25
M  V30 25 1 25 26
M  V30 26 1 26 27
M  V30 27 1 27 28
M  V30 28 1 27 29
M  V30 29 1 8 2
M  V30 30 1 27 11
M  V30 31 2 26 13
M  V30 32 1 23 18
M  V30 33 1 1 30
M  V30 34 1 1 31
M  V30 35 1 1 32
M  V30 36 1 2 33 CFG=1
M  V30 37 1 3 34
M  V30 38 1 3 35
M  V30 39 1 5 36
M  V30 40 1 5 37
M  V30 41 1 5 38
M  V30 42 1 6 39
M  V30 43 1 6 40
M  V30 44 1 7 41
M  V30 45 1 7 42
M  V30 46 1 12 43
M  V30 47 1 12 44
M  V30 48 1 15 45
M  V30 49 1 19 46
M  V30 50 1 20 47
M  V30 51 1 21 48
M  V30 52 1 22 49
M  V30 53 1 25 50
M  V30 54 1 28 51
M  V30 55 1 28 52
M  V30 56 1 28 53
M  V30 57 1 29 54
M  V30 58 1 29 55
M  V30 59 1 29 56
M  V30 END BOND
M  V30 END CTAB
M  END
>  <Dataset>  (53) 
ChEMBL_Kinases

>  <Ligand_Instance>  (53) 
nan

>  <PDB_ID>  (53) 
nan

>  <Standardized_SMILES>  (53) 
C[C@H]1CN(C)CCN1C(=O)N1Cc2c(NC(=O)c3ccccn3)n[nH]c2C1(C)C

>  <Name>  (53) 
nan

>  <Pocket>  (53) 
nan

>  <ATP_Site>  (53) 
nan

>  <Peripheral>  (53) 
nan

>  <Num_H_Atoms_ProtBoundConf>  (53) 
nan

>  <Num_Resolved_Atoms>  (53) 
nan

>  <Num_Not_Resolved_Atoms>  (53) 
nan

$$$$
CHEMBL491136
     RDKit          3D

  0  0  0  0  0  0  0  0  0  0999 V3000
M  V30 BEGIN CTAB
M  V30 COUNTS 56 60 0 0 0
M  V30 BEGIN ATOM
M  V30 1 C 1.829788 -0.499035 7.141386 0
M  V30 2 N 2.221412 -0.314543 5.784142 0
M  V30 3 C 3.487912 -0.821479 5.432675 0
M  V30 4 C 3.786214 -1.029237 4.012034 0
M  V30 5 C 2.708371 -0.682146 3.039632 0
M  V30 6 C 3.035234 -1.231284 1.693808 0
M  V30 7 C 2.004354 -0.926075 0.671037 0
M  V30 8 C 2.029954 0.220902 -0.115689 0
M  V30 9 C 1.043106 0.455008 -1.055933 0
M  V30 10 C -0.005761 -0.434771 -1.254175 0
M  V30 11 C -1.113684 -0.469629 -2.101611 0
M  V30 12 C -1.338181 0.619442 -3.045752 0
M  V30 13 C -1.327281 0.649142 -4.421090 0
M  V30 14 C -1.580418 1.834519 -5.073210 0
M  V30 15 N -1.838935 2.968489 -4.381697 0
M  V30 16 C -1.862103 2.996506 -3.034078 0
M  V30 17 C -1.610955 1.819285 -2.373853 0
M  V30 18 C -1.773947 -1.641618 -1.796888 0
M  V30 19 C -2.997870 -2.034332 -2.487158 0
M  V30 20 C -3.186844 -2.373467 -3.809802 0
M  V30 21 C -4.438524 -2.716214 -4.275568 0
M  V30 22 C -5.526490 -2.726529 -3.427320 0
M  V30 23 F -6.677038 -3.081165 -4.030282 0
M  V30 24 C -5.368013 -2.392721 -2.102953 0
M  V30 25 C -4.119974 -2.053611 -1.649686 0
M  V30 26 N -1.091329 -2.276168 -0.812944 0
M  V30 27 C 0.000302 -1.564995 -0.454335 0
M  V30 28 C 0.961660 -1.840055 0.494549 0
M  V30 29 C 1.427325 -1.184140 3.625361 0
M  V30 30 C 1.184412 -0.276067 4.837086 0
M  V30 31 H 1.069588 0.291257 7.377085 0
M  V30 32 H 1.340735 -1.462972 7.326322 0
M  V30 33 H 2.697190 -0.295920 7.810239 0
M  V30 34 H 4.281459 -0.187739 5.906671 0
M  V30 35 H 3.601064 -1.807212 5.974768 0
M  V30 36 H 4.690385 -0.427841 3.701302 0
M  V30 37 H 4.085991 -2.087717 3.792568 0
M  V30 38 H 2.591577 0.423494 2.920289 0
M  V30 39 H 3.110331 -2.328633 1.773677 0
M  V30 40 H 4.031644 -0.877067 1.389808 0
M  V30 41 H 2.848027 0.874522 0.067981 0
M  V30 42 H 1.088608 1.362174 -1.659183 0
M  V30 43 H -1.106690 -0.318343 -4.837620 0
M  V30 44 H -1.547146 1.749310 -6.150446 0
M  V30 45 H -2.074615 3.932917 -2.552056 0
M  V30 46 H -1.652086 1.943966 -1.279069 0
M  V30 47 H -2.291191 -2.339795 -4.389548 0
M  V30 48 H -4.427234 -2.956908 -5.334092 0
M  V30 49 H -6.258996 -2.420301 -1.490857 0
M  V30 50 H -4.080237 -1.800816 -0.583358 0
M  V30 51 H -1.459864 -3.191300 -0.459103 0
M  V30 52 H 0.889976 -2.748044 1.076917 0
M  V30 53 H 0.573312 -1.158957 2.953049 0
M  V30 54 H 1.481559 -2.204809 4.052113 0
M  V30 55 H 1.066525 0.745790 4.383927 0
M  V30 56 H 0.210894 -0.508931 5.323775 0
M  V30 END ATOM
M  V30 BEGIN BOND
M  V30 1 1 1 2
M  V30 2 1 2 3
M  V30 3 1 3 4
M  V30 4 1 4 5
M  V30 5 1 5 6
M  V30 6 1 6 7
M  V30 7 2 7 8
M  V30 8 1 8 9
M  V30 9 2 9 10
M  V30 10 1 10 11
M  V30 11 1 11 12
M  V30 12 2 12 13
M  V30 13 1 13 14
M  V30 14 2 14 15
M  V30 15 1 15 16
M  V30 16 2 16 17
M  V30 17 2 11 18
M  V30 18 1 18 19
M  V30 19 2 19 20
M  V30 20 1 20 21
M  V30 21 2 21 22
M  V30 22 1 22 23
M  V30 23 1 22 24
M  V30 24 2 24 25
M  V30 25 1 18 26
M  V30 26 1 26 27
M  V30 27 2 27 28
M  V30 28 1 5 29
M  V30 29 1 29 30
M  V30 30 1 30 2
M  V30 31 1 28 7
M  V30 32 1 27 10
M  V30 33 1 17 12
M  V30 34 1 25 19
M  V30 35 1 1 31
M  V30 36 1 1 32
M  V30 37 1 1 33
M  V30 38 1 3 34
M  V30 39 1 3 35
M  V30 40 1 4 36
M  V30 41 1 4 37
M  V30 42 1 5 38
M  V30 43 1 6 39
M  V30 44 1 6 40
M  V30 45 1 8 41
M  V30 46 1 9 42
M  V30 47 1 13 43
M  V30 48 1 14 44
M  V30 49 1 16 45
M  V30 50 1 17 46
M  V30 51 1 20 47
M  V30 52 1 21 48
M  V30 53 1 24 49
M  V30 54 1 25 50
M  V30 55 1 26 51
M  V30 56 1 28 52
M  V30 57 1 29 53
M  V30 58 1 29 54
M  V30 59 1 30 55
M  V30 60 1 30 56
M  V30 END BOND
M  V30 END CTAB
M  END
>  <Dataset>  (54) 
ChEMBL_Kinases

>  <Ligand_Instance>  (54) 
nan

>  <PDB_ID>  (54) 
nan

>  <Standardized_SMILES>  (54) 
CN1CCC(Cc2ccc3c(-c4ccncc4)c(-c4ccc(F)cc4)[nH]c3c2)CC1

>  <Name>  (54) 
nan

>  <Pocket>  (54) 
nan

>  <ATP_Site>  (54) 
nan

>  <Peripheral>  (54) 
nan

>  <Num_H_Atoms_ProtBoundConf>  (54) 
nan

>  <Num_Resolved_Atoms>  (54) 
nan

>  <Num_Not_Resolved_Atoms>  (54) 
nan

$$$$
CHEMBL3914342
     RDKit          3D

  0  0  0  0  0  0  0  0  0  0999 V3000
M  V30 BEGIN CTAB
M  V30 COUNTS 62 63 0 0 0
M  V30 BEGIN ATOM
M  V30 1 C 1.770357 -1.739889 4.997131 0
M  V30 2 C 1.199407 -0.365388 4.423645 0 CFG=2
M  V30 3 C 1.799084 0.629582 5.240845 0
M  V30 4 C 2.433024 1.555366 4.478358 0
M  V30 5 C 2.683379 1.868011 3.084378 0
M  V30 6 O 3.469603 2.815885 2.834420 0
M  V30 7 C 2.192552 1.306761 1.804544 0 CFG=1
M  V30 8 O 0.786813 1.339619 1.786580 0
M  V30 9 C 2.615841 2.029617 0.557685 0 CFG=1
M  V30 10 O 3.946671 1.941907 0.310086 0
M  V30 11 C 1.742799 1.498531 -0.536595 0
M  V30 12 C 1.586503 0.006395 -0.364942 0
M  V30 13 C 0.450738 -0.650143 -0.302163 0
M  V30 14 C -0.670613 -1.578333 -0.206935 0
M  V30 15 C -0.887321 -2.271412 -1.404768 0
M  V30 16 C -1.894335 -3.194885 -1.593165 0
M  V30 17 N -2.144883 -3.895074 -2.768712 0
M  V30 18 C -1.365356 -3.675185 -3.968391 0
M  V30 19 C -1.634754 -2.344516 -4.526658 0
M  V30 20 O -2.479418 -2.071808 -3.638391 0
M  V30 21 N -2.197813 -1.067245 -4.676803 0
M  V30 22 C -3.163690 -0.233775 -4.013218 0
M  V30 23 C -1.707206 -0.312986 -5.820163 0
M  V30 24 C -2.658283 -3.356128 -0.481021 0
M  V30 25 C -2.483492 -2.698349 0.710395 0
M  V30 26 O -3.165574 -2.739941 1.915548 0
M  V30 27 C -1.488243 -1.787832 0.902532 0
M  V30 28 C -1.238835 -1.090701 2.130685 0
M  V30 29 O -1.948047 -0.144785 1.731781 0
M  V30 30 O -0.460670 -1.505379 3.200956 0
M  V30 31 C -0.266343 -0.605810 4.330434 0 CFG=1
M  V30 32 C -0.909758 -1.233029 5.522302 0
M  V30 33 H 1.461324 -1.766043 6.059709 0
M  V30 34 H 1.309682 -2.569894 4.475823 0
M  V30 35 H 2.871956 -1.686936 4.917554 0
M  V30 36 H 1.672756 -0.467655 3.386356 0
M  V30 37 H 1.780889 0.683994 6.301528 0
M  V30 38 H 2.889969 2.286948 5.166633 0
M  V30 39 H 2.633739 0.301575 1.683988 0
M  V30 40 H 0.542368 2.278871 1.646850 0
M  V30 41 H 2.331373 3.148110 0.677370 0
M  V30 42 H 4.185105 1.135845 -0.217307 0
M  V30 43 H 0.744194 1.957277 -0.411367 0
M  V30 44 H 2.150637 1.719720 -1.550840 0
M  V30 45 H 2.563306 -0.501828 -0.294261 0
M  V30 46 H -0.331807 0.110986 -0.469775 0
M  V30 47 H -0.205364 -2.024873 -2.194691 0
M  V30 48 H -2.909843 -4.597478 -2.796438 0
M  V30 49 H -1.525060 -4.480163 -4.717690 0
M  V30 50 H -0.294818 -3.719769 -3.671609 0
M  V30 51 H -3.579217 -0.643276 -3.086832 0
M  V30 52 H -4.026617 0.017516 -4.677955 0
M  V30 53 H -2.721191 0.772835 -3.760146 0
M  V30 54 H -0.932218 -0.825492 -6.398173 0
M  V30 55 H -1.213971 0.610859 -5.408949 0
M  V30 56 H -2.529755 0.073069 -6.463075 0
M  V30 57 H -3.492158 -4.031180 -0.426477 0
M  V30 58 H -2.792706 -3.197625 2.739599 0
M  V30 59 H -0.789708 0.324150 4.089927 0
M  V30 60 H -0.966990 -2.355177 5.437239 0
M  V30 61 H -2.000888 -0.933578 5.505866 0
M  V30 62 H -0.538304 -0.872104 6.480476 0
M  V30 END ATOM
M  V30 BEGIN BOND
M  V30 1 1 1 2
M  V30 2 1 2 3
M  V30 3 2 3 4
M  V30 4 1 4 5
M  V30 5 2 5 6
M  V30 6 1 5 7
M  V30 7 1 7 8
M  V30 8 1 7 9
M  V30 9 1 9 10
M  V30 10 1 9 11
M  V30 11 1 11 12
M  V30 12 2 12 13
M  V30 13 1 13 14
M  V30 14 2 14 15
M  V30 15 1 15 16
M  V30 16 1 16 17
M  V30 17 1 17 18
M  V30 18 1 18 19
M  V30 19 2 19 20
M  V30 20 1 19 21
M  V30 21 1 21 22
M  V30 22 1 21 23
M  V30 23 2 16 24
M  V30 24 1 24 25
M  V30 25 1 25 26
M  V30 26 2 25 27
M  V30 27 1 27 28
M  V30 28 2 28 29
M  V30 29 1 28 30
M  V30 30 1 30 31
M  V30 31 1 31 32
M  V30 32 1 31 2
M  V30 33 1 27 14
M  V30 34 1 1 33
M  V30 35 1 1 34
M  V30 36 1 1 35
M  V30 37 1 2 36 CFG=3
M  V30 38 1 3 37
M  V30 39 1 4 38
M  V30 40 1 7 39 CFG=3
M  V30 41 1 8 40
M  V30 42 1 9 41 CFG=1
M  V30 43 1 10 42
M  V30 44 1 11 43
M  V30 45 1 11 44
M  V30 46 1 12 45
M  V30 47 1 13 46
M  V30 48 1 15 47
M  V30 49 1 17 48
M  V30 50 1 18 49
M  V30 51 1 18 50
M  V30 52 1 22 51
M  V30 53 1 22 52
M  V30 54 1 22 53
M  V30 55 1 23 54
M  V30 56 1 23 55
M  V30 57 1 23 56
M  V30 58 1 24 57
M  V30 59 1 26 58
M  V30 60 1 31 59 CFG=3
M  V30 61 1 32 60
M  V30 62 1 32 61
M  V30 63 1 32 62
M  V30 END BOND
M  V30 END CTAB
M  END
>  <Dataset>  (55) 
ChEMBL_Kinases

>  <Ligand_Instance>  (55) 
nan

>  <PDB_ID>  (55) 
nan

>  <Standardized_SMILES>  (55) 
C[C@@H]1/C=C\C(=O)[C@@H](O)[C@@H](O)C/C=C/c2cc(NCC(=O)N(C)C)cc(O)c2C(=O)O[C@H]1C

>  <Name>  (55) 
nan

>  <Pocket>  (55) 
nan

>  <ATP_Site>  (55) 
nan

>  <Peripheral>  (55) 
nan

>  <Num_H_Atoms_ProtBoundConf>  (55) 
nan

>  <Num_Resolved_Atoms>  (55) 
nan

>  <Num_Not_Resolved_Atoms>  (55) 
nan

$$$$
CHEMBL3914427
     RDKit          3D

  0  0  0  0  0  0  0  0  0  0999 V3000
M  V30 BEGIN CTAB
M  V30 COUNTS 43 47 0 0 0
M  V30 BEGIN ATOM
M  V30 1 O 4.357810 -0.036034 0.931447 0
M  V30 2 C 3.352344 -0.727069 0.617420 0
M  V30 3 N 3.683362 -1.933345 -0.077757 0
M  V30 4 C 5.059782 -2.201058 -0.323847 0
M  V30 5 C 5.446963 -1.655241 -1.550832 0
M  V30 6 C 6.759803 -1.794878 -2.001230 0
M  V30 7 C 7.689615 -2.482316 -1.223191 0
M  V30 8 O 9.014395 -2.642814 -1.641166 0
M  V30 9 C 7.274991 -3.009097 -0.016832 0
M  V30 10 C 5.980424 -2.880924 0.445039 0
M  V30 11 C 1.962214 -0.386607 0.905011 0
M  V30 12 C 0.833657 -1.111106 0.580912 0
M  V30 13 C -0.415415 -0.645125 0.928534 0
M  V30 14 C -0.627666 0.533852 1.600313 0
M  V30 15 C -1.779563 1.150748 2.025177 0
M  V30 16 C -3.179042 0.791665 1.923764 0
M  V30 17 N -4.136209 1.583308 2.432264 0
M  V30 18 C -5.356115 1.073801 2.234392 0
M  V30 19 C -6.613469 1.534999 2.579953 0
M  V30 20 C -7.693150 0.739976 2.213135 0
M  V30 21 Cl -9.276730 1.342988 2.660693 0
M  V30 22 C -7.534032 -0.447852 1.540166 0
M  V30 23 Cl -8.921897 -1.415476 1.098911 0
M  V30 24 C -6.269945 -0.903777 1.197068 0
M  V30 25 C -5.204307 -0.111263 1.563477 0
M  V30 26 N -3.876603 -0.221174 1.408663 0
M  V30 27 N -1.290398 2.273649 2.616284 0
M  V30 28 N 0.022260 2.321407 2.550379 0
M  V30 29 C 0.511819 1.242491 1.914801 0
M  V30 30 C 1.776001 0.803010 1.580876 0
M  V30 31 H 2.940257 -2.594972 -0.393900 0
M  V30 32 H 4.827178 -1.100886 -2.248636 0
M  V30 33 H 7.109979 -1.390961 -2.943688 0
M  V30 34 H 9.321435 -2.143792 -2.470899 0
M  V30 35 H 7.948191 -3.559940 0.645496 0
M  V30 36 H 5.562198 -3.247125 1.354027 0
M  V30 37 H 1.024148 -2.034363 0.053121 0
M  V30 38 H -1.239869 -1.263732 0.641998 0
M  V30 39 H -6.716351 2.474684 3.110717 0
M  V30 40 H -6.072095 -1.826621 0.668995 0
M  V30 41 H -3.464322 -1.031862 0.927958 0
M  V30 42 H 0.565886 3.114996 2.954190 0
M  V30 43 H 2.617433 1.438455 1.875587 0
M  V30 END ATOM
M  V30 BEGIN BOND
M  V30 1 2 1 2
M  V30 2 1 2 3
M  V30 3 1 3 4
M  V30 4 2 4 5
M  V30 5 1 5 6
M  V30 6 2 6 7
M  V30 7 1 7 8
M  V30 8 1 7 9
M  V30 9 2 9 10
M  V30 10 1 2 11
M  V30 11 2 11 12
M  V30 12 1 12 13
M  V30 13 2 13 14
M  V30 14 1 14 15
M  V30 15 1 15 16
M  V30 16 2 16 17
M  V30 17 1 17 18
M  V30 18 2 18 19
M  V30 19 1 19 20
M  V30 20 1 20 21
M  V30 21 2 20 22
M  V30 22 1 22 23
M  V30 23 1 22 24
M  V30 24 2 24 25
M  V30 25 1 25 26
M  V30 26 2 15 27
M  V30 27 1 27 28
M  V30 28 1 28 29
M  V30 29 2 29 30
M  V30 30 1 10 4
M  V30 31 1 30 11
M  V30 32 1 29 14
M  V30 33 1 26 16
M  V30 34 1 25 18
M  V30 35 1 3 31
M  V30 36 1 5 32
M  V30 37 1 6 33
M  V30 38 1 8 34
M  V30 39 1 9 35
M  V30 40 1 10 36
M  V30 41 1 12 37
M  V30 42 1 13 38
M  V30 43 1 19 39
M  V30 44 1 24 40
M  V30 45 1 26 41
M  V30 46 1 28 42
M  V30 47 1 30 43
M  V30 END BOND
M  V30 END CTAB
M  END
>  <Dataset>  (56) 
ChEMBL_Kinases

>  <Ligand_Instance>  (56) 
nan

>  <PDB_ID>  (56) 
nan

>  <Standardized_SMILES>  (56) 
O=C(Nc1ccc(O)cc1)c1ccc2c(-c3nc4cc(Cl)c(Cl)cc4[nH]3)n[nH]c2c1

>  <Name>  (56) 
nan

>  <Pocket>  (56) 
nan

>  <ATP_Site>  (56) 
nan

>  <Peripheral>  (56) 
nan

>  <Num_H_Atoms_ProtBoundConf>  (56) 
nan

>  <Num_Resolved_Atoms>  (56) 
nan

>  <Num_Not_Resolved_Atoms>  (56) 
nan

$$$$
CHEMBL598324
     RDKit          3D

  0  0  0  0  0  0  0  0  0  0999 V3000
M  V30 BEGIN CTAB
M  V30 COUNTS 54 59 0 0 0
M  V30 BEGIN ATOM
M  V30 1 N -1.720776 -3.262365 4.889248 0
M  V30 2 C -0.875072 -2.595389 3.960503 0
M  V30 3 N 0.307306 -1.963497 4.098885 0
M  V30 4 N 0.719373 -1.490714 2.940299 0
M  V30 5 C 1.923417 -0.764719 2.687078 0
M  V30 6 C 3.139277 -0.982915 3.315283 0
M  V30 7 C 4.226535 -0.205938 2.973780 0
M  V30 8 C 4.157401 0.791066 2.023186 0
M  V30 9 C 2.955591 1.050226 1.361842 0
M  V30 10 C 2.771051 2.079808 0.340573 0
M  V30 11 C 1.505358 2.660302 0.267765 0
M  V30 12 C 1.257381 3.652384 -0.685982 0
M  V30 13 C 2.297001 4.023297 -1.532894 0
M  V30 14 C 3.544697 3.445450 -1.455104 0
M  V30 15 C 3.776030 2.475792 -0.518149 0
M  V30 16 N 4.352126 4.050714 -2.451919 0
M  V30 17 C 3.619007 5.032584 -3.184556 0
M  V30 18 O 3.891742 5.802214 -4.125434 0
M  V30 19 C 2.247383 5.057566 -2.617832 0
M  V30 20 C 1.893044 0.248615 1.734887 0
M  V30 21 C -0.207061 -1.809963 1.991527 0
M  V30 22 C -1.221515 -2.514577 2.649054 0
M  V30 23 C -2.355934 -2.978893 1.837547 0
M  V30 24 C -3.660196 -2.821429 2.281448 0
M  V30 25 C -4.713484 -3.270947 1.491276 0
M  V30 26 C -4.468909 -3.865724 0.282106 0
M  V30 27 C -3.188774 -4.043132 -0.199087 0
M  V30 28 C -2.140002 -3.587882 0.602970 0
M  V30 29 C -2.788571 -4.669956 -1.486743 0
M  V30 30 C -3.915083 -4.499886 -2.492408 0
M  V30 31 N -5.132812 -4.966711 -1.846001 0
M  V30 32 C -5.508950 -4.366916 -0.613004 0
M  V30 33 O -6.716926 -4.249785 -0.258890 0
M  V30 34 H -2.651169 -2.934179 5.263202 0
M  V30 35 H -1.573555 -4.195785 5.367742 0
M  V30 36 H 3.169590 -1.769931 4.057172 0
M  V30 37 H 5.185534 -0.376454 3.467811 0
M  V30 38 H 5.001348 1.404536 1.748503 0
M  V30 39 H 0.649682 2.425857 0.889056 0
M  V30 40 H 0.278187 4.124392 -0.766885 0
M  V30 41 H 4.750831 2.012829 -0.444916 0
M  V30 42 H 5.354852 3.849961 -2.671183 0
M  V30 43 H 1.995713 6.048770 -2.232364 0
M  V30 44 H 1.523306 4.777989 -3.420851 0
M  V30 45 H 0.949876 0.436992 1.229752 0
M  V30 46 H -0.096249 -1.528487 0.942400 0
M  V30 47 H -3.856954 -2.351840 3.236252 0
M  V30 48 H -5.750072 -3.168005 1.799863 0
M  V30 49 H -1.091147 -3.692464 0.289959 0
M  V30 50 H -2.512177 -5.735122 -1.360265 0
M  V30 51 H -1.913047 -4.110308 -1.913028 0
M  V30 52 H -3.703733 -5.057296 -3.421850 0
M  V30 53 H -4.030609 -3.421403 -2.683224 0
M  V30 54 H -5.758903 -5.722185 -2.229702 0
M  V30 END ATOM
M  V30 BEGIN BOND
M  V30 1 1 1 2
M  V30 2 2 2 3
M  V30 3 1 3 4
M  V30 4 1 4 5
M  V30 5 2 5 6
M  V30 6 1 6 7
M  V30 7 2 7 8
M  V30 8 1 8 9
M  V30 9 1 9 10
M  V30 10 2 10 11
M  V30 11 1 11 12
M  V30 12 2 12 13
M  V30 13 1 13 14
M  V30 14 2 14 15
M  V30 15 1 14 16
M  V30 16 1 16 17
M  V30 17 2 17 18
M  V30 18 1 17 19
M  V30 19 2 9 20
M  V30 20 1 4 21
M  V30 21 2 21 22
M  V30 22 1 22 23
M  V30 23 2 23 24
M  V30 24 1 24 25
M  V30 25 2 25 26
M  V30 26 1 26 27
M  V30 27 2 27 28
M  V30 28 1 27 29
M  V30 29 1 29 30
M  V30 30 1 30 31
M  V30 31 1 31 32
M  V30 32 2 32 33
M  V30 33 1 22 2
M  V30 34 1 28 23
M  V30 35 1 20 5
M  V30 36 1 32 26
M  V30 37 1 15 10
M  V30 38 1 19 13
M  V30 39 1 1 34
M  V30 40 1 1 35
M  V30 41 1 6 36
M  V30 42 1 7 37
M  V30 43 1 8 38
M  V30 44 1 11 39
M  V30 45 1 12 40
M  V30 46 1 15 41
M  V30 47 1 16 42
M  V30 48 1 19 43
M  V30 49 1 19 44
M  V30 50 1 20 45
M  V30 51 1 21 46
M  V30 52 1 24 47
M  V30 53 1 25 48
M  V30 54 1 28 49
M  V30 55 1 29 50
M  V30 56 1 29 51
M  V30 57 1 30 52
M  V30 58 1 30 53
M  V30 59 1 31 54
M  V30 END BOND
M  V30 END CTAB
M  END
>  <Dataset>  (57) 
ChEMBL_Kinases

>  <Ligand_Instance>  (57) 
nan

>  <PDB_ID>  (57) 
nan

>  <Standardized_SMILES>  (57) 
Nc1nn(-c2cccc(-c3ccc4c(c3)NC(=O)C4)c2)cc1-c1ccc2c(c1)CCNC2=O

>  <Name>  (57) 
nan

>  <Pocket>  (57) 
nan

>  <ATP_Site>  (57) 
nan

>  <Peripheral>  (57) 
nan

>  <Num_H_Atoms_ProtBoundConf>  (57) 
nan

>  <Num_Resolved_Atoms>  (57) 
nan

>  <Num_Not_Resolved_Atoms>  (57) 
nan

$$$$
CHEMBL3914435
     RDKit          3D

  0  0  0  0  0  0  0  0  0  0999 V3000
M  V30 BEGIN CTAB
M  V30 COUNTS 40 42 0 0 0
M  V30 BEGIN ATOM
M  V30 1 C -2.101253 -2.908422 4.731753 0
M  V30 2 C -1.001719 -2.734332 3.742875 0
M  V30 3 C -0.479910 -3.777523 2.997354 0
M  V30 4 C 0.552707 -3.546241 2.086054 0
M  V30 5 C 1.072314 -2.261298 1.914368 0
M  V30 6 N 2.109236 -2.273677 0.943223 0
M  V30 7 C 2.163384 -1.406543 0.029523 0
M  V30 8 S 0.933140 -0.102661 -0.100874 0
M  V30 9 C 1.536689 0.544823 -1.664760 0
M  V30 10 C 0.967969 1.491469 -2.389384 0
M  V30 11 C -0.266512 2.159299 -2.003060 0
M  V30 12 C -1.317353 1.520832 -1.416980 0
M  V30 13 C -2.453755 2.257536 -1.081689 0
M  V30 14 N -2.521759 3.585813 -1.331262 0
M  V30 15 C -1.470095 4.194178 -1.911722 0
M  V30 16 C -0.333214 3.534145 -2.262174 0
M  V30 17 C 2.775673 -0.186240 -1.955473 0
M  V30 18 O 3.464729 0.130121 -2.958685 0
M  V30 19 N 3.064384 -1.215853 -1.022905 0
M  V30 20 C 4.273767 -2.043185 -1.167077 0
M  V30 21 C 0.545967 -1.230878 2.660763 0
M  V30 22 C -0.468065 -1.477365 3.550853 0
M  V30 23 C -0.949665 -0.292562 4.293309 0
M  V30 24 H -2.883095 -2.138369 4.671198 0
M  V30 25 H -1.722505 -3.005162 5.785948 0
M  V30 26 H -2.641363 -3.885982 4.561904 0
M  V30 27 H -0.934301 -4.737069 3.185929 0
M  V30 28 H 0.844247 -4.459965 1.587665 0
M  V30 29 H 1.430712 1.802349 -3.331713 0
M  V30 30 H -1.277873 0.466040 -1.214702 0
M  V30 31 H -3.313459 1.777493 -0.610472 0
M  V30 32 H -1.553102 5.271114 -2.100914 0
M  V30 33 H 0.501120 4.070125 -2.736807 0
M  V30 34 H 5.095781 -1.608466 -0.587918 0
M  V30 35 H 4.007288 -3.070353 -0.846592 0
M  V30 36 H 4.572703 -2.122263 -2.232326 0
M  V30 37 H 1.023579 -0.293767 2.444710 0
M  V30 38 H -1.656242 -0.550383 5.087546 0
M  V30 39 H -1.318120 0.497547 3.582325 0
M  V30 40 H -0.068551 0.177233 4.776020 0
M  V30 END ATOM
M  V30 BEGIN BOND
M  V30 1 1 1 2
M  V30 2 2 2 3
M  V30 3 1 3 4
M  V30 4 2 4 5
M  V30 5 1 5 6
M  V30 6 2 6 7
M  V30 7 1 7 8
M  V30 8 1 8 9
M  V30 9 2 9 10
M  V30 10 1 10 11
M  V30 11 2 11 12
M  V30 12 1 12 13
M  V30 13 2 13 14
M  V30 14 1 14 15
M  V30 15 2 15 16
M  V30 16 1 9 17
M  V30 17 2 17 18
M  V30 18 1 17 19
M  V30 19 1 19 20
M  V30 20 1 5 21
M  V30 21 2 21 22
M  V30 22 1 22 23
M  V30 23 1 22 2
M  V30 24 1 19 7
M  V30 25 1 16 11
M  V30 26 1 1 24
M  V30 27 1 1 25
M  V30 28 1 1 26
M  V30 29 1 3 27
M  V30 30 1 4 28
M  V30 31 1 10 29
M  V30 32 1 12 30
M  V30 33 1 13 31
M  V30 34 1 15 32
M  V30 35 1 16 33
M  V30 36 1 20 34
M  V30 37 1 20 35
M  V30 38 1 20 36
M  V30 39 1 21 37
M  V30 40 1 23 38
M  V30 41 1 23 39
M  V30 42 1 23 40
M  V30 END BOND
M  V30 END CTAB
M  END
>  <Dataset>  (58) 
ChEMBL_Kinases

>  <Ligand_Instance>  (58) 
nan

>  <PDB_ID>  (58) 
nan

>  <Standardized_SMILES>  (58) 
Cc1ccc(/N=C2\S/C(=C\c3ccncc3)C(=O)N2C)cc1C

>  <Name>  (58) 
nan

>  <Pocket>  (58) 
nan

>  <ATP_Site>  (58) 
nan

>  <Peripheral>  (58) 
nan

>  <Num_H_Atoms_ProtBoundConf>  (58) 
nan

>  <Num_Resolved_Atoms>  (58) 
nan

>  <Num_Not_Resolved_Atoms>  (58) 
nan

$$$$
CHEMBL3884080
     RDKit          3D

  0  0  0  0  0  0  0  0  0  0999 V3000
M  V30 BEGIN CTAB
M  V30 COUNTS 49 52 0 0 0
M  V30 BEGIN ATOM
M  V30 1 C 1.463136 -1.909781 2.532757 0
M  V30 2 C 1.409885 -1.229014 1.173181 0 CFG=2
M  V30 3 C 2.785423 -0.971904 0.685338 0
M  V30 4 C 3.121372 -0.100510 -0.326675 0
M  V30 5 C 4.464386 0.032177 -0.703809 0
M  V30 6 C 5.481946 -0.679575 -0.100489 0
M  V30 7 C 5.182013 -1.573717 0.929941 0
M  V30 8 O 6.110911 -2.356383 1.623578 0
M  V30 9 C 3.843495 -1.674758 1.271978 0
M  V30 10 N 0.597717 -0.038264 1.217920 0
M  V30 11 C 0.717874 1.204349 1.906827 0
M  V30 12 O 1.695164 1.429683 2.693350 0
M  V30 13 C -0.390345 2.146629 1.598542 0
M  V30 14 C 0.199126 3.363060 0.908138 0
M  V30 15 C -1.068014 2.500277 2.885315 0
M  V30 16 C -1.240262 1.356813 0.693019 0
M  V30 17 C -2.429440 1.586795 0.044689 0
M  V30 18 N -3.031082 0.703064 -0.763881 0
M  V30 19 C -2.426733 -0.497888 -0.955993 0
M  V30 20 N -2.887467 -1.594331 -1.764687 0
M  V30 21 C -3.516769 -2.666126 -1.080252 0
M  V30 22 C -3.656269 -2.683950 0.294621 0
M  V30 23 C -4.255995 -3.726990 0.974336 0
M  V30 24 C -4.733557 -4.786475 0.270377 0
M  V30 25 N -4.611894 -4.794577 -1.066900 0
M  V30 26 C -4.028833 -3.781246 -1.730593 0
M  V30 27 N -1.274355 -0.723948 -0.329187 0
M  V30 28 C -0.638535 0.132712 0.489244 0
M  V30 29 H 2.194982 -1.449868 3.221036 0
M  V30 30 H 1.655259 -3.003395 2.449795 0
M  V30 31 H 0.454309 -1.818756 3.037961 0
M  V30 32 H 0.941558 -1.969286 0.495731 0
M  V30 33 H 2.331072 0.440898 -0.782228 0
M  V30 34 H 4.726478 0.730658 -1.510870 0
M  V30 35 H 6.516885 -0.589367 -0.378905 0
M  V30 36 H 6.310682 -3.252500 1.155828 0
M  V30 37 H 3.589539 -2.375390 2.079816 0
M  V30 38 H -0.421799 4.275028 1.096000 0
M  V30 39 H 1.240578 3.518838 1.270592 0
M  V30 40 H 0.276946 3.135292 -0.163100 0
M  V30 41 H -1.847060 3.278953 2.765996 0
M  V30 42 H -1.498132 1.575921 3.312841 0
M  V30 43 H -0.269384 2.832289 3.602311 0
M  V30 44 H -2.915131 2.552640 0.196775 0
M  V30 45 H -2.814085 -1.692795 -2.808679 0
M  V30 46 H -3.273585 -1.839364 0.832084 0
M  V30 47 H -4.321154 -3.655796 2.055258 0
M  V30 48 H -5.209974 -5.626671 0.749344 0
M  V30 49 H -3.957981 -3.840905 -2.802673 0
M  V30 END ATOM
M  V30 BEGIN BOND
M  V30 1 1 1 2
M  V30 2 1 2 3
M  V30 3 2 3 4
M  V30 4 1 4 5
M  V30 5 2 5 6
M  V30 6 1 6 7
M  V30 7 1 7 8
M  V30 8 2 7 9
M  V30 9 1 2 10
M  V30 10 1 10 11
M  V30 11 2 11 12
M  V30 12 1 11 13
M  V30 13 1 13 14
M  V30 14 1 13 15
M  V30 15 1 13 16
M  V30 16 2 16 17
M  V30 17 1 17 18
M  V30 18 2 18 19
M  V30 19 1 19 20
M  V30 20 1 20 21
M  V30 21 2 21 22
M  V30 22 1 22 23
M  V30 23 2 23 24
M  V30 24 1 24 25
M  V30 25 2 25 26
M  V30 26 1 19 27
M  V30 27 2 27 28
M  V30 28 1 9 3
M  V30 29 1 28 10
M  V30 30 1 28 16
M  V30 31 1 26 21
M  V30 32 1 1 29
M  V30 33 1 1 30
M  V30 34 1 1 31
M  V30 35 1 2 32 CFG=3
M  V30 36 1 4 33
M  V30 37 1 5 34
M  V30 38 1 6 35
M  V30 39 1 8 36
M  V30 40 1 9 37
M  V30 41 1 14 38
M  V30 42 1 14 39
M  V30 43 1 14 40
M  V30 44 1 15 41
M  V30 45 1 15 42
M  V30 46 1 15 43
M  V30 47 1 17 44
M  V30 48 1 20 45
M  V30 49 1 22 46
M  V30 50 1 23 47
M  V30 51 1 24 48
M  V30 52 1 26 49
M  V30 END BOND
M  V30 END CTAB
M  END
>  <Dataset>  (59) 
ChEMBL_Kinases

>  <Ligand_Instance>  (59) 
nan

>  <PDB_ID>  (59) 
nan

>  <Standardized_SMILES>  (59) 
C[C@H](c1cccc(O)c1)N1C(=O)C(C)(C)c2cnc(Nc3cccnc3)nc21

>  <Name>  (59) 
nan

>  <Pocket>  (59) 
nan

>  <ATP_Site>  (59) 
nan

>  <Peripheral>  (59) 
nan

>  <Num_H_Atoms_ProtBoundConf>  (59) 
nan

>  <Num_Resolved_Atoms>  (59) 
nan

>  <Num_Not_Resolved_Atoms>  (59) 
nan

$$$$
CHEMBL3883823
     RDKit          3D

  0  0  0  0  0  0  0  0  0  0999 V3000
M  V30 BEGIN CTAB
M  V30 COUNTS 57 60 0 0 0
M  V30 BEGIN ATOM
M  V30 1 C 6.347902 -3.467146 1.312789 0
M  V30 2 N 5.122725 -4.241966 1.341214 0
M  V30 3 C 4.185451 -3.699587 2.271815 0
M  V30 4 C 3.429278 -2.501858 1.803320 0
M  V30 5 N 3.239900 -2.481709 0.384989 0
M  V30 6 C 2.383747 -1.480785 -0.136957 0
M  V30 7 C 1.740303 -0.559479 0.663266 0
M  V30 8 C 0.891894 0.442233 0.204238 0
M  V30 9 C 0.677101 0.517938 -1.176464 0
M  V30 10 N -0.182627 1.520314 -1.703900 0
M  V30 11 C -0.825895 2.345119 -0.740390 0
M  V30 12 N -0.334895 3.458202 -0.167820 0
M  V30 13 C -1.134985 4.100704 0.735340 0
M  V30 14 C -2.399944 3.591253 1.022878 0
M  V30 15 Cl -3.189116 4.617173 2.208042 0
M  V30 16 C -2.899480 2.433880 0.421501 0
M  V30 17 O -4.152609 2.229463 0.929250 0
M  V30 18 C -5.039064 1.254145 0.665449 0
M  V30 19 C -6.204018 1.821526 0.129521 0
M  V30 20 C -7.310454 1.046904 -0.242592 0
M  V30 21 C -7.286925 -0.317668 -0.090550 0
M  V30 22 C -6.157881 -0.894399 0.431632 0
M  V30 23 C -5.081596 -0.112428 0.790349 0
M  V30 24 N -3.908130 -0.680262 1.350936 0
M  V30 25 C -2.984838 -1.129977 0.369586 0
M  V30 26 O -3.361904 -0.949226 -0.838902 0
M  V30 27 C -1.661785 -1.771851 0.618355 0
M  V30 28 Cl -1.920197 -3.548153 0.740325 0
M  V30 29 N -2.043126 1.878461 -0.445968 0
M  V30 30 C 1.292395 -0.376466 -2.037239 0
M  V30 31 C 2.115898 -1.333299 -1.481962 0
M  V30 32 C 3.841545 -3.393530 -0.593910 0
M  V30 33 C 4.610526 -4.508020 0.034732 0
M  V30 34 H 6.632433 -3.180413 2.341211 0
M  V30 35 H 6.161914 -2.561270 0.672989 0
M  V30 36 H 7.165768 -4.099550 0.899870 0
M  V30 37 H 4.776823 -3.449778 3.199318 0
M  V30 38 H 3.519207 -4.538915 2.603470 0
M  V30 39 H 4.037404 -1.602588 2.100309 0
M  V30 40 H 2.462887 -2.408215 2.377920 0
M  V30 41 H 1.868667 -0.570845 1.729703 0
M  V30 42 H 0.414118 1.138490 0.882896 0
M  V30 43 H -0.310152 1.616748 -2.719819 0
M  V30 44 H -0.654772 4.971334 1.132606 0
M  V30 45 H -6.416035 2.884291 -0.067950 0
M  V30 46 H -8.227262 1.438345 -0.659230 0
M  V30 47 H -8.055464 -1.028762 -0.331033 0
M  V30 48 H -6.025049 -1.968312 0.597666 0
M  V30 49 H -3.563724 -0.844714 2.344620 0
M  V30 50 H -1.034664 -1.649603 -0.297545 0
M  V30 51 H -1.121169 -1.362822 1.471915 0
M  V30 52 H 1.131547 -0.322943 -3.095157 0
M  V30 53 H 2.578398 -2.015395 -2.192698 0
M  V30 54 H 4.485555 -2.834657 -1.279068 0
M  V30 55 H 2.980546 -3.752805 -1.199851 0
M  V30 56 H 5.491594 -4.766528 -0.613379 0
M  V30 57 H 3.964245 -5.414349 0.019451 0
M  V30 END ATOM
M  V30 BEGIN BOND
M  V30 1 1 1 2
M  V30 2 1 2 3
M  V30 3 1 3 4
M  V30 4 1 4 5
M  V30 5 1 5 6
M  V30 6 2 6 7
M  V30 7 1 7 8
M  V30 8 2 8 9
M  V30 9 1 9 10
M  V30 10 1 10 11
M  V30 11 2 11 12
M  V30 12 1 12 13
M  V30 13 2 13 14
M  V30 14 1 14 15
M  V30 15 1 14 16
M  V30 16 1 16 17
M  V30 17 1 17 18
M  V30 18 2 18 19
M  V30 19 1 19 20
M  V30 20 2 20 21
M  V30 21 1 21 22
M  V30 22 2 22 23
M  V30 23 1 23 24
M  V30 24 1 24 25
M  V30 25 2 25 26
M  V30 26 1 25 27
M  V30 27 1 27 28
M  V30 28 2 16 29
M  V30 29 1 9 30
M  V30 30 2 30 31
M  V30 31 1 5 32
M  V30 32 1 32 33
M  V30 33 1 33 2
M  V30 34 1 31 6
M  V30 35 1 29 11
M  V30 36 1 23 18
M  V30 37 1 1 34
M  V30 38 1 1 35
M  V30 39 1 1 36
M  V30 40 1 3 37
M  V30 41 1 3 38
M  V30 42 1 4 39
M  V30 43 1 4 40
M  V30 44 1 7 41
M  V30 45 1 8 42
M  V30 46 1 10 43
M  V30 47 1 13 44
M  V30 48 1 19 45
M  V30 49 1 20 46
M  V30 50 1 21 47
M  V30 51 1 22 48
M  V30 52 1 24 49
M  V30 53 1 27 50
M  V30 54 1 27 51
M  V30 55 1 30 52
M  V30 56 1 31 53
M  V30 57 1 32 54
M  V30 58 1 32 55
M  V30 59 1 33 56
M  V30 60 1 33 57
M  V30 END BOND
M  V30 END CTAB
M  END
>  <Dataset>  (60) 
ChEMBL_Kinases

>  <Ligand_Instance>  (60) 
nan

>  <PDB_ID>  (60) 
nan

>  <Standardized_SMILES>  (60) 
CN1CCN(c2ccc(Nc3ncc(Cl)c(Oc4ccccc4NC(=O)CCl)n3)cc2)CC1

>  <Name>  (60) 
nan

>  <Pocket>  (60) 
nan

>  <ATP_Site>  (60) 
nan

>  <Peripheral>  (60) 
nan

>  <Num_H_Atoms_ProtBoundConf>  (60) 
nan

>  <Num_Resolved_Atoms>  (60) 
nan

>  <Num_Not_Resolved_Atoms>  (60) 
nan

$$$$
CHEMBL3914445
     RDKit          3D

  0  0  0  0  0  0  0  0  0  0999 V3000
M  V30 BEGIN CTAB
M  V30 COUNTS 74 78 0 0 0
M  V30 BEGIN ATOM
M  V30 1 C 2.121531 0.483689 7.168214 0
M  V30 2 O 3.082689 -0.494790 6.775529 0
M  V30 3 C 3.521904 -0.512838 5.462820 0
M  V30 4 C 4.447820 -1.413847 4.977233 0
M  V30 5 C 4.868137 -1.401208 3.643042 0
M  V30 6 C 4.357686 -0.469704 2.762696 0
M  V30 7 C 3.431047 0.418116 3.285427 0
M  V30 8 C 2.885232 1.404632 2.358920 0
M  V30 9 O 3.236657 1.466629 1.132161 0
M  V30 10 N 1.919795 2.394927 2.691740 0
M  V30 11 C 1.672531 3.143503 1.481777 0
M  V30 12 N 2.270652 4.272656 1.004383 0
M  V30 13 N 1.712440 4.589635 -0.153841 0
M  V30 14 C 0.746376 3.728096 -0.508342 0
M  V30 15 C 0.716015 2.819087 0.512730 0
M  V30 16 C -0.322721 1.779740 0.265187 0
M  V30 17 N -0.658942 2.010598 -1.136993 0
M  V30 18 C -1.292302 1.127155 -2.092215 0
M  V30 19 O -1.445934 1.566285 -3.284201 0
M  V30 20 N -1.787430 -0.219978 -1.880559 0
M  V30 21 C -1.789369 -0.922812 -0.609288 0
M  V30 22 C -2.949960 -1.933021 -0.521699 0
M  V30 23 N -2.912004 -2.684812 -1.707180 0
M  V30 24 C -3.275416 -4.035027 -1.731676 0
M  V30 25 C -2.321432 -4.947799 -1.054084 0
M  V30 26 C -0.915974 -4.933531 -1.627549 0
M  V30 27 C 0.087089 -5.348336 -0.546724 0
M  V30 28 O -0.383032 -6.380132 0.238051 0
M  V30 29 C -1.560839 -6.144014 0.897948 0
M  V30 30 C -2.172503 -4.797495 0.431096 0
M  V30 31 C -3.393422 -1.842781 -2.768790 0
M  V30 32 C -2.280295 -0.874909 -3.082401 0 CFG=2
M  V30 33 C -1.159677 -1.699845 -3.728119 0
M  V30 34 C -0.271628 3.351562 -1.514384 0
M  V30 35 C -1.402119 4.339136 -1.419537 0
M  V30 36 C 0.325123 3.298901 -2.904702 0
M  V30 37 N 3.066728 0.355742 4.577214 0
M  V30 38 H 2.053651 0.595906 8.259812 0
M  V30 39 H 2.417094 1.495639 6.760366 0
M  V30 40 H 1.121776 0.293905 6.767775 0
M  V30 41 H 4.866004 -2.161966 5.659994 0
M  V30 42 H 5.595822 -2.110080 3.263380 0
M  V30 43 H 4.674550 -0.447411 1.723760 0
M  V30 44 H 1.565491 2.431686 3.668113 0
M  V30 45 H 2.036410 5.436324 -0.687392 0
M  V30 46 H 0.168362 0.794967 0.432613 0
M  V30 47 H -1.164608 1.901115 0.944027 0
M  V30 48 H -1.889403 -0.209943 0.246370 0
M  V30 49 H -0.868548 -1.492572 -0.506260 0
M  V30 50 H -2.990730 -2.419291 0.437299 0
M  V30 51 H -3.863868 -1.244791 -0.544384 0
M  V30 52 H -3.437097 -4.448922 -2.759121 0
M  V30 53 H -4.266409 -4.170233 -1.205283 0
M  V30 54 H -2.754143 -5.999684 -1.192625 0
M  V30 55 H -0.597424 -3.971291 -2.021788 0
M  V30 56 H -0.833885 -5.720778 -2.424944 0
M  V30 57 H 0.471089 -4.496185 0.023044 0
M  V30 58 H 0.977487 -5.762160 -1.090957 0
M  V30 59 H -1.379425 -5.985526 1.988532 0
M  V30 60 H -2.331563 -6.907495 0.684583 0
M  V30 61 H -3.120375 -4.709640 0.956070 0
M  V30 62 H -1.386886 -4.063772 0.735228 0
M  V30 63 H -4.231016 -1.209855 -2.362075 0
M  V30 64 H -3.753494 -2.381492 -3.641332 0
M  V30 65 H -2.620449 -0.084608 -3.799846 0
M  V30 66 H -0.357767 -1.775629 -2.986565 0
M  V30 67 H -0.837778 -1.243034 -4.683100 0
M  V30 68 H -1.504292 -2.725994 -3.960683 0
M  V30 69 H -1.153285 5.280576 -0.931910 0
M  V30 70 H -1.785946 4.470344 -2.472346 0
M  V30 71 H -2.239699 3.840506 -0.868482 0
M  V30 72 H -0.435883 3.595407 -3.628412 0
M  V30 73 H 0.737172 2.283161 -3.053822 0
M  V30 74 H 1.180826 4.014403 -2.932057 0
M  V30 END ATOM
M  V30 BEGIN BOND
M  V30 1 1 1 2
M  V30 2 1 2 3
M  V30 3 2 3 4
M  V30 4 1 4 5
M  V30 5 2 5 6
M  V30 6 1 6 7
M  V30 7 1 7 8
M  V30 8 2 8 9
M  V30 9 1 8 10
M  V30 10 1 10 11
M  V30 11 2 11 12
M  V30 12 1 12 13
M  V30 13 1 13 14
M  V30 14 2 14 15
M  V30 15 1 15 16
M  V30 16 1 16 17
M  V30 17 1 17 18
M  V30 18 2 18 19
M  V30 19 1 18 20
M  V30 20 1 20 21
M  V30 21 1 21 22
M  V30 22 1 22 23
M  V30 23 1 23 24
M  V30 24 1 24 25
M  V30 25 1 25 26
M  V30 26 1 26 27
M  V30 27 1 27 28
M  V30 28 1 28 29
M  V30 29 1 29 30
M  V30 30 1 23 31
M  V30 31 1 31 32
M  V30 32 1 32 33
M  V30 33 1 17 34
M  V30 34 1 34 35
M  V30 35 1 34 36
M  V30 36 2 7 37
M  V30 37 1 37 3
M  V30 38 1 15 11
M  V30 39 1 32 20
M  V30 40 1 34 14
M  V30 41 1 30 25
M  V30 42 1 1 38
M  V30 43 1 1 39
M  V30 44 1 1 40
M  V30 45 1 4 41
M  V30 46 1 5 42
M  V30 47 1 6 43
M  V30 48 1 10 44
M  V30 49 1 13 45
M  V30 50 1 16 46
M  V30 51 1 16 47
M  V30 52 1 21 48
M  V30 53 1 21 49
M  V30 54 1 22 50
M  V30 55 1 22 51
M  V30 56 1 24 52
M  V30 57 1 24 53
M  V30 58 1 25 54
M  V30 59 1 26 55
M  V30 60 1 26 56
M  V30 61 1 27 57
M  V30 62 1 27 58
M  V30 63 1 29 59
M  V30 64 1 29 60
M  V30 65 1 30 61
M  V30 66 1 30 62
M  V30 67 1 31 63
M  V30 68 1 31 64
M  V30 69 1 32 65 CFG=3
M  V30 70 1 33 66
M  V30 71 1 33 67
M  V30 72 1 33 68
M  V30 73 1 35 69
M  V30 74 1 35 70
M  V30 75 1 35 71
M  V30 76 1 36 72
M  V30 77 1 36 73
M  V30 78 1 36 74
M  V30 END BOND
M  V30 END CTAB
M  END
>  <Dataset>  (61) 
ChEMBL_Kinases

>  <Ligand_Instance>  (61) 
nan

>  <PDB_ID>  (61) 
nan

>  <Standardized_SMILES>  (61) 
COc1cccc(C(=O)Nc2n[nH]c3c2CN(C(=O)N2CCN(CC4CCOCC4)C[C@@H]2C)C3(C)C)n1

>  <Name>  (61) 
nan

>  <Pocket>  (61) 
nan

>  <ATP_Site>  (61) 
nan

>  <Peripheral>  (61) 
nan

>  <Num_H_Atoms_ProtBoundConf>  (61) 
nan

>  <Num_Resolved_Atoms>  (61) 
nan

>  <Num_Not_Resolved_Atoms>  (61) 
nan

$$$$
CHEMBL3884017
     RDKit          3D

  0  0  0  0  0  0  0  0  0  0999 V3000
M  V30 BEGIN CTAB
M  V30 COUNTS 53 56 0 0 0
M  V30 BEGIN ATOM
M  V30 1 C -0.591601 -4.508546 2.587942 0
M  V30 2 C -0.313637 -3.895961 1.262300 0
M  V30 3 O -1.292525 -3.825330 0.476378 0
M  V30 4 N 0.915868 -3.397600 0.812092 0
M  V30 5 C 0.953544 -2.842367 -0.522381 0
M  V30 6 C 2.019956 -1.827801 -0.685558 0
M  V30 7 C 2.526853 -1.139783 0.521427 0
M  V30 8 N 1.972685 0.209937 0.712381 0
M  V30 9 C 2.696664 1.446291 0.677229 0
M  V30 10 O 3.940477 1.581263 0.473878 0
M  V30 11 C 1.748693 2.582086 0.921169 0
M  V30 12 C 2.050817 3.331638 2.179344 0
M  V30 13 C 1.686573 3.492526 -0.287861 0
M  V30 14 C 0.449007 1.846847 1.088749 0
M  V30 15 C -0.781331 2.429225 1.339063 0
M  V30 16 N -1.832528 1.571024 1.456083 0
M  V30 17 C -1.651391 0.244294 1.330578 0
M  V30 18 N -2.729142 -0.698128 1.444819 0
M  V30 19 C -3.375853 -0.997111 0.211115 0
M  V30 20 C -2.954969 -0.402276 -0.973607 0
M  V30 21 C -3.611146 -0.718074 -2.164746 0
M  V30 22 C -4.665019 -1.599910 -2.216590 0
M  V30 23 F -5.292688 -1.895012 -3.389650 0
M  V30 24 C -5.102057 -2.207503 -1.036415 0
M  V30 25 C -4.442845 -1.884245 0.130551 0
M  V30 26 N -0.455162 -0.333070 1.086432 0
M  V30 27 C 0.609947 0.483104 0.964037 0
M  V30 28 C 2.480663 -1.936475 1.790262 0
M  V30 29 C 2.151774 -3.391695 1.570710 0
M  V30 30 H -1.224481 -5.411064 2.538515 0
M  V30 31 H -1.170681 -3.770495 3.214835 0
M  V30 32 H 0.353975 -4.784251 3.128692 0
M  V30 33 H -0.062662 -2.474306 -0.849021 0
M  V30 34 H 1.118830 -3.744049 -1.183987 0
M  V30 35 H 1.663032 -1.018075 -1.388205 0
M  V30 36 H 2.854159 -2.307034 -1.268527 0
M  V30 37 H 3.612972 -0.934323 0.350436 0
M  V30 38 H 2.273003 4.395454 1.879011 0
M  V30 39 H 2.884328 2.901904 2.772634 0
M  V30 40 H 1.173859 3.391496 2.870668 0
M  V30 41 H 0.614309 3.609502 -0.542594 0
M  V30 42 H 2.255634 3.003354 -1.124626 0
M  V30 43 H 2.168642 4.471656 -0.084960 0
M  V30 44 H -1.004319 3.463468 1.450878 0
M  V30 45 H -3.079155 -1.172083 2.301969 0
M  V30 46 H -2.131972 0.298239 -0.992233 0
M  V30 47 H -3.249201 -0.229673 -3.068999 0
M  V30 48 H -5.928292 -2.910819 -1.017497 0
M  V30 49 H -4.795900 -2.367484 1.046823 0
M  V30 50 H 3.412908 -1.903685 2.392294 0
M  V30 51 H 1.676939 -1.545643 2.449477 0
M  V30 52 H 2.966103 -3.790236 0.902402 0
M  V30 53 H 2.092410 -3.903183 2.529886 0
M  V30 END ATOM
M  V30 BEGIN BOND
M  V30 1 1 1 2
M  V30 2 2 2 3
M  V30 3 1 2 4
M  V30 4 1 4 5
M  V30 5 1 5 6
M  V30 6 1 6 7
M  V30 7 1 7 8
M  V30 8 1 8 9
M  V30 9 2 9 10
M  V30 10 1 9 11
M  V30 11 1 11 12
M  V30 12 1 11 13
M  V30 13 1 11 14
M  V30 14 2 14 15
M  V30 15 1 15 16
M  V30 16 2 16 17
M  V30 17 1 17 18
M  V30 18 1 18 19
M  V30 19 2 19 20
M  V30 20 1 20 21
M  V30 21 2 21 22
M  V30 22 1 22 23
M  V30 23 1 22 24
M  V30 24 2 24 25
M  V30 25 1 17 26
M  V30 26 2 26 27
M  V30 27 1 7 28
M  V30 28 1 28 29
M  V30 29 1 29 4
M  V30 30 1 27 8
M  V30 31 1 27 14
M  V30 32 1 25 19
M  V30 33 1 1 30
M  V30 34 1 1 31
M  V30 35 1 1 32
M  V30 36 1 5 33
M  V30 37 1 5 34
M  V30 38 1 6 35
M  V30 39 1 6 36
M  V30 40 1 7 37
M  V30 41 1 12 38
M  V30 42 1 12 39
M  V30 43 1 12 40
M  V30 44 1 13 41
M  V30 45 1 13 42
M  V30 46 1 13 43
M  V30 47 1 15 44
M  V30 48 1 18 45
M  V30 49 1 20 46
M  V30 50 1 21 47
M  V30 51 1 24 48
M  V30 52 1 25 49
M  V30 53 1 28 50
M  V30 54 1 28 51
M  V30 55 1 29 52
M  V30 56 1 29 53
M  V30 END BOND
M  V30 END CTAB
M  END
>  <Dataset>  (62) 
ChEMBL_Kinases

>  <Ligand_Instance>  (62) 
nan

>  <PDB_ID>  (62) 
nan

>  <Standardized_SMILES>  (62) 
CC(=O)N1CCC(N2C(=O)C(C)(C)c3cnc(Nc4ccc(F)cc4)nc32)CC1

>  <Name>  (62) 
nan

>  <Pocket>  (62) 
nan

>  <ATP_Site>  (62) 
nan

>  <Peripheral>  (62) 
nan

>  <Num_H_Atoms_ProtBoundConf>  (62) 
nan

>  <Num_Resolved_Atoms>  (62) 
nan

>  <Num_Not_Resolved_Atoms>  (62) 
nan

$$$$
CHEMBL491138
     RDKit          3D

  0  0  0  0  0  0  0  0  0  0999 V3000
M  V30 BEGIN CTAB
M  V30 COUNTS 54 58 0 0 0
M  V30 BEGIN ATOM
M  V30 1 C 1.899683 -3.783250 6.266250 0
M  V30 2 N 2.751702 -3.692931 5.076143 0
M  V30 3 C 3.311016 -2.352944 4.976139 0
M  V30 4 C 2.566892 -1.534224 3.941983 0
M  V30 5 C 2.723989 -2.138008 2.557712 0
M  V30 6 C 1.824476 -1.513888 1.571260 0
M  V30 7 C 2.421526 -0.764165 0.548609 0
M  V30 8 C 1.640438 -0.135189 -0.425907 0
M  V30 9 C 0.267110 -0.215348 -0.436775 0
M  V30 10 C -0.735416 0.282669 -1.242686 0
M  V30 11 C -0.524284 1.119173 -2.416667 0
M  V30 12 C 0.090320 2.328097 -2.059762 0
M  V30 13 C 0.402028 3.296925 -2.974340 0
M  V30 14 N 0.085169 3.035750 -4.272621 0
M  V30 15 C -0.510956 1.851159 -4.584391 0
M  V30 16 N -0.795355 1.686755 -5.964125 0
M  V30 17 N -0.831330 0.873708 -3.703312 0
M  V30 18 C -1.921351 -0.167354 -0.706445 0
M  V30 19 C -3.265579 0.097032 -1.203312 0
M  V30 20 C -3.714712 -0.278429 -2.462257 0
M  V30 21 C -4.987061 -0.029213 -2.930195 0
M  V30 22 C -5.890385 0.641312 -2.099721 0
M  V30 23 F -7.141335 0.892791 -2.547346 0
M  V30 24 C -5.500551 1.038905 -0.840760 0
M  V30 25 C -4.212488 0.757751 -0.433387 0
M  V30 26 N -1.677210 -0.922255 0.398744 0
M  V30 27 C -0.330167 -0.957978 0.573987 0
M  V30 28 C 0.449633 -1.572624 1.528575 0
M  V30 29 C 2.576462 -3.628764 2.684383 0
M  V30 30 C 1.862709 -3.961229 3.952746 0
M  V30 31 H 0.897736 -3.346058 6.070469 0
M  V30 32 H 1.791735 -4.809904 6.644286 0
M  V30 33 H 2.344786 -3.118903 7.055241 0
M  V30 34 H 3.160975 -1.864347 5.955736 0
M  V30 35 H 4.397728 -2.355285 4.768570 0
M  V30 36 H 1.541013 -1.402053 4.268995 0
M  V30 37 H 3.049716 -0.536232 3.924769 0
M  V30 38 H 3.772025 -1.923825 2.187969 0
M  V30 39 H 3.480827 -0.620132 0.441603 0
M  V30 40 H 2.112039 0.447872 -1.219649 0
M  V30 41 H 0.379963 2.623678 -1.039195 0
M  V30 42 H 0.872635 4.241315 -2.751507 0
M  V30 43 H -1.715309 2.162561 -6.151455 0
M  V30 44 H -0.395665 1.253191 -6.845726 0
M  V30 45 H -3.005119 -0.806760 -3.116059 0
M  V30 46 H -5.319683 -0.328527 -3.909598 0
M  V30 47 H -6.189442 1.567478 -0.165920 0
M  V30 48 H -3.898388 1.072572 0.570357 0
M  V30 49 H -2.395786 -1.387270 0.997659 0
M  V30 50 H -0.028233 -2.131953 2.287307 0
M  V30 51 H 3.608282 -4.063678 2.787105 0
M  V30 52 H 2.079542 -4.076611 1.794341 0
M  V30 53 H 1.548741 -5.038237 3.997081 0
M  V30 54 H 0.965871 -3.336580 4.083798 0
M  V30 END ATOM
M  V30 BEGIN BOND
M  V30 1 1 1 2
M  V30 2 1 2 3
M  V30 3 1 3 4
M  V30 4 1 4 5
M  V30 5 1 5 6
M  V30 6 2 6 7
M  V30 7 1 7 8
M  V30 8 2 8 9
M  V30 9 1 9 10
M  V30 10 1 10 11
M  V30 11 2 11 12
M  V30 12 1 12 13
M  V30 13 2 13 14
M  V30 14 1 14 15
M  V30 15 1 15 16
M  V30 16 2 15 17
M  V30 17 2 10 18
M  V30 18 1 18 19
M  V30 19 2 19 20
M  V30 20 1 20 21
M  V30 21 2 21 22
M  V30 22 1 22 23
M  V30 23 1 22 24
M  V30 24 2 24 25
M  V30 25 1 18 26
M  V30 26 1 26 27
M  V30 27 2 27 28
M  V30 28 1 5 29
M  V30 29 1 29 30
M  V30 30 1 30 2
M  V30 31 1 28 6
M  V30 32 1 27 9
M  V30 33 1 17 11
M  V30 34 1 25 19
M  V30 35 1 1 31
M  V30 36 1 1 32
M  V30 37 1 1 33
M  V30 38 1 3 34
M  V30 39 1 3 35
M  V30 40 1 4 36
M  V30 41 1 4 37
M  V30 42 1 5 38
M  V30 43 1 7 39
M  V30 44 1 8 40
M  V30 45 1 12 41
M  V30 46 1 13 42
M  V30 47 1 16 43
M  V30 48 1 16 44
M  V30 49 1 20 45
M  V30 50 1 21 46
M  V30 51 1 24 47
M  V30 52 1 25 48
M  V30 53 1 26 49
M  V30 54 1 28 50
M  V30 55 1 29 51
M  V30 56 1 29 52
M  V30 57 1 30 53
M  V30 58 1 30 54
M  V30 END BOND
M  V30 END CTAB
M  END
>  <Dataset>  (63) 
ChEMBL_Kinases

>  <Ligand_Instance>  (63) 
nan

>  <PDB_ID>  (63) 
nan

>  <Standardized_SMILES>  (63) 
CN1CCC(c2ccc3c(-c4ccnc(N)n4)c(-c4ccc(F)cc4)[nH]c3c2)CC1

>  <Name>  (63) 
nan

>  <Pocket>  (63) 
nan

>  <ATP_Site>  (63) 
nan

>  <Peripheral>  (63) 
nan

>  <Num_H_Atoms_ProtBoundConf>  (63) 
nan

>  <Num_Resolved_Atoms>  (63) 
nan

>  <Num_Not_Resolved_Atoms>  (63) 
nan

$$$$
CHEMBL391449
     RDKit          3D

  0  0  0  0  0  0  0  0  0  0999 V3000
M  V30 BEGIN CTAB
M  V30 COUNTS 42 46 0 0 0
M  V30 BEGIN ATOM
M  V30 1 O 6.068149 -6.691980 0.571570 0
M  V30 2 C 5.166546 -5.670877 0.390726 0
M  V30 3 C 4.595395 -5.104574 1.510657 0
M  V30 4 C 3.687152 -4.077253 1.347597 0
M  V30 5 C 3.317061 -3.583135 0.126349 0
M  V30 6 C 2.376134 -2.514804 -0.114159 0
M  V30 7 C 1.598297 -2.497588 -1.269076 0
M  V30 8 C 0.707269 -1.453050 -1.460688 0
M  V30 9 C 0.609803 -0.457892 -0.509173 0
M  V30 10 C -0.282452 0.710867 -0.566866 0
M  V30 11 N -0.461217 1.484758 -1.671232 0
M  V30 12 N -1.320415 2.455421 -1.411799 0
M  V30 13 C -1.716775 2.328422 -0.127820 0
M  V30 14 C -1.086099 1.234155 0.454588 0
M  V30 15 C -1.479625 1.042465 1.858813 0
M  V30 16 C -2.441665 2.180072 2.054388 0
M  V30 17 C -3.105941 2.448937 3.234436 0
M  V30 18 C -3.952161 3.545351 3.208191 0
M  V30 19 O -4.650687 3.857185 4.389515 0
M  V30 20 C -4.150029 4.347571 2.094773 0
M  V30 21 C -3.438310 3.994762 0.962059 0
M  V30 22 C -2.574137 2.920607 0.896287 0
M  V30 23 C 1.401839 -0.495292 0.645060 0
M  V30 24 C 2.300722 -1.533733 0.855251 0
M  V30 25 C 3.920308 -4.187201 -0.963417 0
M  V30 26 C 4.830278 -5.213358 -0.851242 0
M  V30 27 H 5.859169 -7.627285 0.841848 0
M  V30 28 H 4.800691 -5.401154 2.534451 0
M  V30 29 H 3.219609 -3.610714 2.220490 0
M  V30 30 H 1.668234 -3.271667 -2.018199 0
M  V30 31 H 0.062198 -1.352106 -2.322354 0
M  V30 32 H -1.680856 3.222859 -2.033356 0
M  V30 33 H -2.042694 0.068066 1.951180 0
M  V30 34 H -0.613793 1.085546 2.515279 0
M  V30 35 H -3.005674 1.877667 4.134295 0
M  V30 36 H -5.144256 3.119131 4.887071 0
M  V30 37 H -4.817054 5.195751 2.107229 0
M  V30 38 H -3.577436 4.612632 0.070640 0
M  V30 39 H 1.359984 0.267812 1.424279 0
M  V30 40 H 2.905588 -1.545168 1.755227 0
M  V30 41 H 3.675631 -3.849196 -1.954660 0
M  V30 42 H 5.276112 -5.654556 -1.736494 0
M  V30 END ATOM
M  V30 BEGIN BOND
M  V30 1 1 1 2
M  V30 2 2 2 3
M  V30 3 1 3 4
M  V30 4 2 4 5
M  V30 5 1 5 6
M  V30 6 2 6 7
M  V30 7 1 7 8
M  V30 8 2 8 9
M  V30 9 1 9 10
M  V30 10 2 10 11
M  V30 11 1 11 12
M  V30 12 1 12 13
M  V30 13 2 13 14
M  V30 14 1 14 15
M  V30 15 1 15 16
M  V30 16 2 16 17
M  V30 17 1 17 18
M  V30 18 1 18 19
M  V30 19 2 18 20
M  V30 20 1 20 21
M  V30 21 2 21 22
M  V30 22 1 9 23
M  V30 23 2 23 24
M  V30 24 1 5 25
M  V30 25 2 25 26
M  V30 26 1 26 2
M  V30 27 1 24 6
M  V30 28 1 14 10
M  V30 29 1 22 16
M  V30 30 1 22 13
M  V30 31 1 1 27
M  V30 32 1 3 28
M  V30 33 1 4 29
M  V30 34 1 7 30
M  V30 35 1 8 31
M  V30 36 1 12 32
M  V30 37 1 15 33
M  V30 38 1 15 34
M  V30 39 1 17 35
M  V30 40 1 19 36
M  V30 41 1 20 37
M  V30 42 1 21 38
M  V30 43 1 23 39
M  V30 44 1 24 40
M  V30 45 1 25 41
M  V30 46 1 26 42
M  V30 END BOND
M  V30 END CTAB
M  END
>  <Dataset>  (64) 
ChEMBL_Kinases

>  <Ligand_Instance>  (64) 
nan

>  <PDB_ID>  (64) 
nan

>  <Standardized_SMILES>  (64) 
Oc1ccc(-c2ccc(-c3n[nH]c4c3Cc3cc(O)ccc3-4)cc2)cc1

>  <Name>  (64) 
nan

>  <Pocket>  (64) 
nan

>  <ATP_Site>  (64) 
nan

>  <Peripheral>  (64) 
nan

>  <Num_H_Atoms_ProtBoundConf>  (64) 
nan

>  <Num_Resolved_Atoms>  (64) 
nan

>  <Num_Not_Resolved_Atoms>  (64) 
nan

$$$$
CHEMBL3883997
     RDKit          3D

  0  0  0  0  0  0  0  0  0  0999 V3000
M  V30 BEGIN CTAB
M  V30 COUNTS 43 46 0 0 0
M  V30 BEGIN ATOM
M  V30 1 C 0.888108 -5.837206 0.925356 0
M  V30 2 N 1.492392 -4.556886 0.616786 0
M  V30 3 C 0.853466 -3.528339 0.029478 0
M  V30 4 C 1.734596 -2.481826 -0.105472 0
M  V30 5 N 1.644381 -1.165198 -0.637548 0
M  V30 6 C 1.864098 -0.614388 -1.931500 0
M  V30 7 O 2.216185 -1.414208 -2.848129 0
M  V30 8 C 1.619767 0.851493 -1.921834 0
M  V30 9 C 0.496920 1.149812 -2.865347 0
M  V30 10 C 2.849418 1.634134 -2.302378 0
M  V30 11 C 1.238289 1.075345 -0.496970 0
M  V30 12 C 0.895487 2.293571 0.082041 0
M  V30 13 N 0.569405 2.338299 1.402231 0
M  V30 14 C 0.590176 1.186091 2.111918 0
M  V30 15 N 0.286607 1.003259 3.489992 0
M  V30 16 C -1.082433 0.702602 3.811827 0
M  V30 17 C -2.005045 0.607611 2.770409 0
M  V30 18 C -3.317135 0.318042 3.090681 0
M  V30 19 C -3.712337 0.126946 4.397590 0
M  V30 20 C -2.807200 0.217371 5.451184 0
M  V30 21 C -1.487502 0.508994 5.125253 0
M  V30 22 N 0.923015 0.014581 1.541785 0
M  V30 23 C 1.259353 -0.100604 0.227759 0
M  V30 24 C 2.946817 -2.913289 0.426216 0
M  V30 25 N 2.742823 -4.190926 0.854330 0
M  V30 26 H -0.078362 -5.749348 1.447989 0
M  V30 27 H 1.542311 -6.436887 1.589627 0
M  V30 28 H 0.665457 -6.416806 -0.002924 0
M  V30 29 H -0.168075 -3.433618 -0.315308 0
M  V30 30 H -0.410179 0.640677 -2.453747 0
M  V30 31 H 0.734661 0.720219 -3.844357 0
M  V30 32 H 0.239451 2.223317 -2.912587 0
M  V30 33 H 3.686456 1.414939 -1.638908 0
M  V30 34 H 2.561379 2.694196 -2.365695 0
M  V30 35 H 3.107666 1.308732 -3.341568 0
M  V30 36 H 0.876607 3.217901 -0.477027 0
M  V30 37 H 0.967618 1.067972 4.284936 0
M  V30 38 H -1.751510 0.747854 1.726507 0
M  V30 39 H -4.083360 0.230626 2.325664 0
M  V30 40 H -4.721832 -0.103960 4.738818 0
M  V30 41 H -3.086193 0.072697 6.487366 0
M  V30 42 H -0.703895 0.601165 5.876124 0
M  V30 43 H 3.897116 -2.404336 0.518223 0
M  V30 END ATOM
M  V30 BEGIN BOND
M  V30 1 1 1 2
M  V30 2 1 2 3
M  V30 3 2 3 4
M  V30 4 1 4 5
M  V30 5 1 5 6
M  V30 6 2 6 7
M  V30 7 1 6 8
M  V30 8 1 8 9
M  V30 9 1 8 10
M  V30 10 1 8 11
M  V30 11 2 11 12
M  V30 12 1 12 13
M  V30 13 2 13 14
M  V30 14 1 14 15
M  V30 15 1 15 16
M  V30 16 2 16 17
M  V30 17 1 17 18
M  V30 18 2 18 19
M  V30 19 1 19 20
M  V30 20 2 20 21
M  V30 21 1 14 22
M  V30 22 2 22 23
M  V30 23 1 4 24
M  V30 24 2 24 25
M  V30 25 1 25 2
M  V30 26 1 23 5
M  V30 27 1 23 11
M  V30 28 1 21 16
M  V30 29 1 1 26
M  V30 30 1 1 27
M  V30 31 1 1 28
M  V30 32 1 3 29
M  V30 33 1 9 30
M  V30 34 1 9 31
M  V30 35 1 9 32
M  V30 36 1 10 33
M  V30 37 1 10 34
M  V30 38 1 10 35
M  V30 39 1 12 36
M  V30 40 1 15 37
M  V30 41 1 17 38
M  V30 42 1 18 39
M  V30 43 1 19 40
M  V30 44 1 20 41
M  V30 45 1 21 42
M  V30 46 1 24 43
M  V30 END BOND
M  V30 END CTAB
M  END
>  <Dataset>  (65) 
ChEMBL_Kinases

>  <Ligand_Instance>  (65) 
nan

>  <PDB_ID>  (65) 
nan

>  <Standardized_SMILES>  (65) 
Cn1cc(N2C(=O)C(C)(C)c3cnc(Nc4ccccc4)nc32)cn1

>  <Name>  (65) 
nan

>  <Pocket>  (65) 
nan

>  <ATP_Site>  (65) 
nan

>  <Peripheral>  (65) 
nan

>  <Num_H_Atoms_ProtBoundConf>  (65) 
nan

>  <Num_Resolved_Atoms>  (65) 
nan

>  <Num_Not_Resolved_Atoms>  (65) 
nan

$$$$
CHEMBL491193
     RDKit          3D

  0  0  0  0  0  0  0  0  0  0999 V3000
M  V30 BEGIN CTAB
M  V30 COUNTS 50 53 0 0 0
M  V30 BEGIN ATOM
M  V30 1 C 0.922612 -4.544799 0.341545 0
M  V30 2 C 1.534803 -3.532342 -0.572930 0
M  V30 3 C 2.669897 -4.124078 -1.399636 0
M  V30 4 C 3.943698 -4.229125 -0.598149 0
M  V30 5 C 4.365593 -2.885747 -0.058406 0
M  V30 6 C 3.266519 -2.353566 0.834403 0
M  V30 7 C 1.925750 -2.294347 0.172307 0
M  V30 8 C 1.749133 -1.060741 -0.663802 0
M  V30 9 N 2.160170 -0.899097 -1.934370 0
M  V30 10 O 1.863515 0.292825 -2.371125 0
M  V30 11 C 1.240980 0.979011 -1.412442 0
M  V30 12 C 0.704305 2.261304 -1.299752 0
M  V30 13 N 0.119230 2.656605 -0.143633 0
M  V30 14 C 0.041407 1.836395 0.908844 0
M  V30 15 N -0.597532 2.413009 2.034867 0
M  V30 16 C -1.942542 2.836227 2.267131 0 CFG=1
M  V30 17 C -2.349436 3.973554 1.341553 0
M  V30 18 C -2.950855 1.725309 2.179089 0
M  V30 19 C -3.931893 1.554977 3.160505 0
M  V30 20 C -4.869525 0.557387 3.087617 0
M  V30 21 C -4.877802 -0.323934 2.030718 0
M  V30 22 C -3.931293 -0.185053 1.053444 0
M  V30 23 C -2.996608 0.815584 1.133636 0
M  V30 24 C 0.561556 0.556579 0.838857 0
M  V30 25 C 1.160870 0.135254 -0.325980 0
M  V30 26 H -0.102773 -4.761596 0.011603 0
M  V30 27 H 1.535117 -5.469048 0.289126 0
M  V30 28 H 0.867390 -4.131810 1.364836 0
M  V30 29 H 0.762131 -3.247330 -1.346736 0
M  V30 30 H 2.347995 -5.165626 -1.658548 0
M  V30 31 H 2.796388 -3.591293 -2.345889 0
M  V30 32 H 3.724368 -4.895808 0.257671 0
M  V30 33 H 4.704557 -4.707494 -1.235294 0
M  V30 34 H 4.672742 -2.193869 -0.854514 0
M  V30 35 H 5.251869 -3.076780 0.582192 0
M  V30 36 H 3.498962 -1.368181 1.257434 0
M  V30 37 H 3.192919 -3.071293 1.690634 0
M  V30 38 H 1.177149 -2.184349 1.011405 0
M  V30 39 H 0.774430 2.923932 -2.169463 0
M  V30 40 H 0.169678 2.479377 2.737675 0
M  V30 41 H -2.012422 3.230227 3.297039 0
M  V30 42 H -1.558098 4.748024 1.458814 0
M  V30 43 H -2.521783 3.640576 0.318657 0
M  V30 44 H -3.288262 4.431861 1.722834 0
M  V30 45 H -3.942493 2.247126 4.013705 0
M  V30 46 H -5.609054 0.486455 3.893540 0
M  V30 47 H -5.636256 -1.106747 2.000118 0
M  V30 48 H -3.913261 -0.874252 0.194701 0
M  V30 49 H -2.252478 0.928732 0.364781 0
M  V30 50 H 0.480156 -0.073465 1.708655 0
M  V30 END ATOM
M  V30 BEGIN BOND
M  V30 1 1 1 2
M  V30 2 1 2 3
M  V30 3 1 3 4
M  V30 4 1 4 5
M  V30 5 1 5 6
M  V30 6 1 6 7
M  V30 7 1 7 8
M  V30 8 2 8 9
M  V30 9 1 9 10
M  V30 10 1 10 11
M  V30 11 2 11 12
M  V30 12 1 12 13
M  V30 13 2 13 14
M  V30 14 1 14 15
M  V30 15 1 15 16
M  V30 16 1 16 17
M  V30 17 1 16 18
M  V30 18 2 18 19
M  V30 19 1 19 20
M  V30 20 2 20 21
M  V30 21 1 21 22
M  V30 22 2 22 23
M  V30 23 1 14 24
M  V30 24 2 24 25
M  V30 25 1 7 2
M  V30 26 1 25 8
M  V30 27 1 25 11
M  V30 28 1 23 18
M  V30 29 1 1 26
M  V30 30 1 1 27
M  V30 31 1 1 28
M  V30 32 1 2 29
M  V30 33 1 3 30
M  V30 34 1 3 31
M  V30 35 1 4 32
M  V30 36 1 4 33
M  V30 37 1 5 34
M  V30 38 1 5 35
M  V30 39 1 6 36
M  V30 40 1 6 37
M  V30 41 1 7 38
M  V30 42 1 12 39
M  V30 43 1 15 40
M  V30 44 1 16 41 CFG=1
M  V30 45 1 17 42
M  V30 46 1 17 43
M  V30 47 1 17 44
M  V30 48 1 19 45
M  V30 49 1 20 46
M  V30 50 1 21 47
M  V30 51 1 22 48
M  V30 52 1 23 49
M  V30 53 1 24 50
M  V30 END BOND
M  V30 END CTAB
M  END
>  <Dataset>  (66) 
ChEMBL_Kinases

>  <Ligand_Instance>  (66) 
nan

>  <PDB_ID>  (66) 
nan

>  <Standardized_SMILES>  (66) 
CC1CCCCC1c1noc2cnc(N[C@@H](C)c3ccccc3)cc12

>  <Name>  (66) 
nan

>  <Pocket>  (66) 
nan

>  <ATP_Site>  (66) 
nan

>  <Peripheral>  (66) 
nan

>  <Num_H_Atoms_ProtBoundConf>  (66) 
nan

>  <Num_Resolved_Atoms>  (66) 
nan

>  <Num_Not_Resolved_Atoms>  (66) 
nan

$$$$
CHEMBL388395
     RDKit          3D

  0  0  0  0  0  0  0  0  0  0999 V3000
M  V30 BEGIN CTAB
M  V30 COUNTS 54 57 0 0 0
M  V30 BEGIN ATOM
M  V30 1 C 3.886077 -1.844342 -2.767632 0
M  V30 2 N 3.835670 -1.699659 -1.373744 0
M  V30 3 C 2.841670 -2.492055 -0.744823 0
M  V30 4 C 4.873646 -1.137591 -0.637978 0
M  V30 5 C 4.458719 -1.121160 0.851985 0
M  V30 6 C 4.509368 0.376154 1.141779 0
M  V30 7 N 3.939790 0.943248 -0.091654 0
M  V30 8 C 2.899360 1.641876 -0.757500 0
M  V30 9 O 2.639858 2.066482 -1.909815 0
M  V30 10 C 1.879143 1.877587 0.296454 0
M  V30 11 C 1.462673 2.565083 1.426838 0
M  V30 12 N 0.274978 2.095212 1.820271 0
M  V30 13 C -0.169103 1.114426 1.029270 0
M  V30 14 C -1.407945 0.364103 1.114105 0
M  V30 15 C -2.650061 0.718985 1.277180 0
M  V30 16 C -3.081431 2.084931 1.417997 0
M  V30 17 O -2.343623 3.070903 1.403034 0
M  V30 18 N -4.489351 1.998757 1.566986 0
M  V30 19 C -4.889931 0.636604 1.516659 0
M  V30 20 C -6.167260 0.075273 1.609931 0
M  V30 21 C -6.330555 -1.295716 1.525649 0
M  V30 22 C -5.242379 -2.113149 1.351517 0
M  V30 23 N -5.212947 -3.521783 1.234257 0
M  V30 24 C -5.124936 -4.664909 2.105897 0
M  V30 25 N -5.140377 -5.963758 1.489080 0
M  V30 26 O -5.041276 -4.587960 3.347121 0
M  V30 27 C -3.969293 -1.572336 1.257476 0
M  V30 28 C -3.788020 -0.186094 1.339789 0
M  V30 29 C 0.833634 0.960168 0.055554 0
M  V30 30 C 5.053660 0.373204 -0.890984 0
M  V30 31 H 3.065839 -2.577453 -3.050773 0
M  V30 32 H 3.575744 -0.920818 -3.336037 0
M  V30 33 H 4.813802 -2.277753 -3.202831 0
M  V30 34 H 3.167359 -3.177468 0.049041 0
M  V30 35 H 1.960672 -1.847220 -0.445034 0
M  V30 36 H 2.356016 -3.189307 -1.505611 0
M  V30 37 H 5.840946 -1.674996 -0.671476 0
M  V30 38 H 5.139467 -1.708633 1.471801 0
M  V30 39 H 3.410691 -1.411771 0.912190 0
M  V30 40 H 3.912664 0.570329 2.028816 0
M  V30 41 H 5.540852 0.750161 1.284852 0
M  V30 42 H 2.248996 3.288327 1.648632 0
M  V30 43 H -0.095630 2.544863 2.655494 0
M  V30 44 H -1.193678 -0.717935 1.021130 0
M  V30 45 H -5.060599 2.887404 1.692719 0
M  V30 46 H -7.047163 0.692627 1.750540 0
M  V30 47 H -7.269525 -1.812551 1.586204 0
M  V30 48 H -5.279621 -3.697747 0.184620 0
M  V30 49 H -5.751470 -6.619551 0.913009 0
M  V30 50 H -4.429826 -6.747576 1.430804 0
M  V30 51 H -3.013315 -2.090286 1.118690 0
M  V30 52 H 0.630785 0.184001 -0.688892 0
M  V30 53 H 4.989965 0.613815 -1.945516 0
M  V30 54 H 6.038228 0.653598 -0.498369 0
M  V30 END ATOM
M  V30 BEGIN BOND
M  V30 1 1 1 2
M  V30 2 1 2 3
M  V30 3 1 2 4
M  V30 4 1 4 5
M  V30 5 1 5 6
M  V30 6 1 6 7
M  V30 7 1 7 8
M  V30 8 2 8 9
M  V30 9 1 8 10
M  V30 10 2 10 11
M  V30 11 1 11 12
M  V30 12 1 12 13
M  V30 13 1 13 14
M  V30 14 2 14 15
M  V30 15 1 15 16
M  V30 16 2 16 17
M  V30 17 1 16 18
M  V30 18 1 18 19
M  V30 19 2 19 20
M  V30 20 1 20 21
M  V30 21 2 21 22
M  V30 22 1 22 23
M  V30 23 1 23 24
M  V30 24 1 24 25
M  V30 25 2 24 26
M  V30 26 1 22 27
M  V30 27 2 27 28
M  V30 28 2 13 29
M  V30 29 1 7 30
M  V30 30 1 30 4
M  V30 31 1 29 10
M  V30 32 1 28 15
M  V30 33 1 28 19
M  V30 34 1 1 31
M  V30 35 1 1 32
M  V30 36 1 1 33
M  V30 37 1 3 34
M  V30 38 1 3 35
M  V30 39 1 3 36
M  V30 40 1 4 37
M  V30 41 1 5 38
M  V30 42 1 5 39
M  V30 43 1 6 40
M  V30 44 1 6 41
M  V30 45 1 11 42
M  V30 46 1 12 43
M  V30 47 1 14 44
M  V30 48 1 18 45
M  V30 49 1 20 46
M  V30 50 1 21 47
M  V30 51 1 23 48
M  V30 52 1 25 49
M  V30 53 1 25 50
M  V30 54 1 27 51
M  V30 55 1 29 52
M  V30 56 1 30 53
M  V30 57 1 30 54
M  V30 END BOND
M  V30 END CTAB
M  END
>  <Dataset>  (67) 
ChEMBL_Kinases

>  <Ligand_Instance>  (67) 
nan

>  <PDB_ID>  (67) 
nan

>  <Standardized_SMILES>  (67) 
CN(C)C1CCN(C(=O)c2c[nH]c(/C=C3\C(=O)Nc4ccc(NC(N)=O)cc43)c2)C1

>  <Name>  (67) 
nan

>  <Pocket>  (67) 
nan

>  <ATP_Site>  (67) 
nan

>  <Peripheral>  (67) 
nan

>  <Num_H_Atoms_ProtBoundConf>  (67) 
nan

>  <Num_Resolved_Atoms>  (67) 
nan

>  <Num_Not_Resolved_Atoms>  (67) 
nan

$$$$
CHEMBL3883943
     RDKit          3D

  0  0  0  0  0  0  0  0  0  0999 V3000
M  V30 BEGIN CTAB
M  V30 COUNTS 38 40 0 0 0
M  V30 BEGIN ATOM
M  V30 1 C 1.701935 -5.468077 -0.013294 0
M  V30 2 O 2.806603 -5.113704 0.795501 0
M  V30 3 C 3.022769 -3.852931 1.310649 0
M  V30 4 C 4.115083 -3.552326 2.095984 0
M  V30 5 N 4.263725 -2.302361 2.565320 0
M  V30 6 C 3.398191 -1.316737 2.310736 0
M  V30 7 C 2.261552 -1.507653 1.529362 0
M  V30 8 C 1.277115 -0.504517 1.182751 0
M  V30 9 C 1.398850 0.734940 0.798667 0
M  V30 10 C 2.807123 1.106462 0.726734 0
M  V30 11 N 3.939250 1.412831 0.649790 0
M  V30 12 C 0.435541 1.740270 0.437976 0
M  V30 13 C 0.821285 3.045325 0.100173 0
M  V30 14 N -0.253186 3.780433 -0.198958 0
M  V30 15 C -1.372293 3.068322 -0.091273 0
M  V30 16 C -2.706880 3.323089 -0.279329 0
M  V30 17 C -3.657898 2.340824 -0.084607 0
M  V30 18 C -3.210494 1.081225 0.309543 0
M  V30 19 O -4.224937 0.149351 0.483812 0
M  V30 20 C -3.890992 -1.168174 0.882647 0
M  V30 21 C -1.878417 0.863965 0.486885 0
M  V30 22 C -0.925822 1.830099 0.297539 0
M  V30 23 C 2.145401 -2.822127 1.061593 0
M  V30 24 H 0.807486 -5.027930 0.486805 0
M  V30 25 H 1.652533 -6.586518 0.012970 0
M  V30 26 H 1.779919 -5.065381 -1.034814 0
M  V30 27 H 4.852874 -4.306185 2.341422 0
M  V30 28 H 3.566702 -0.351492 2.720684 0
M  V30 29 H 0.296164 -0.900807 1.283238 0
M  V30 30 H 1.818495 3.515224 0.052131 0
M  V30 31 H -0.264899 4.787008 -0.486663 0
M  V30 32 H -2.971714 4.337860 -0.587391 0
M  V30 33 H -4.684675 2.653591 -0.262165 0
M  V30 34 H -4.700718 -1.891355 0.636110 0
M  V30 35 H -2.983073 -1.540880 0.352706 0
M  V30 36 H -3.645783 -1.169273 1.978791 0
M  V30 37 H -1.593393 -0.115378 0.784243 0
M  V30 38 H 1.271296 -3.028144 0.445913 0
M  V30 END ATOM
M  V30 BEGIN BOND
M  V30 1 1 1 2
M  V30 2 1 2 3
M  V30 3 2 3 4
M  V30 4 1 4 5
M  V30 5 2 5 6
M  V30 6 1 6 7
M  V30 7 1 7 8
M  V30 8 2 8 9
M  V30 9 1 9 10
M  V30 10 3 10 11
M  V30 11 1 9 12
M  V30 12 2 12 13
M  V30 13 1 13 14
M  V30 14 1 14 15
M  V30 15 2 15 16
M  V30 16 1 16 17
M  V30 17 2 17 18
M  V30 18 1 18 19
M  V30 19 1 19 20
M  V30 20 1 18 21
M  V30 21 2 21 22
M  V30 22 2 7 23
M  V30 23 1 23 3
M  V30 24 1 22 12
M  V30 25 1 22 15
M  V30 26 1 1 24
M  V30 27 1 1 25
M  V30 28 1 1 26
M  V30 29 1 4 27
M  V30 30 1 6 28
M  V30 31 1 8 29
M  V30 32 1 13 30
M  V30 33 1 14 31
M  V30 34 1 16 32
M  V30 35 1 17 33
M  V30 36 1 20 34
M  V30 37 1 20 35
M  V30 38 1 20 36
M  V30 39 1 21 37
M  V30 40 1 23 38
M  V30 END BOND
M  V30 END CTAB
M  END
>  <Dataset>  (68) 
ChEMBL_Kinases

>  <Ligand_Instance>  (68) 
nan

>  <PDB_ID>  (68) 
nan

>  <Standardized_SMILES>  (68) 
COc1cncc(/C=C(\C#N)c2c[nH]c3ccc(OC)cc23)c1

>  <Name>  (68) 
nan

>  <Pocket>  (68) 
nan

>  <ATP_Site>  (68) 
nan

>  <Peripheral>  (68) 
nan

>  <Num_H_Atoms_ProtBoundConf>  (68) 
nan

>  <Num_Resolved_Atoms>  (68) 
nan

>  <Num_Not_Resolved_Atoms>  (68) 
nan

$$$$
CHEMBL388391
     RDKit          3D

  0  0  0  0  0  0  0  0  0  0999 V3000
M  V30 BEGIN CTAB
M  V30 COUNTS 34 37 0 0 0
M  V30 BEGIN ATOM
M  V30 1 O -1.905329 -3.173804 3.492602 0
M  V30 2 C -1.086852 -3.697373 2.698672 0
M  V30 3 N -0.738250 -5.070564 2.713914 0
M  V30 4 C 0.583950 -5.394893 2.210027 0
M  V30 5 C 0.809583 -4.811593 0.828670 0
M  V30 6 C 0.447785 -3.370264 0.807931 0
M  V30 7 N 0.877580 -2.360144 -0.003777 0
M  V30 8 C 0.289209 -1.221803 0.332856 0
M  V30 9 C 0.504814 0.066535 -0.314447 0
M  V30 10 C 1.397423 0.092257 -1.363592 0
M  V30 11 C 1.587595 1.319054 -1.962291 0
M  V30 12 N 0.918755 2.427616 -1.522614 0
M  V30 13 C 0.055459 2.391042 -0.504328 0
M  V30 14 C -0.689848 3.507721 0.022121 0
M  V30 15 C -0.421181 4.627053 -0.635010 0
M  V30 16 C -1.050721 5.884773 -0.286932 0
M  V30 17 S -2.151183 5.349990 1.160926 0
M  V30 18 C -1.632889 3.535668 1.113542 0
M  V30 19 C -0.151089 1.195204 0.103961 0
M  V30 20 C -0.551563 -1.484367 1.394319 0
M  V30 21 C -0.469858 -2.819865 1.709306 0
M  V30 22 H -1.461630 -5.743484 3.087388 0
M  V30 23 H 0.719527 -6.488429 2.169950 0
M  V30 24 H 1.312209 -4.944713 2.940333 0
M  V30 25 H 1.895268 -4.953997 0.613662 0
M  V30 26 H 0.194141 -5.412428 0.121884 0
M  V30 27 H 1.581668 -2.517981 -0.776634 0
M  V30 28 H 1.956826 -0.733630 -1.762445 0
M  V30 29 H 2.250102 1.541571 -2.803477 0
M  V30 30 H 0.154788 5.027993 -1.429971 0
M  V30 31 H -1.371976 6.945154 -0.237849 0
M  V30 32 H -1.856801 2.513683 1.688562 0
M  V30 33 H -0.812904 1.020032 0.929792 0
M  V30 34 H -1.186213 -0.789500 1.921193 0
M  V30 END ATOM
M  V30 BEGIN BOND
M  V30 1 2 1 2
M  V30 2 1 2 3
M  V30 3 1 3 4
M  V30 4 1 4 5
M  V30 5 1 5 6
M  V30 6 1 6 7
M  V30 7 1 7 8
M  V30 8 1 8 9
M  V30 9 2 9 10
M  V30 10 1 10 11
M  V30 11 2 11 12
M  V30 12 1 12 13
M  V30 13 1 13 14
M  V30 14 1 14 15
M  V30 15 2 15 16
M  V30 16 1 16 17
M  V30 17 1 17 18
M  V30 18 2 13 19
M  V30 19 2 8 20
M  V30 20 1 20 21
M  V30 21 1 21 2
M  V30 22 2 21 6
M  V30 23 1 19 9
M  V30 24 2 18 14
M  V30 25 1 3 22
M  V30 26 1 4 23
M  V30 27 1 4 24
M  V30 28 1 5 25
M  V30 29 1 5 26
M  V30 30 1 7 27
M  V30 31 1 10 28
M  V30 32 1 11 29
M  V30 33 1 15 30
M  V30 34 1 16 31
M  V30 35 1 18 32
M  V30 36 1 19 33
M  V30 37 1 20 34
M  V30 END BOND
M  V30 END CTAB
M  END
>  <Dataset>  (69) 
ChEMBL_Kinases

>  <Ligand_Instance>  (69) 
nan

>  <PDB_ID>  (69) 
nan

>  <Standardized_SMILES>  (69) 
O=C1NCCc2[nH]c(-c3ccnc(-c4ccsc4)c3)cc21

>  <Name>  (69) 
nan

>  <Pocket>  (69) 
nan

>  <ATP_Site>  (69) 
nan

>  <Peripheral>  (69) 
nan

>  <Num_H_Atoms_ProtBoundConf>  (69) 
nan

>  <Num_Resolved_Atoms>  (69) 
nan

>  <Num_Not_Resolved_Atoms>  (69) 
nan

$$$$
CHEMBL491137
     RDKit          3D

  0  0  0  0  0  0  0  0  0  0999 V3000
M  V30 BEGIN CTAB
M  V30 COUNTS 54 58 0 0 0
M  V30 BEGIN ATOM
M  V30 1 C 3.275639 -0.080836 6.199000 0
M  V30 2 N 3.237179 -0.690494 4.894552 0
M  V30 3 C 4.100709 -1.853456 4.919413 0
M  V30 4 C 4.317900 -2.343144 3.522738 0
M  V30 5 N 3.189830 -2.020115 2.674753 0
M  V30 6 C 3.316544 -1.681613 1.299714 0
M  V30 7 O 4.481247 -1.675619 0.829632 0
M  V30 8 C 2.081917 -1.378454 0.586558 0
M  V30 9 C 1.808464 -0.012997 0.625711 0
M  V30 10 C 0.687698 0.516945 0.015124 0
M  V30 11 C -0.162429 -0.369181 -0.643995 0
M  V30 12 C -1.356806 -0.249938 -1.365044 0
M  V30 13 C -1.938755 1.082288 -1.524985 0
M  V30 14 C -2.379009 1.925726 -0.513805 0
M  V30 15 C -2.906195 3.165997 -0.848332 0
M  V30 16 N -2.987999 3.543469 -2.142756 0
M  V30 17 C -2.557234 2.716982 -3.127263 0
M  V30 18 C -2.019799 1.463870 -2.860975 0
M  V30 19 C -1.707904 -1.510630 -1.773787 0
M  V30 20 C -2.942435 -1.582825 -2.548277 0
M  V30 21 C -4.134633 -1.206460 -1.917267 0
M  V30 22 C -5.373521 -1.224787 -2.539409 0
M  V30 23 C -5.430784 -1.637112 -3.853228 0
M  V30 24 F -6.603096 -1.683555 -4.533537 0
M  V30 25 C -4.283856 -2.015590 -4.512187 0
M  V30 26 C -3.059733 -1.990795 -3.875907 0
M  V30 27 N -0.805994 -2.417226 -1.353987 0
M  V30 28 C 0.120188 -1.719160 -0.674877 0
M  V30 29 C 1.238239 -2.249730 -0.066145 0
M  V30 30 C 1.912677 -2.077318 3.380436 0
M  V30 31 C 1.884324 -1.039776 4.491782 0
M  V30 32 H 2.319127 0.490528 6.352860 0
M  V30 33 H 3.457256 -0.804975 7.024175 0
M  V30 34 H 4.087154 0.680485 6.266891 0
M  V30 35 H 3.713568 -2.655249 5.580475 0
M  V30 36 H 5.054419 -1.495306 5.384142 0
M  V30 37 H 5.257059 -1.865762 3.116741 0
M  V30 38 H 4.513951 -3.452781 3.520533 0
M  V30 39 H 2.413971 0.758067 1.116671 0
M  V30 40 H 0.433742 1.575102 0.020096 0
M  V30 41 H -2.267704 1.525552 0.487728 0
M  V30 42 H -3.231368 3.776457 -0.014117 0
M  V30 43 H -2.646558 3.073418 -4.158289 0
M  V30 44 H -1.704565 0.879252 -3.717334 0
M  V30 45 H -4.107327 -0.883131 -0.894567 0
M  V30 46 H -6.256149 -0.923911 -2.000097 0
M  V30 47 H -4.220213 -2.348480 -5.524704 0
M  V30 48 H -2.098627 -2.274068 -4.323212 0
M  V30 49 H -0.916257 -3.423911 -1.575607 0
M  V30 50 H 1.544570 -3.284343 -0.034369 0
M  V30 51 H 1.751485 -3.109291 3.749853 0
M  V30 52 H 1.072614 -1.842093 2.697241 0
M  V30 53 H 1.376791 -1.504022 5.356630 0
M  V30 54 H 1.341645 -0.119455 4.213306 0
M  V30 END ATOM
M  V30 BEGIN BOND
M  V30 1 1 1 2
M  V30 2 1 2 3
M  V30 3 1 3 4
M  V30 4 1 4 5
M  V30 5 1 5 6
M  V30 6 2 6 7
M  V30 7 1 6 8
M  V30 8 2 8 9
M  V30 9 1 9 10
M  V30 10 2 10 11
M  V30 11 1 11 12
M  V30 12 1 12 13
M  V30 13 2 13 14
M  V30 14 1 14 15
M  V30 15 2 15 16
M  V30 16 1 16 17
M  V30 17 2 17 18
M  V30 18 2 12 19
M  V30 19 1 19 20
M  V30 20 2 20 21
M  V30 21 1 21 22
M  V30 22 2 22 23
M  V30 23 1 23 24
M  V30 24 1 23 25
M  V30 25 2 25 26
M  V30 26 1 19 27
M  V30 27 1 27 28
M  V30 28 2 28 29
M  V30 29 1 5 30
M  V30 30 1 30 31
M  V30 31 1 31 2
M  V30 32 1 29 8
M  V30 33 1 28 11
M  V30 34 1 18 13
M  V30 35 1 26 20
M  V30 36 1 1 32
M  V30 37 1 1 33
M  V30 38 1 1 34
M  V30 39 1 3 35
M  V30 40 1 3 36
M  V30 41 1 4 37
M  V30 42 1 4 38
M  V30 43 1 9 39
M  V30 44 1 10 40
M  V30 45 1 14 41
M  V30 46 1 15 42
M  V30 47 1 17 43
M  V30 48 1 18 44
M  V30 49 1 21 45
M  V30 50 1 22 46
M  V30 51 1 25 47
M  V30 52 1 26 48
M  V30 53 1 27 49
M  V30 54 1 29 50
M  V30 55 1 30 51
M  V30 56 1 30 52
M  V30 57 1 31 53
M  V30 58 1 31 54
M  V30 END BOND
M  V30 END CTAB
M  END
>  <Dataset>  (70) 
ChEMBL_Kinases

>  <Ligand_Instance>  (70) 
nan

>  <PDB_ID>  (70) 
nan

>  <Standardized_SMILES>  (70) 
CN1CCN(C(=O)c2ccc3c(-c4ccncc4)c(-c4ccc(F)cc4)[nH]c3c2)CC1

>  <Name>  (70) 
nan

>  <Pocket>  (70) 
nan

>  <ATP_Site>  (70) 
nan

>  <Peripheral>  (70) 
nan

>  <Num_H_Atoms_ProtBoundConf>  (70) 
nan

>  <Num_Resolved_Atoms>  (70) 
nan

>  <Num_Not_Resolved_Atoms>  (70) 
nan

$$$$
CHEMBL4878376
     RDKit          3D

  0  0  0  0  0  0  0  0  0  0999 V3000
M  V30 BEGIN CTAB
M  V30 COUNTS 50 54 0 0 0
M  V30 BEGIN ATOM
M  V30 1 C -1.884862 -2.372721 -2.551282 0
M  V30 2 C -0.645567 -3.040207 -1.944883 0 CFG=1
M  V30 3 N 0.225955 -2.021296 -1.405578 0
M  V30 4 C 1.525446 -1.740222 -1.832204 0
M  V30 5 O 1.745347 -2.565875 -2.773807 0
M  V30 6 C 2.558544 -0.811370 -1.469358 0
M  V30 7 C 3.730171 -0.876005 -2.189012 0
M  V30 8 N 4.563389 0.080753 -1.683514 0
M  V30 9 C 3.978022 0.746548 -0.681294 0
M  V30 10 C 4.324813 1.774301 0.170379 0
M  V30 11 C 3.439635 2.226550 1.125248 0
M  V30 12 C 2.183532 1.635490 1.226471 0
M  V30 13 C 1.173835 2.057501 2.221973 0
M  V30 14 C 1.457780 2.546232 3.479550 0
M  V30 15 C 0.405506 2.904141 4.314221 0
M  V30 16 C -0.913831 2.784850 3.922139 0
M  V30 17 N -1.944353 3.127325 4.720748 0
M  V30 18 C -3.228950 3.001370 4.314982 0
M  V30 19 C -3.593106 2.520522 3.071673 0
M  V30 20 C -2.535745 2.164532 2.241411 0
M  V30 21 C -1.231579 2.296347 2.662972 0
M  V30 22 C -0.161419 1.942382 1.838842 0
M  V30 23 C 1.921781 0.617906 0.338248 0
M  V30 24 N 2.771788 0.168384 -0.594542 0
M  V30 25 C -1.063183 -4.000374 -0.859142 0
M  V30 26 C -2.320109 -4.499440 -0.586515 0
M  V30 27 C -2.454471 -5.371208 0.469025 0
M  V30 28 C -1.371224 -5.742886 1.239393 0
M  V30 29 C -0.106616 -5.245164 0.970614 0
M  V30 30 C 0.020351 -4.372444 -0.088120 0
M  V30 31 H -1.525821 -1.636609 -3.278976 0
M  V30 32 H -2.505171 -3.123429 -3.072068 0
M  V30 33 H -2.445279 -1.804966 -1.782001 0
M  V30 34 H -0.190304 -3.623115 -2.771043 0
M  V30 35 H -0.126690 -1.432924 -0.630881 0
M  V30 36 H 4.175862 -1.447680 -3.018449 0
M  V30 37 H 5.316618 2.213644 0.063446 0
M  V30 38 H 3.690854 3.031226 1.804276 0
M  V30 39 H 2.500196 2.625164 3.751910 0
M  V30 40 H 0.620609 3.287366 5.297951 0
M  V30 41 H -4.028848 3.289979 4.993875 0
M  V30 42 H -4.610080 2.410597 2.723719 0
M  V30 43 H -2.756697 1.781997 1.257912 0
M  V30 44 H -0.468772 1.570698 0.869408 0
M  V30 45 H 0.945853 0.185658 0.448588 0
M  V30 46 H -3.069244 -4.133673 -1.254448 0
M  V30 47 H -3.468680 -5.737477 0.643802 0
M  V30 48 H -1.500882 -6.428984 2.064758 0
M  V30 49 H 0.718111 -5.567035 1.606196 0
M  V30 50 H 1.059005 -4.037797 -0.217352 0
M  V30 END ATOM
M  V30 BEGIN BOND
M  V30 1 1 1 2
M  V30 2 1 2 3
M  V30 3 1 3 4
M  V30 4 2 4 5
M  V30 5 1 4 6
M  V30 6 2 6 7
M  V30 7 1 7 8
M  V30 8 2 8 9
M  V30 9 1 9 10
M  V30 10 2 10 11
M  V30 11 1 11 12
M  V30 12 1 12 13
M  V30 13 2 13 14
M  V30 14 1 14 15
M  V30 15 2 15 16
M  V30 16 1 16 17
M  V30 17 2 17 18
M  V30 18 1 18 19
M  V30 19 2 19 20
M  V30 20 1 20 21
M  V30 21 2 21 22
M  V30 22 2 12 23
M  V30 23 1 23 24
M  V30 24 1 2 25
M  V30 25 2 25 26
M  V30 26 1 26 27
M  V30 27 2 27 28
M  V30 28 1 28 29
M  V30 29 2 29 30
M  V30 30 1 24 6
M  V30 31 1 30 25
M  V30 32 1 24 9
M  V30 33 1 22 13
M  V30 34 1 21 16
M  V30 35 1 1 31
M  V30 36 1 1 32
M  V30 37 1 1 33
M  V30 38 1 2 34 CFG=3
M  V30 39 1 3 35
M  V30 40 1 7 36
M  V30 41 1 10 37
M  V30 42 1 11 38
M  V30 43 1 14 39
M  V30 44 1 15 40
M  V30 45 1 18 41
M  V30 46 1 19 42
M  V30 47 1 20 43
M  V30 48 1 22 44
M  V30 49 1 23 45
M  V30 50 1 26 46
M  V30 51 1 27 47
M  V30 52 1 28 48
M  V30 53 1 29 49
M  V30 54 1 30 50
M  V30 END BOND
M  V30 END CTAB
M  END
>  <Dataset>  (71) 
ChEMBL_Kinases

>  <Ligand_Instance>  (71) 
nan

>  <PDB_ID>  (71) 
nan

>  <Standardized_SMILES>  (71) 
C[C@@H](NC(=O)c1cnc2ccc(-c3ccc4ncccc4c3)cn12)c1ccccc1

>  <Name>  (71) 
nan

>  <Pocket>  (71) 
nan

>  <ATP_Site>  (71) 
nan

>  <Peripheral>  (71) 
nan

>  <Num_H_Atoms_ProtBoundConf>  (71) 
nan

>  <Num_Resolved_Atoms>  (71) 
nan

>  <Num_Not_Resolved_Atoms>  (71) 
nan

$$$$
CHEMBL3898540
     RDKit          3D

  0  0  0  0  0  0  0  0  0  0999 V3000
M  V30 BEGIN CTAB
M  V30 COUNTS 55 56 0 0 0
M  V30 BEGIN ATOM
M  V30 1 C -6.424888 -2.779070 -4.444109 0
M  V30 2 C -5.198599 -2.452301 -3.628727 0
M  V30 3 N -5.100806 -1.039853 -3.322233 0
M  V30 4 C -4.007086 -0.536866 -2.558170 0
M  V30 5 C -3.978302 0.818402 -2.303343 0
M  V30 6 C -2.859056 1.202165 -1.544719 0
M  V30 7 O -2.862723 2.596941 -1.306488 0
M  V30 8 C -1.845764 0.348501 -1.067068 0
M  V30 9 C -1.976195 -0.960682 -1.377426 0
M  V30 10 C -3.038669 -1.409515 -2.112681 0
M  V30 11 C -1.045540 -2.015689 -1.000321 0
M  V30 12 C 0.186614 -1.828818 -0.612138 0
M  V30 13 C 1.538897 -2.176454 -0.147429 0
M  V30 14 C 2.562078 -1.637600 -1.151642 0 CFG=2
M  V30 15 O 2.490073 -2.358123 -2.331356 0
M  V30 16 C 3.908224 -1.578093 -0.557433 0 CFG=1
M  V30 17 O 4.852973 -1.046940 -1.416995 0
M  V30 18 C 3.951078 -0.805630 0.707097 0
M  V30 19 O 4.530937 -0.592165 1.774005 0
M  V30 20 C 2.982803 0.204280 1.059457 0
M  V30 21 C 2.544103 1.079067 1.922261 0
M  V30 22 C 1.536172 2.084624 2.208401 0 CFG=1
M  V30 23 C 2.215025 3.405009 2.624270 0
M  V30 24 C 0.493621 2.408591 1.233270 0 CFG=2
M  V30 25 C -0.359577 3.533876 1.933986 0
M  V30 26 O -0.490121 1.430654 0.981990 0
M  V30 27 C -0.922328 1.186115 -0.338150 0
M  V30 28 O -0.302036 1.950560 -1.158017 0
M  V30 29 H -6.550539 -3.881399 -4.420728 0
M  V30 30 H -6.227597 -2.521037 -5.514813 0
M  V30 31 H -7.319728 -2.262740 -4.058864 0
M  V30 32 H -4.326379 -2.834382 -4.212131 0
M  V30 33 H -5.287427 -2.985783 -2.651511 0
M  V30 34 H -5.845532 -0.436407 -3.678187 0
M  V30 35 H -4.740569 1.462573 -2.661631 0
M  V30 36 H -3.294160 2.835062 -0.403763 0
M  V30 37 H -3.169611 -2.441874 -2.375284 0
M  V30 38 H -1.344485 -3.079447 -1.019822 0
M  V30 39 H 0.383110 -0.740154 -0.618316 0
M  V30 40 H 1.806251 -1.853147 0.858908 0
M  V30 41 H 1.658164 -3.309034 -0.096138 0
M  V30 42 H 2.283072 -0.573565 -1.433318 0
M  V30 43 H 1.869871 -1.947187 -2.995601 0
M  V30 44 H 4.220177 -2.646970 -0.358909 0
M  V30 45 H 4.504139 -0.799407 -2.308420 0
M  V30 46 H 2.257795 0.380843 0.284548 0
M  V30 47 H 3.204524 1.069677 2.830036 0
M  V30 48 H 0.988093 1.779318 3.165626 0
M  V30 49 H 3.236318 3.199704 3.023526 0
M  V30 50 H 2.225120 4.034281 1.724122 0
M  V30 51 H 1.653058 3.872286 3.453426 0
M  V30 52 H 0.920794 2.874369 0.318298 0
M  V30 53 H -0.684360 3.049275 2.877762 0
M  V30 54 H -1.243955 3.666356 1.305586 0
M  V30 55 H 0.242090 4.426683 2.088348 0
M  V30 END ATOM
M  V30 BEGIN BOND
M  V30 1 1 1 2
M  V30 2 1 2 3
M  V30 3 1 3 4
M  V30 4 2 4 5
M  V30 5 1 5 6
M  V30 6 1 6 7
M  V30 7 2 6 8
M  V30 8 1 8 9
M  V30 9 2 9 10
M  V30 10 1 9 11
M  V30 11 2 11 12
M  V30 12 1 12 13
M  V30 13 1 13 14
M  V30 14 1 14 15
M  V30 15 1 14 16
M  V30 16 1 16 17
M  V30 17 1 16 18
M  V30 18 2 18 19
M  V30 19 1 18 20
M  V30 20 2 20 21
M  V30 21 1 21 22
M  V30 22 1 22 23
M  V30 23 1 22 24
M  V30 24 1 24 25
M  V30 25 1 24 26
M  V30 26 1 26 27
M  V30 27 2 27 28
M  V30 28 1 10 4
M  V30 29 1 27 8
M  V30 30 1 1 29
M  V30 31 1 1 30
M  V30 32 1 1 31
M  V30 33 1 2 32
M  V30 34 1 2 33
M  V30 35 1 3 34
M  V30 36 1 5 35
M  V30 37 1 7 36
M  V30 38 1 10 37
M  V30 39 1 11 38
M  V30 40 1 12 39
M  V30 41 1 13 40
M  V30 42 1 13 41
M  V30 43 1 14 42 CFG=3
M  V30 44 1 15 43
M  V30 45 1 16 44 CFG=1
M  V30 46 1 17 45
M  V30 47 1 20 46
M  V30 48 1 21 47
M  V30 49 1 22 48 CFG=1
M  V30 50 1 23 49
M  V30 51 1 23 50
M  V30 52 1 23 51
M  V30 53 1 24 52 CFG=3
M  V30 54 1 25 53
M  V30 55 1 25 54
M  V30 56 1 25 55
M  V30 END BOND
M  V30 END CTAB
M  END
>  <Dataset>  (72) 
ChEMBL_Kinases

>  <Ligand_Instance>  (72) 
nan

>  <PDB_ID>  (72) 
nan

>  <Standardized_SMILES>  (72) 
CCNc1cc(O)c2c(c1)/C=C/C[C@H](O)[C@@H](O)C(=O)/C=C/[C@@H](C)[C@H](C)OC2=O

>  <Name>  (72) 
nan

>  <Pocket>  (72) 
nan

>  <ATP_Site>  (72) 
nan

>  <Peripheral>  (72) 
nan

>  <Num_H_Atoms_ProtBoundConf>  (72) 
nan

>  <Num_Resolved_Atoms>  (72) 
nan

>  <Num_Not_Resolved_Atoms>  (72) 
nan

$$$$
CHEMBL3898428
     RDKit          3D

  0  0  0  0  0  0  0  0  0  0999 V3000
M  V30 BEGIN CTAB
M  V30 COUNTS 54 58 0 0 0
M  V30 BEGIN ATOM
M  V30 1 O -3.940023 -5.900304 2.730671 0
M  V30 2 C -3.274545 -4.717408 2.416386 0
M  V30 3 C -3.952132 -3.648464 3.024788 0
M  V30 4 C -3.470534 -2.344835 2.854204 0
M  V30 5 C -2.357008 -2.141830 2.103120 0
M  V30 6 C -1.741645 -0.843661 1.837419 0
M  V30 7 C -0.381768 -0.697824 1.647621 0
M  V30 8 C 0.175931 0.533257 1.398109 0
M  V30 9 C -0.608902 1.634472 1.333933 0
M  V30 10 C -0.244313 2.934232 1.098034 0
M  V30 11 C 0.967976 3.667594 0.841672 0
M  V30 12 C 2.234971 3.419857 0.724169 0
M  V30 13 C 3.362143 4.300026 0.456376 0
M  V30 14 C 4.623554 3.750090 0.385242 0
M  V30 15 C 5.712507 4.540400 0.135815 0
M  V30 16 C 5.589283 5.893608 -0.050374 0
M  V30 17 C 4.336094 6.495676 0.012044 0
M  V30 18 C 3.270054 5.657707 0.265781 0
M  V30 19 N -1.434901 3.603217 1.147234 0
M  V30 20 N -2.407486 2.762697 1.390990 0
M  V30 21 C -1.965870 1.500934 1.521516 0
M  V30 22 C -2.546575 0.276551 1.772934 0
M  V30 23 C -1.708589 -3.203950 1.516040 0
M  V30 24 C -2.120663 -4.507477 1.637907 0
M  V30 25 O -1.731686 -5.738699 1.209031 0
M  V30 26 C -0.682069 -6.124312 0.418635 0
M  V30 27 C -0.637198 -5.589230 -0.956547 0
M  V30 28 C 0.016299 -4.496911 -1.483630 0
M  V30 29 C -0.075718 -4.143425 -2.809415 0
M  V30 30 C -0.834329 -4.866227 -3.704171 0
M  V30 31 C -1.509221 -5.970064 -3.228756 0
M  V30 32 C -1.396843 -6.297409 -1.896317 0
M  V30 33 H -3.780593 -6.765110 2.214833 0
M  V30 34 H -4.834140 -3.686730 3.635519 0
M  V30 35 H -3.942032 -1.484661 3.292228 0
M  V30 36 H 0.229320 -1.595000 1.703597 0
M  V30 37 H 1.230860 0.586307 1.259687 0
M  V30 38 H 0.905036 4.758823 0.687411 0
M  V30 39 H 2.436407 2.374182 0.855047 0
M  V30 40 H 4.781332 2.682899 0.524710 0
M  V30 41 H 6.698942 4.059902 0.087823 0
M  V30 42 H 6.456298 6.528358 -0.249744 0
M  V30 43 H 4.222971 7.558969 -0.132275 0
M  V30 44 H 2.320243 6.139337 0.309486 0
M  V30 45 H -3.396733 3.084034 1.466061 0
M  V30 46 H -3.638415 0.237871 1.913746 0
M  V30 47 H -0.836214 -3.159814 0.917991 0
M  V30 48 H -0.717250 -7.246781 0.339834 0
M  V30 49 H 0.306553 -5.856998 0.886198 0
M  V30 50 H 0.607435 -3.959561 -0.756674 0
M  V30 51 H 0.506355 -3.248845 -3.060807 0
M  V30 52 H -0.853441 -4.523476 -4.722419 0
M  V30 53 H -2.110797 -6.553642 -3.910485 0
M  V30 54 H -1.967974 -7.191802 -1.603531 0
M  V30 END ATOM
M  V30 BEGIN BOND
M  V30 1 1 1 2
M  V30 2 2 2 3
M  V30 3 1 3 4
M  V30 4 2 4 5
M  V30 5 1 5 6
M  V30 6 2 6 7
M  V30 7 1 7 8
M  V30 8 2 8 9
M  V30 9 1 9 10
M  V30 10 1 10 11
M  V30 11 2 11 12
M  V30 12 1 12 13
M  V30 13 2 13 14
M  V30 14 1 14 15
M  V30 15 2 15 16
M  V30 16 1 16 17
M  V30 17 2 17 18
M  V30 18 2 10 19
M  V30 19 1 19 20
M  V30 20 1 20 21
M  V30 21 2 21 22
M  V30 22 1 5 23
M  V30 23 2 23 24
M  V30 24 1 24 25
M  V30 25 1 25 26
M  V30 26 1 26 27
M  V30 27 2 27 28
M  V30 28 1 28 29
M  V30 29 2 29 30
M  V30 30 1 30 31
M  V30 31 2 31 32
M  V30 32 1 24 2
M  V30 33 1 32 27
M  V30 34 1 22 6
M  V30 35 1 21 9
M  V30 36 1 18 13
M  V30 37 1 1 33
M  V30 38 1 3 34
M  V30 39 1 4 35
M  V30 40 1 7 36
M  V30 41 1 8 37
M  V30 42 1 11 38
M  V30 43 1 12 39
M  V30 44 1 14 40
M  V30 45 1 15 41
M  V30 46 1 16 42
M  V30 47 1 17 43
M  V30 48 1 18 44
M  V30 49 1 20 45
M  V30 50 1 22 46
M  V30 51 1 23 47
M  V30 52 1 26 48
M  V30 53 1 26 49
M  V30 54 1 28 50
M  V30 55 1 29 51
M  V30 56 1 30 52
M  V30 57 1 31 53
M  V30 58 1 32 54
M  V30 END BOND
M  V30 END CTAB
M  END
>  <Dataset>  (73) 
ChEMBL_Kinases

>  <Ligand_Instance>  (73) 
nan

>  <PDB_ID>  (73) 
nan

>  <Standardized_SMILES>  (73) 
Oc1ccc(-c2ccc3c(/C=C/c4ccccc4)n[nH]c3c2)cc1OCc1ccccc1

>  <Name>  (73) 
nan

>  <Pocket>  (73) 
nan

>  <ATP_Site>  (73) 
nan

>  <Peripheral>  (73) 
nan

>  <Num_H_Atoms_ProtBoundConf>  (73) 
nan

>  <Num_Resolved_Atoms>  (73) 
nan

>  <Num_Not_Resolved_Atoms>  (73) 
nan

$$$$
CHEMBL3898416
     RDKit          3D

  0  0  0  0  0  0  0  0  0  0999 V3000
M  V30 BEGIN CTAB
M  V30 COUNTS 51 54 0 0 0
M  V30 BEGIN ATOM
M  V30 1 N -3.579585 -8.684730 -3.774863 0
M  V30 2 C -2.541035 -7.804662 -3.517498 0
M  V30 3 O -2.103066 -8.826169 -4.121511 0
M  V30 4 C -1.560337 -6.812967 -3.192423 0
M  V30 5 C -0.244207 -6.983035 -3.552872 0
M  V30 6 C 0.584666 -5.949701 -3.176056 0
M  V30 7 C 0.075680 -4.859846 -2.494261 0
M  V30 8 N 0.685228 -3.753615 -2.033534 0
M  V30 9 C -0.170448 -2.920075 -1.415908 0
M  V30 10 C 0.078961 -1.623250 -0.782006 0
M  V30 11 C -0.986561 -0.933936 -0.182402 0
M  V30 12 C -0.706935 0.286903 0.403523 0
M  V30 13 C 0.578775 0.823312 0.405399 0
M  V30 14 O 0.592149 2.051137 1.053883 0
M  V30 15 C 1.751744 2.852072 1.221793 0
M  V30 16 C 1.480205 4.117973 1.956814 0
M  V30 17 C 0.941358 3.880398 3.326207 0
M  V30 18 C 1.830050 3.104951 4.234447 0
M  V30 19 C 0.974064 2.612978 5.397319 0
M  V30 20 C -0.300269 3.420606 5.500969 0
M  V30 21 C -0.096224 4.881227 5.198839 0
M  V30 22 N 0.555525 5.138094 3.942459 0
M  V30 23 C 1.611718 0.127601 -0.190666 0
M  V30 24 C 1.355911 -1.095502 -0.782890 0
M  V30 25 N -1.363804 -3.536101 -1.496899 0
M  V30 26 C -1.244866 -4.710140 -2.143507 0
M  V30 27 C -2.091676 -5.735821 -2.512795 0
M  V30 28 H -4.570328 -8.443030 -3.537754 0
M  V30 29 H -4.531452 -8.312782 -3.484413 0
M  V30 30 H 0.076912 -7.863451 -4.084785 0
M  V30 31 H 1.644966 -6.025895 -3.434478 0
M  V30 32 H 1.703826 -3.571010 -2.146705 0
M  V30 33 H -1.956915 -1.401534 -0.216868 0
M  V30 34 H -1.601958 0.730119 0.836116 0
M  V30 35 H 2.514171 2.247030 1.748765 0
M  V30 36 H 2.156916 3.105488 0.215690 0
M  V30 37 H 2.410551 4.723793 1.982788 0
M  V30 38 H 0.719714 4.695295 1.376336 0
M  V30 39 H -0.011540 3.301545 3.224449 0
M  V30 40 H 2.371030 2.292754 3.757011 0
M  V30 41 H 2.600157 3.780328 4.706972 0
M  V30 42 H 1.507745 2.646965 6.366532 0
M  V30 43 H 0.670442 1.570322 5.139498 0
M  V30 44 H -1.132138 2.994692 4.910129 0
M  V30 45 H -0.628293 3.346789 6.560966 0
M  V30 46 H -1.130504 5.315936 5.107394 0
M  V30 47 H 0.372708 5.426486 6.043567 0
M  V30 48 H 1.320124 5.816990 3.980566 0
M  V30 49 H 2.558547 0.645437 -0.124541 0
M  V30 50 H 2.207498 -1.592224 -1.233566 0
M  V30 51 H -3.131496 -5.624454 -2.240571 0
M  V30 END ATOM
M  V30 BEGIN BOND
M  V30 1 1 1 2
M  V30 2 2 2 3
M  V30 3 1 2 4
M  V30 4 2 4 5
M  V30 5 1 5 6
M  V30 6 2 6 7
M  V30 7 1 7 8
M  V30 8 1 8 9
M  V30 9 1 9 10
M  V30 10 2 10 11
M  V30 11 1 11 12
M  V30 12 2 12 13
M  V30 13 1 13 14
M  V30 14 1 14 15
M  V30 15 1 15 16
M  V30 16 1 16 17
M  V30 17 1 17 18
M  V30 18 1 18 19
M  V30 19 1 19 20
M  V30 20 1 20 21
M  V30 21 1 21 22
M  V30 22 1 13 23
M  V30 23 2 23 24
M  V30 24 2 9 25
M  V30 25 1 25 26
M  V30 26 2 26 27
M  V30 27 1 27 4
M  V30 28 1 26 7
M  V30 29 1 24 10
M  V30 30 1 22 17
M  V30 31 1 1 28
M  V30 32 1 1 29
M  V30 33 1 5 30
M  V30 34 1 6 31
M  V30 35 1 8 32
M  V30 36 1 11 33
M  V30 37 1 12 34
M  V30 38 1 15 35
M  V30 39 1 15 36
M  V30 40 1 16 37
M  V30 41 1 16 38
M  V30 42 1 17 39
M  V30 43 1 18 40
M  V30 44 1 18 41
M  V30 45 1 19 42
M  V30 46 1 19 43
M  V30 47 1 20 44
M  V30 48 1 20 45
M  V30 49 1 21 46
M  V30 50 1 21 47
M  V30 51 1 22 48
M  V30 52 1 23 49
M  V30 53 1 24 50
M  V30 54 1 27 51
M  V30 END BOND
M  V30 END CTAB
M  END
>  <Dataset>  (74) 
ChEMBL_Kinases

>  <Ligand_Instance>  (74) 
nan

>  <PDB_ID>  (74) 
nan

>  <Standardized_SMILES>  (74) 
NC(=O)c1ccc2[nH]c(-c3ccc(OCCC4CCCCN4)cc3)nc2c1

>  <Name>  (74) 
nan

>  <Pocket>  (74) 
nan

>  <ATP_Site>  (74) 
nan

>  <Peripheral>  (74) 
nan

>  <Num_H_Atoms_ProtBoundConf>  (74) 
nan

>  <Num_Resolved_Atoms>  (74) 
nan

>  <Num_Not_Resolved_Atoms>  (74) 
nan

$$$$
CHEMBL3898203
     RDKit          3D

  0  0  0  0  0  0  0  0  0  0999 V3000
M  V30 BEGIN CTAB
M  V30 COUNTS 61 62 0 0 0
M  V30 BEGIN ATOM
M  V30 1 C 2.834326 -2.668635 2.151126 0
M  V30 2 C 2.110629 -2.011126 3.292501 0 CFG=2
M  V30 3 C 3.008818 -1.638009 4.353359 0
M  V30 4 C 3.378730 -0.374490 4.556729 0
M  V30 5 C 2.777234 0.539814 3.604992 0
M  V30 6 O 3.323529 1.616406 4.055414 0
M  V30 7 C 2.357938 1.757419 2.817733 0 CFG=1
M  V30 8 O 3.110532 2.776688 3.493625 0
M  V30 9 C 2.763171 1.709518 1.387086 0 CFG=1
M  V30 10 O 4.070133 1.260341 1.165237 0
M  V30 11 C 1.777184 1.391598 0.351158 0
M  V30 12 C 1.060942 0.103879 0.391196 0
M  V30 13 C -0.259774 0.056501 0.437168 0
M  V30 14 C -1.382071 -0.835316 0.484631 0
M  V30 15 C -2.093889 -0.854805 -0.724302 0
M  V30 16 C -3.216195 -1.613955 -0.958440 0
M  V30 17 N -3.954577 -1.668472 -2.130044 0
M  V30 18 O -4.121815 -1.255459 -3.362995 0
M  V30 19 C -3.173870 -0.427133 -3.901417 0
M  V30 20 C -3.458628 -0.113337 -5.359358 0 CFG=2
M  V30 21 O -3.485087 -1.287867 -6.119123 0
M  V30 22 C -2.332546 0.723148 -5.934535 0
M  V30 23 O -1.116825 0.049614 -5.849098 0
M  V30 24 C -3.669144 -2.404675 0.061006 0
M  V30 25 C -3.023100 -2.435756 1.271883 0
M  V30 26 O -3.336958 -3.163842 2.406086 0
M  V30 27 C -1.911755 -1.660536 1.444469 0
M  V30 28 C -1.204613 -1.725455 2.741704 0
M  V30 29 O -1.997911 -1.029773 3.418702 0
M  V30 30 O -0.065665 -2.498348 2.530542 0
M  V30 31 C 0.811017 -2.676827 3.669410 0 CFG=1
M  V30 32 C 0.920437 -4.104629 4.058729 0
M  V30 33 H 3.524604 -1.912852 1.718102 0
M  V30 34 H 2.153842 -2.971890 1.328275 0
M  V30 35 H 3.477330 -3.509877 2.476717 0
M  V30 36 H 1.742289 -1.026717 2.828862 0
M  V30 37 H 3.343661 -2.460677 4.950550 0
M  V30 38 H 4.043829 -0.289760 5.379512 0
M  V30 39 H 1.300730 1.984507 2.977740 0
M  V30 40 H 3.643417 3.278491 2.846804 0
M  V30 41 H 2.952091 2.876910 1.177212 0
M  V30 42 H 4.033993 0.309048 0.867735 0
M  V30 43 H 1.024129 2.251699 0.340971 0
M  V30 44 H 2.205001 1.475804 -0.697341 0
M  V30 45 H 1.846059 -0.631888 0.371523 0
M  V30 46 H -0.742359 1.043461 0.445886 0
M  V30 47 H -1.771213 -0.231605 -1.574543 0
M  V30 48 H -4.788604 -2.233347 -2.307057 0
M  V30 49 H -3.109269 0.562005 -3.373338 0
M  V30 50 H -2.191276 -0.924062 -3.859216 0
M  V30 51 H -4.403885 0.407148 -5.506392 0
M  V30 52 H -4.391374 -1.458945 -6.493546 0
M  V30 53 H -2.570733 0.951931 -6.979925 0
M  V30 54 H -2.200111 1.679926 -5.383186 0
M  V30 55 H -0.665265 -0.006078 -6.732822 0
M  V30 56 H -4.528299 -3.036029 -0.007171 0
M  V30 57 H -2.618321 -3.821490 2.719612 0
M  V30 58 H 0.355890 -2.108006 4.492001 0
M  V30 59 H -0.079180 -4.466972 4.370993 0
M  V30 60 H 1.560134 -4.160990 4.960648 0
M  V30 61 H 1.324882 -4.766840 3.291651 0
M  V30 END ATOM
M  V30 BEGIN BOND
M  V30 1 1 1 2
M  V30 2 1 2 3
M  V30 3 2 3 4
M  V30 4 1 4 5
M  V30 5 2 5 6
M  V30 6 1 5 7
M  V30 7 1 7 8
M  V30 8 1 7 9
M  V30 9 1 9 10
M  V30 10 1 9 11
M  V30 11 1 11 12
M  V30 12 2 12 13
M  V30 13 1 13 14
M  V30 14 2 14 15
M  V30 15 1 15 16
M  V30 16 1 16 17
M  V30 17 1 17 18
M  V30 18 1 18 19
M  V30 19 1 19 20
M  V30 20 1 20 21
M  V30 21 1 20 22
M  V30 22 1 22 23
M  V30 23 2 16 24
M  V30 24 1 24 25
M  V30 25 1 25 26
M  V30 26 2 25 27
M  V30 27 1 27 28
M  V30 28 2 28 29
M  V30 29 1 28 30
M  V30 30 1 30 31
M  V30 31 1 31 32
M  V30 32 1 31 2
M  V30 33 1 27 14
M  V30 34 1 1 33
M  V30 35 1 1 34
M  V30 36 1 1 35
M  V30 37 1 2 36 CFG=3
M  V30 38 1 3 37
M  V30 39 1 4 38
M  V30 40 1 7 39 CFG=3
M  V30 41 1 8 40
M  V30 42 1 9 41 CFG=3
M  V30 43 1 10 42
M  V30 44 1 11 43
M  V30 45 1 11 44
M  V30 46 1 12 45
M  V30 47 1 13 46
M  V30 48 1 15 47
M  V30 49 1 17 48
M  V30 50 1 19 49
M  V30 51 1 19 50
M  V30 52 1 20 51 CFG=1
M  V30 53 1 21 52
M  V30 54 1 22 53
M  V30 55 1 22 54
M  V30 56 1 23 55
M  V30 57 1 24 56
M  V30 58 1 26 57
M  V30 59 1 31 58 CFG=1
M  V30 60 1 32 59
M  V30 61 1 32 60
M  V30 62 1 32 61
M  V30 END BOND
M  V30 END CTAB
M  END
>  <Dataset>  (75) 
ChEMBL_Kinases

>  <Ligand_Instance>  (75) 
nan

>  <PDB_ID>  (75) 
nan

>  <Standardized_SMILES>  (75) 
C[C@@H]1/C=C\C(=O)[C@@H](O)[C@@H](O)C/C=C/c2cc(NOC[C@H](O)CO)cc(O)c2C(=O)O[C@H]1C

>  <Name>  (75) 
nan

>  <Pocket>  (75) 
nan

>  <ATP_Site>  (75) 
nan

>  <Peripheral>  (75) 
nan

>  <Num_H_Atoms_ProtBoundConf>  (75) 
nan

>  <Num_Resolved_Atoms>  (75) 
nan

>  <Num_Not_Resolved_Atoms>  (75) 
nan

$$$$
CHEMBL389816
     RDKit          3D

  0  0  0  0  0  0  0  0  0  0999 V3000
M  V30 BEGIN CTAB
M  V30 COUNTS 42 45 0 0 0
M  V30 BEGIN ATOM
M  V30 1 C 1.281297 -4.364918 3.237794 0
M  V30 2 O 1.598058 -5.110128 2.086319 0
M  V30 3 C 1.498176 -4.643555 0.793120 0
M  V30 4 C 1.058465 -3.359651 0.605783 0
M  V30 5 C 0.902446 -2.739415 -0.640069 0
M  V30 6 C 0.427321 -1.361462 -0.720595 0
M  V30 7 C -0.332538 -0.883645 -1.792846 0
M  V30 8 C -0.758037 0.428739 -1.826066 0
M  V30 9 C -0.453854 1.314110 -0.812389 0
M  V30 10 C 0.294054 0.881922 0.263701 0
M  V30 11 C 0.710780 -0.440355 0.276092 0
M  V30 12 N 0.736420 1.599587 1.430215 0
M  V30 13 C 0.110518 2.770665 1.990962 0
M  V30 14 C 0.409234 2.825975 3.354012 0
M  V30 15 C -0.134701 3.916432 4.044195 0
M  V30 16 C -0.903305 4.835235 3.362883 0
M  V30 17 C -1.178174 4.749071 2.014445 0
M  V30 18 C -0.658515 3.688840 1.305739 0
M  V30 19 N -1.015129 3.718933 -0.070718 0
M  V30 20 C -0.989442 2.658834 -1.021392 0
M  V30 21 O -1.470307 2.870814 -2.169394 0
M  V30 22 C 1.221916 -3.497149 -1.760243 0
M  V30 23 C 1.669238 -4.800286 -1.591243 0
M  V30 24 C 1.812715 -5.383774 -0.349304 0
M  V30 25 N 2.270680 -6.718719 -0.155321 0 CHG=1 VAL=4
M  V30 26 O 2.925095 -7.020880 0.864752 0
M  V30 27 O 1.886414 -7.532295 -1.212888 0 CHG=-1 VAL=1
M  V30 28 H 1.438646 -5.020876 4.117379 0
M  V30 29 H 0.209825 -4.063011 3.259778 0
M  V30 30 H 1.853047 -3.420675 3.316391 0
M  V30 31 H 0.801753 -2.745980 1.460542 0
M  V30 32 H -0.576975 -1.587142 -2.603075 0
M  V30 33 H -1.345929 0.797564 -2.655503 0
M  V30 34 H 1.293391 -0.755179 1.126463 0
M  V30 35 H 1.577193 1.222234 1.886793 0
M  V30 36 H 1.025128 2.054580 3.803725 0
M  V30 37 H 0.084205 3.976518 5.096580 0
M  V30 38 H -1.328107 5.681269 3.886063 0
M  V30 39 H -1.782249 5.476398 1.492421 0
M  V30 40 H -1.336495 4.629471 -0.435562 0
M  V30 41 H 1.116173 -3.057541 -2.746046 0
M  V30 42 H 1.916462 -5.383102 -2.481783 0
M  V30 END ATOM
M  V30 BEGIN BOND
M  V30 1 1 1 2
M  V30 2 1 2 3
M  V30 3 2 3 4
M  V30 4 1 4 5
M  V30 5 1 5 6
M  V30 6 2 6 7
M  V30 7 1 7 8
M  V30 8 2 8 9
M  V30 9 1 9 10
M  V30 10 2 10 11
M  V30 11 1 10 12
M  V30 12 1 12 13
M  V30 13 2 13 14
M  V30 14 1 14 15
M  V30 15 2 15 16
M  V30 16 1 16 17
M  V30 17 2 17 18
M  V30 18 1 18 19
M  V30 19 1 19 20
M  V30 20 2 20 21
M  V30 21 2 5 22
M  V30 22 1 22 23
M  V30 23 2 23 24
M  V30 24 1 24 25
M  V30 25 2 25 26
M  V30 26 1 25 27
M  V30 27 1 24 3
M  V30 28 1 11 6
M  V30 29 1 18 13
M  V30 30 1 20 9
M  V30 31 1 1 28
M  V30 32 1 1 29
M  V30 33 1 1 30
M  V30 34 1 4 31
M  V30 35 1 7 32
M  V30 36 1 8 33
M  V30 37 1 11 34
M  V30 38 1 12 35
M  V30 39 1 14 36
M  V30 40 1 15 37
M  V30 41 1 16 38
M  V30 42 1 17 39
M  V30 43 1 19 40
M  V30 44 1 22 41
M  V30 45 1 23 42
M  V30 END BOND
M  V30 END CTAB
M  END
>  <Dataset>  (76) 
ChEMBL_Kinases

>  <Ligand_Instance>  (76) 
nan

>  <PDB_ID>  (76) 
nan

>  <Standardized_SMILES>  (76) 
COc1cc(-c2ccc3c(c2)Nc2ccccc2NC3=O)ccc1[N+](=O)[O-]

>  <Name>  (76) 
nan

>  <Pocket>  (76) 
nan

>  <ATP_Site>  (76) 
nan

>  <Peripheral>  (76) 
nan

>  <Num_H_Atoms_ProtBoundConf>  (76) 
nan

>  <Num_Resolved_Atoms>  (76) 
nan

>  <Num_Not_Resolved_Atoms>  (76) 
nan

$$$$
CHEMBL3898028
     RDKit          3D

  0  0  0  0  0  0  0  0  0  0999 V3000
M  V30 BEGIN CTAB
M  V30 COUNTS 48 51 0 0 0
M  V30 BEGIN ATOM
M  V30 1 C 0.861325 -4.980899 1.441610 0
M  V30 2 N 1.100006 -4.047202 0.340832 0
M  V30 3 C -0.141099 -3.393140 0.087511 0
M  V30 4 C -0.045687 -2.177318 -0.816174 0
M  V30 5 C 1.028363 -1.307141 -0.177688 0 CFG=2
M  V30 6 C 1.091408 0.054547 -0.693465 0
M  V30 7 C 1.838724 0.498532 -1.736796 0
M  V30 8 O 2.633208 -0.405970 -2.400738 0
M  V30 9 C 1.877057 1.796440 -2.202734 0
M  V30 10 C 1.096798 2.750759 -1.571991 0
M  V30 11 O 1.066146 4.074457 -1.963214 0
M  V30 12 C 0.326132 2.363396 -0.518850 0
M  V30 13 C -0.460907 3.294978 0.127422 0
M  V30 14 O -0.483869 4.515119 -0.239569 0
M  V30 15 C -1.226384 2.859096 1.190012 0
M  V30 16 C -1.204062 1.540758 1.589530 0
M  V30 17 C -1.990422 1.021664 2.704188 0
M  V30 18 C -1.889487 -0.316768 3.015625 0
M  V30 19 C -2.599505 -0.898385 4.058624 0
M  V30 20 C -3.448741 -0.122959 4.830257 0
M  V30 21 C -3.559400 1.222390 4.528287 0
M  V30 22 C -2.841202 1.773760 3.485226 0
M  V30 23 O -0.441060 0.689546 0.946204 0
M  V30 24 C 0.312086 1.042282 -0.074652 0
M  V30 25 C 2.297053 -2.107501 -0.291099 0 CFG=2
M  V30 26 O 2.246763 -2.844724 -1.497967 0
M  V30 27 C 2.174414 -3.195965 0.785968 0
M  V30 28 H 0.287313 -5.837582 1.087224 0
M  V30 29 H 0.236912 -4.440996 2.211509 0
M  V30 30 H 1.790908 -5.320108 1.913734 0
M  V30 31 H -0.665888 -3.098879 1.017580 0
M  V30 32 H -0.792515 -4.120582 -0.437391 0
M  V30 33 H -0.977190 -1.611639 -0.738297 0
M  V30 34 H 0.190542 -2.429391 -1.855684 0
M  V30 35 H 0.724340 -1.270137 0.910731 0
M  V30 36 H 3.138187 -0.223945 -3.262274 0
M  V30 37 H 2.502541 2.082719 -3.048381 0
M  V30 38 H 0.388986 4.441388 -2.644011 0
M  V30 39 H -1.851358 3.566688 1.713618 0
M  V30 40 H -1.242866 -0.998139 2.457494 0
M  V30 41 H -2.489173 -1.965167 4.270876 0
M  V30 42 H -3.984207 -0.594409 5.627460 0
M  V30 43 H -4.207038 1.841159 5.107871 0
M  V30 44 H -2.940882 2.827442 3.264394 0
M  V30 45 H 3.223215 -1.534698 -0.202304 0
M  V30 46 H 2.837783 -3.633269 -1.410270 0
M  V30 47 H 1.874758 -2.728031 1.734034 0
M  V30 48 H 3.081997 -3.819388 0.830450 0
M  V30 END ATOM
M  V30 BEGIN BOND
M  V30 1 1 1 2
M  V30 2 1 2 3
M  V30 3 1 3 4
M  V30 4 1 4 5
M  V30 5 1 5 6
M  V30 6 2 6 7
M  V30 7 1 7 8
M  V30 8 1 7 9
M  V30 9 2 9 10
M  V30 10 1 10 11
M  V30 11 1 10 12
M  V30 12 1 12 13
M  V30 13 2 13 14
M  V30 14 1 13 15
M  V30 15 2 15 16
M  V30 16 1 16 17
M  V30 17 2 17 18
M  V30 18 1 18 19
M  V30 19 2 19 20
M  V30 20 1 20 21
M  V30 21 2 21 22
M  V30 22 1 16 23
M  V30 23 1 23 24
M  V30 24 1 5 25
M  V30 25 1 25 26
M  V30 26 1 25 27
M  V30 27 1 27 2
M  V30 28 1 24 6
M  V30 29 2 24 12
M  V30 30 1 22 17
M  V30 31 1 1 28
M  V30 32 1 1 29
M  V30 33 1 1 30
M  V30 34 1 3 31
M  V30 35 1 3 32
M  V30 36 1 4 33
M  V30 37 1 4 34
M  V30 38 1 5 35 CFG=1
M  V30 39 1 8 36
M  V30 40 1 9 37
M  V30 41 1 11 38
M  V30 42 1 15 39
M  V30 43 1 18 40
M  V30 44 1 19 41
M  V30 45 1 20 42
M  V30 46 1 21 43
M  V30 47 1 22 44
M  V30 48 1 25 45 CFG=1
M  V30 49 1 26 46
M  V30 50 1 27 47
M  V30 51 1 27 48
M  V30 END BOND
M  V30 END CTAB
M  END
>  <Dataset>  (77) 
ChEMBL_Kinases

>  <Ligand_Instance>  (77) 
nan

>  <PDB_ID>  (77) 
nan

>  <Standardized_SMILES>  (77) 
CN1CC[C@H](c2c(O)cc(O)c3c(=O)cc(-c4ccccc4)oc23)[C@H](O)C1

>  <Name>  (77) 
nan

>  <Pocket>  (77) 
nan

>  <ATP_Site>  (77) 
nan

>  <Peripheral>  (77) 
nan

>  <Num_H_Atoms_ProtBoundConf>  (77) 
nan

>  <Num_Resolved_Atoms>  (77) 
nan

>  <Num_Not_Resolved_Atoms>  (77) 
nan

$$$$
CHEMBL389802
     RDKit          3D

  0  0  0  0  0  0  0  0  0  0999 V3000
M  V30 BEGIN CTAB
M  V30 COUNTS 35 38 0 0 0
M  V30 BEGIN ATOM
M  V30 1 N -0.761891 -5.653101 4.718151 0
M  V30 2 C -0.300316 -5.130742 3.789195 0
M  V30 3 C 0.282811 -4.484686 2.648293 0
M  V30 4 C 1.184934 -5.019516 1.754151 0
M  V30 5 N 1.440621 -4.055672 0.867603 0
M  V30 6 N 0.770415 -2.945556 1.127303 0
M  V30 7 C 0.703851 -1.726909 0.523975 0
M  V30 8 N 1.498858 -1.548253 -0.632905 0
M  V30 9 C 1.664168 -0.427906 -1.488358 0
M  V30 10 C 2.500632 -0.425549 -2.599893 0
M  V30 11 C 2.645678 0.669737 -3.414237 0
M  V30 12 C 1.967937 1.827180 -3.171824 0
M  V30 13 C 1.122681 1.891640 -2.086553 0
M  V30 14 C 1.011560 0.771863 -1.303332 0
M  V30 15 N -0.102844 -0.806567 1.072610 0
M  V30 16 C -0.844538 -1.005625 2.170318 0
M  V30 17 N -1.709075 -0.070439 2.787350 0
M  V30 18 C -1.960956 1.261239 2.365935 0
M  V30 19 N -1.461748 1.935723 1.320329 0
M  V30 20 C -1.936804 3.187798 1.240416 0
M  V30 21 C -2.784779 3.291249 2.307542 0
M  V30 22 N -2.788397 2.130503 2.971149 0
M  V30 23 N -0.732531 -2.228727 2.715840 0
M  V30 24 C 0.050310 -3.196339 2.225706 0
M  V30 25 H 1.589899 -6.023752 1.786511 0
M  V30 26 H 2.091407 -2.358487 -0.959627 0
M  V30 27 H 3.066187 -1.342852 -2.829746 0
M  V30 28 H 3.322147 0.565619 -4.252969 0
M  V30 29 H 2.097675 2.676869 -3.826416 0
M  V30 30 H 0.589337 2.809871 -1.899984 0
M  V30 31 H 0.338218 0.894655 -0.479364 0
M  V30 32 H -2.225977 -0.395294 3.658019 0
M  V30 33 H -1.703995 3.939226 0.504833 0
M  V30 34 H -3.361020 4.166821 2.575666 0
M  V30 35 H -3.370292 1.954525 3.843603 0
M  V30 END ATOM
M  V30 BEGIN BOND
M  V30 1 3 1 2
M  V30 2 1 2 3
M  V30 3 1 3 4
M  V30 4 2 4 5
M  V30 5 1 5 6
M  V30 6 1 6 7
M  V30 7 1 7 8
M  V30 8 1 8 9
M  V30 9 2 9 10
M  V30 10 1 10 11
M  V30 11 2 11 12
M  V30 12 1 12 13
M  V30 13 2 13 14
M  V30 14 2 7 15
M  V30 15 1 15 16
M  V30 16 1 16 17
M  V30 17 1 17 18
M  V30 18 2 18 19
M  V30 19 1 19 20
M  V30 20 2 20 21
M  V30 21 1 21 22
M  V30 22 2 16 23
M  V30 23 1 23 24
M  V30 24 2 24 3
M  V30 25 1 24 6
M  V30 26 1 14 9
M  V30 27 1 22 18
M  V30 28 1 4 25
M  V30 29 1 8 26
M  V30 30 1 10 27
M  V30 31 1 11 28
M  V30 32 1 12 29
M  V30 33 1 13 30
M  V30 34 1 14 31
M  V30 35 1 17 32
M  V30 36 1 20 33
M  V30 37 1 21 34
M  V30 38 1 22 35
M  V30 END BOND
M  V30 END CTAB
M  END
>  <Dataset>  (78) 
ChEMBL_Kinases

>  <Ligand_Instance>  (78) 
nan

>  <PDB_ID>  (78) 
nan

>  <Standardized_SMILES>  (78) 
N#Cc1cnn2c(Nc3ccccc3)nc(Nc3ncc[nH]3)nc12

>  <Name>  (78) 
nan

>  <Pocket>  (78) 
nan

>  <ATP_Site>  (78) 
nan

>  <Peripheral>  (78) 
nan

>  <Num_H_Atoms_ProtBoundConf>  (78) 
nan

>  <Num_Resolved_Atoms>  (78) 
nan

>  <Num_Not_Resolved_Atoms>  (78) 
nan

$$$$
CHEMBL3885175
     RDKit          3D

  0  0  0  0  0  0  0  0  0  0999 V3000
M  V30 BEGIN CTAB
M  V30 COUNTS 42 44 0 0 0
M  V30 BEGIN ATOM
M  V30 1 C -0.532774 -3.041992 1.014970 0
M  V30 2 C 0.602643 -3.185336 -0.003310 0
M  V30 3 C 1.876865 -3.423912 0.719880 0
M  V30 4 N 0.587499 -2.004548 -0.823785 0
M  V30 5 C 0.294624 -1.743043 -2.177797 0
M  V30 6 O 0.163077 -2.670648 -3.014045 0
M  V30 7 C 0.178761 -0.263718 -2.417715 0
M  V30 8 C 0.835472 0.162958 -3.678569 0
M  V30 9 C -1.343404 0.032433 -2.413469 0
M  V30 10 C 0.792275 0.291616 -1.169058 0
M  V30 11 C 1.103624 1.615452 -0.947586 0
M  V30 12 N 1.546364 1.934914 0.284847 0
M  V30 13 C 1.666361 0.963401 1.238420 0
M  V30 14 N 2.087543 0.994224 2.592849 0
M  V30 15 C 1.082193 0.802910 3.611564 0
M  V30 16 C 1.427822 0.808632 4.946860 0
M  V30 17 C 0.472014 0.620864 5.910614 0
M  V30 18 C -0.870680 0.419188 5.587387 0
M  V30 19 C -1.242263 0.408629 4.253579 0
M  V30 20 C -0.243749 0.602821 3.310677 0
M  V30 21 N 1.349179 -0.337964 0.982613 0
M  V30 22 C 0.895359 -0.728482 -0.249625 0
M  V30 23 H -1.491767 -3.239330 0.453175 0
M  V30 24 H -0.394565 -3.709757 1.854599 0
M  V30 25 H -0.501708 -1.973312 1.360638 0
M  V30 26 H 0.331895 -4.039155 -0.632454 0
M  V30 27 H 2.113134 -4.533329 0.651795 0
M  V30 28 H 2.760988 -2.931745 0.271454 0
M  V30 29 H 1.812531 -3.151739 1.804384 0
M  V30 30 H 1.299094 -0.648992 -4.270410 0
M  V30 31 H 1.526634 1.032663 -3.542534 0
M  V30 32 H 0.005438 0.562403 -4.341197 0
M  V30 33 H -1.733334 0.117471 -3.424879 0
M  V30 34 H -1.860805 -0.751425 -1.808421 0
M  V30 35 H -1.464735 0.981873 -1.867544 0
M  V30 36 H 1.028948 2.404418 -1.653933 0
M  V30 37 H 3.069237 1.143332 2.902107 0
M  V30 38 H 2.471372 0.961900 5.213673 0
M  V30 39 H 0.673938 0.614612 6.955040 0
M  V30 40 H -1.675046 0.269533 6.297839 0
M  V30 41 H -2.284844 0.248833 3.986225 0
M  V30 42 H -0.550318 0.590804 2.262856 0
M  V30 END ATOM
M  V30 BEGIN BOND
M  V30 1 1 1 2
M  V30 2 1 2 3
M  V30 3 1 2 4
M  V30 4 1 4 5
M  V30 5 2 5 6
M  V30 6 1 5 7
M  V30 7 1 7 8
M  V30 8 1 7 9
M  V30 9 1 7 10
M  V30 10 2 10 11
M  V30 11 1 11 12
M  V30 12 2 12 13
M  V30 13 1 13 14
M  V30 14 1 14 15
M  V30 15 2 15 16
M  V30 16 1 16 17
M  V30 17 2 17 18
M  V30 18 1 18 19
M  V30 19 2 19 20
M  V30 20 1 13 21
M  V30 21 2 21 22
M  V30 22 1 22 4
M  V30 23 1 22 10
M  V30 24 1 20 15
M  V30 25 1 1 23
M  V30 26 1 1 24
M  V30 27 1 1 25
M  V30 28 1 2 26
M  V30 29 1 3 27
M  V30 30 1 3 28
M  V30 31 1 3 29
M  V30 32 1 8 30
M  V30 33 1 8 31
M  V30 34 1 8 32
M  V30 35 1 9 33
M  V30 36 1 9 34
M  V30 37 1 9 35
M  V30 38 1 11 36
M  V30 39 1 14 37
M  V30 40 1 16 38
M  V30 41 1 17 39
M  V30 42 1 18 40
M  V30 43 1 19 41
M  V30 44 1 20 42
M  V30 END BOND
M  V30 END CTAB
M  END
>  <Dataset>  (79) 
ChEMBL_Kinases

>  <Ligand_Instance>  (79) 
nan

>  <PDB_ID>  (79) 
nan

>  <Standardized_SMILES>  (79) 
CC(C)N1C(=O)C(C)(C)c2cnc(Nc3ccccc3)nc21

>  <Name>  (79) 
nan

>  <Pocket>  (79) 
nan

>  <ATP_Site>  (79) 
nan

>  <Peripheral>  (79) 
nan

>  <Num_H_Atoms_ProtBoundConf>  (79) 
nan

>  <Num_Resolved_Atoms>  (79) 
nan

>  <Num_Not_Resolved_Atoms>  (79) 
nan

$$$$
CHEMBL3897985
     RDKit          3D

  0  0  0  0  0  0  0  0  0  0999 V3000
M  V30 BEGIN CTAB
M  V30 COUNTS 52 55 0 0 0
M  V30 BEGIN ATOM
M  V30 1 O 2.637722 -2.059711 -1.872520 0
M  V30 2 C 2.413572 -2.165355 -0.630096 0
M  V30 3 O 3.428905 -2.766669 0.101116 0
M  V30 4 C 1.211702 -1.723790 0.094385 0 CFG=2
M  V30 5 C 1.606126 -0.700795 1.130553 0
M  V30 6 C 2.242749 0.491904 0.576604 0
M  V30 7 C 3.607563 0.585268 0.402958 0
M  V30 8 C 4.264629 1.682161 -0.112785 0
M  V30 9 C 3.505285 2.788624 -0.492027 0
M  V30 10 C 2.132325 2.651555 -0.299600 0
M  V30 11 N 1.368670 3.792308 -0.692447 0
M  V30 12 C 1.237952 4.697237 0.443831 0
M  V30 13 N 0.601852 4.976226 1.360428 0
M  V30 14 C 0.824884 5.942827 2.229469 0
M  V30 15 C 2.020118 6.746831 1.992634 0
M  V30 16 S 2.682245 5.927375 0.446859 0
M  V30 17 N 1.529656 1.570226 0.204348 0
M  V30 18 C 0.658980 -2.965160 0.795327 0
M  V30 19 C -0.289263 -3.675548 -0.148071 0
M  V30 20 C -1.600267 -2.874772 -0.097128 0 CFG=1
M  V30 21 O -2.173848 -3.186243 1.148577 0
M  V30 22 C -3.438870 -3.724319 1.214107 0
M  V30 23 C -4.389134 -4.073827 0.279418 0
M  V30 24 C -5.596245 -4.605717 0.673648 0
M  V30 25 C -5.918968 -4.815693 1.998140 0
M  V30 26 C -4.981211 -4.472384 2.949449 0
M  V30 27 F -5.365494 -4.705546 4.223656 0
M  V30 28 C -3.752179 -3.931572 2.561368 0
M  V30 29 F -2.978351 -3.665707 3.659686 0
M  V30 30 C -1.181198 -1.420245 -0.154944 0
M  V30 31 C 0.139373 -1.191274 -0.812151 0
M  V30 32 H 4.318641 -2.978809 -0.304694 0
M  V30 33 H 0.668725 -0.421262 1.679079 0
M  V30 34 H 2.302903 -1.163498 1.860591 0
M  V30 35 H 4.271955 -0.215604 0.666659 0
M  V30 36 H 5.330723 1.738332 -0.241561 0
M  V30 37 H 3.945232 3.685520 -0.904072 0
M  V30 38 H 0.924233 4.057152 -1.597838 0
M  V30 39 H 0.057339 5.994057 3.016245 0
M  V30 40 H 2.062126 7.580099 2.884602 0
M  V30 41 H 0.051677 -2.592819 1.645173 0
M  V30 42 H 1.461346 -3.628831 1.169589 0
M  V30 43 H -0.505052 -4.691580 0.237314 0
M  V30 44 H 0.086446 -3.782393 -1.168027 0
M  V30 45 H -2.232395 -3.094416 -0.953733 0
M  V30 46 H -4.056553 -3.878233 -0.711432 0
M  V30 47 H -6.261234 -4.840214 -0.161852 0
M  V30 48 H -6.895419 -5.237565 2.166345 0
M  V30 49 H -1.979868 -0.796150 -0.620669 0
M  V30 50 H -1.100762 -1.068722 0.899003 0
M  V30 51 H 0.258728 -0.094437 -0.916493 0
M  V30 52 H 0.206267 -1.595384 -1.835330 0
M  V30 END ATOM
M  V30 BEGIN BOND
M  V30 1 2 1 2
M  V30 2 1 2 3
M  V30 3 1 2 4
M  V30 4 1 4 5 CFG=1
M  V30 5 1 5 6
M  V30 6 2 6 7
M  V30 7 1 7 8
M  V30 8 2 8 9
M  V30 9 1 9 10
M  V30 10 1 10 11
M  V30 11 1 11 12
M  V30 12 2 12 13
M  V30 13 1 13 14
M  V30 14 2 14 15
M  V30 15 1 15 16
M  V30 16 2 10 17
M  V30 17 1 4 18
M  V30 18 1 18 19
M  V30 19 1 19 20
M  V30 20 1 20 21
M  V30 21 1 21 22
M  V30 22 2 22 23
M  V30 23 1 23 24
M  V30 24 2 24 25
M  V30 25 1 25 26
M  V30 26 1 26 27
M  V30 27 2 26 28
M  V30 28 1 28 29
M  V30 29 1 20 30
M  V30 30 1 30 31
M  V30 31 1 31 4
M  V30 32 1 17 6
M  V30 33 1 28 22
M  V30 34 1 16 12
M  V30 35 1 3 32
M  V30 36 1 5 33
M  V30 37 1 5 34
M  V30 38 1 7 35
M  V30 39 1 8 36
M  V30 40 1 9 37
M  V30 41 1 11 38
M  V30 42 1 14 39
M  V30 43 1 15 40
M  V30 44 1 18 41
M  V30 45 1 18 42
M  V30 46 1 19 43
M  V30 47 1 19 44
M  V30 48 1 20 45 CFG=3
M  V30 49 1 23 46
M  V30 50 1 24 47
M  V30 51 1 25 48
M  V30 52 1 30 49
M  V30 53 1 30 50
M  V30 54 1 31 51
M  V30 55 1 31 52
M  V30 END BOND
M  V30 END CTAB
M  END
>  <Dataset>  (80) 
ChEMBL_Kinases

>  <Ligand_Instance>  (80) 
nan

>  <PDB_ID>  (80) 
nan

>  <Standardized_SMILES>  (80) 
O=C(O)[C@]1(Cc2cccc(Nc3nccs3)n2)CC[C@@H](Oc2cccc(F)c2F)CC1

>  <Name>  (80) 
nan

>  <Pocket>  (80) 
nan

>  <ATP_Site>  (80) 
nan

>  <Peripheral>  (80) 
nan

>  <Num_H_Atoms_ProtBoundConf>  (80) 
nan

>  <Num_Resolved_Atoms>  (80) 
nan

>  <Num_Not_Resolved_Atoms>  (80) 
nan

$$$$
CHEMBL389780
     RDKit          3D

  0  0  0  0  0  0  0  0  0  0999 V3000
M  V30 BEGIN CTAB
M  V30 COUNTS 49 53 0 0 0
M  V30 BEGIN ATOM
M  V30 1 O 8.190184 -2.585073 -1.420461 0
M  V30 2 C 7.158526 -3.272211 -1.206168 0
M  V30 3 O 7.420225 -4.590000 -0.850918 0
M  V30 4 C 5.819886 -2.702064 -1.329380 0
M  V30 5 C 5.771303 -1.369827 -1.693847 0
M  V30 6 C 4.494130 -0.807595 -1.816387 0
M  V30 7 C 3.369354 -1.604186 -1.569748 0
M  V30 8 C 2.073427 -0.939470 -1.719909 0
M  V30 9 N 1.757420 -0.135967 -2.751397 0
M  V30 10 N 0.523650 0.323854 -2.626021 0
M  V30 11 C 0.009156 -0.187687 -1.482897 0
M  V30 12 C 0.977412 -0.999947 -0.881158 0
M  V30 13 C 0.449891 -1.582701 0.381290 0
M  V30 14 C -0.939409 -1.025204 0.460824 0
M  V30 15 C -1.933966 -1.197762 1.404403 0
M  V30 16 C -3.180749 -0.605747 1.333558 0
M  V30 17 C -4.243045 -0.793097 2.346101 0
M  V30 18 N -4.235936 0.143977 3.415935 0
M  V30 19 C -3.060155 0.189373 4.217458 0
M  V30 20 C -2.077114 1.243167 3.810972 0
M  V30 21 O -2.635069 2.225235 2.977358 0
M  V30 22 C -3.875300 2.551459 3.520128 0
M  V30 23 C -4.826836 1.418297 3.148051 0
M  V30 24 C -3.371665 0.194757 0.221714 0
M  V30 25 C -2.411270 0.399829 -0.749087 0
M  V30 26 C -1.181434 -0.215072 -0.631208 0
M  V30 27 C 3.491968 -2.937267 -1.206896 0
M  V30 28 C 4.736398 -3.522377 -1.077260 0
M  V30 29 H 8.202477 -4.764326 -0.230616 0
M  V30 30 H 6.662566 -0.799089 -1.872676 0
M  V30 31 H 4.428158 0.236711 -2.101369 0
M  V30 32 H -0.024632 0.959728 -3.239610 0
M  V30 33 H 0.408627 -2.687949 0.374100 0
M  V30 34 H 1.027569 -1.193459 1.252921 0
M  V30 35 H -1.705650 -1.839299 2.244020 0
M  V30 36 H -5.261641 -0.774562 1.900910 0
M  V30 37 H -4.180862 -1.815326 2.822070 0
M  V30 38 H -2.570508 -0.796395 4.223935 0
M  V30 39 H -3.406883 0.345333 5.280058 0
M  V30 40 H -1.743954 1.778118 4.727340 0
M  V30 41 H -1.169745 0.840550 3.320533 0
M  V30 42 H -3.796139 2.538770 4.634380 0
M  V30 43 H -4.265174 3.500161 3.123063 0
M  V30 44 H -5.150327 1.577078 2.119662 0
M  V30 45 H -5.724197 1.497699 3.823653 0
M  V30 46 H -4.299327 0.712095 0.049650 0
M  V30 47 H -2.592234 1.033408 -1.608794 0
M  V30 48 H 2.599277 -3.522704 -1.024002 0
M  V30 49 H 4.884516 -4.550689 -0.798678 0
M  V30 END ATOM
M  V30 BEGIN BOND
M  V30 1 2 1 2
M  V30 2 1 2 3
M  V30 3 1 2 4
M  V30 4 2 4 5
M  V30 5 1 5 6
M  V30 6 2 6 7
M  V30 7 1 7 8
M  V30 8 2 8 9
M  V30 9 1 9 10
M  V30 10 1 10 11
M  V30 11 2 11 12
M  V30 12 1 12 13
M  V30 13 1 13 14
M  V30 14 2 14 15
M  V30 15 1 15 16
M  V30 16 1 16 17
M  V30 17 1 17 18
M  V30 18 1 18 19
M  V30 19 1 19 20
M  V30 20 1 20 21
M  V30 21 1 21 22
M  V30 22 1 22 23
M  V30 23 2 16 24
M  V30 24 1 24 25
M  V30 25 2 25 26
M  V30 26 1 7 27
M  V30 27 2 27 28
M  V30 28 1 28 4
M  V30 29 1 12 8
M  V30 30 1 26 14
M  V30 31 1 26 11
M  V30 32 1 23 18
M  V30 33 1 3 29
M  V30 34 1 5 30
M  V30 35 1 6 31
M  V30 36 1 10 32
M  V30 37 1 13 33
M  V30 38 1 13 34
M  V30 39 1 15 35
M  V30 40 1 17 36
M  V30 41 1 17 37
M  V30 42 1 19 38
M  V30 43 1 19 39
M  V30 44 1 20 40
M  V30 45 1 20 41
M  V30 46 1 22 42
M  V30 47 1 22 43
M  V30 48 1 23 44
M  V30 49 1 23 45
M  V30 50 1 24 46
M  V30 51 1 25 47
M  V30 52 1 27 48
M  V30 53 1 28 49
M  V30 END BOND
M  V30 END CTAB
M  END
>  <Dataset>  (81) 
ChEMBL_Kinases

>  <Ligand_Instance>  (81) 
nan

>  <PDB_ID>  (81) 
nan

>  <Standardized_SMILES>  (81) 
O=C(O)c1ccc(-c2n[nH]c3c2Cc2cc(CN4CCOCC4)ccc2-3)cc1

>  <Name>  (81) 
nan

>  <Pocket>  (81) 
nan

>  <ATP_Site>  (81) 
nan

>  <Peripheral>  (81) 
nan

>  <Num_H_Atoms_ProtBoundConf>  (81) 
nan

>  <Num_Resolved_Atoms>  (81) 
nan

>  <Num_Not_Resolved_Atoms>  (81) 
nan

$$$$
CHEMBL389767
     RDKit          3D

  0  0  0  0  0  0  0  0  0  0999 V3000
M  V30 BEGIN CTAB
M  V30 COUNTS 41 44 0 0 0
M  V30 BEGIN ATOM
M  V30 1 N 2.072061 -7.366869 1.675450 0
M  V30 2 C 2.196858 -6.348797 1.100910 0
M  V30 3 C 2.369260 -5.106953 0.407332 0
M  V30 4 C 3.337550 -4.768105 -0.540485 0
M  V30 5 N 3.117209 -3.491787 -0.927657 0
M  V30 6 N 2.057266 -2.993657 -0.277334 0
M  V30 7 C 1.460045 -1.785392 -0.326506 0
M  V30 8 N 1.949349 -0.734875 -1.192337 0
M  V30 9 C 1.190719 0.489687 -1.036950 0
M  V30 10 C 1.641494 1.611943 -1.926897 0
M  V30 11 C 0.765563 2.783296 -1.610205 0
M  V30 12 C -0.435279 3.272664 -2.061767 0
M  V30 13 N -0.732910 4.404405 -1.367783 0
M  V30 14 C 0.274765 4.631413 -0.478637 0
M  V30 15 N 1.161423 3.647564 -0.641925 0
M  V30 16 N 0.406949 -1.672627 0.485917 0
M  V30 17 C -0.100289 -2.580217 1.307532 0
M  V30 18 N -1.235312 -2.063619 1.979727 0
M  V30 19 C -1.540636 -1.185220 3.047803 0
M  V30 20 C -2.880236 -1.083937 3.353193 0
M  V30 21 C -3.238310 -0.229447 4.372213 0
M  V30 22 C -2.277111 0.487723 5.048171 0
M  V30 23 C -0.937033 0.367978 4.722737 0
M  V30 24 C -0.547865 -0.489645 3.695928 0
M  V30 25 N 0.524003 -3.768212 1.326283 0
M  V30 26 C 1.594559 -3.974606 0.540273 0
M  V30 27 H 4.114870 -5.437168 -0.882546 0
M  V30 28 H 2.757918 -0.979938 -1.798007 0
M  V30 29 H 1.131403 0.804280 0.017696 0
M  V30 30 H 0.122147 0.277120 -1.355296 0
M  V30 31 H 1.405678 1.310126 -2.971174 0
M  V30 32 H 2.702523 1.833190 -1.832357 0
M  V30 33 H -0.943814 2.725197 -2.854481 0
M  V30 34 H 0.219927 5.489818 0.170468 0
M  V30 35 H 2.007986 3.692548 -0.014559 0
M  V30 36 H -1.929222 -2.580644 1.402049 0
M  V30 37 H -3.684965 -1.625654 2.856482 0
M  V30 38 H -4.267622 -0.106477 4.659883 0
M  V30 39 H -2.569569 1.154579 5.844228 0
M  V30 40 H -0.188245 0.928401 5.250473 0
M  V30 41 H 0.479728 -0.634136 3.387239 0
M  V30 END ATOM
M  V30 BEGIN BOND
M  V30 1 3 1 2
M  V30 2 1 2 3
M  V30 3 1 3 4
M  V30 4 2 4 5
M  V30 5 1 5 6
M  V30 6 1 6 7
M  V30 7 1 7 8
M  V30 8 1 8 9
M  V30 9 1 9 10
M  V30 10 1 10 11
M  V30 11 2 11 12
M  V30 12 1 12 13
M  V30 13 2 13 14
M  V30 14 1 14 15
M  V30 15 2 7 16
M  V30 16 1 16 17
M  V30 17 1 17 18
M  V30 18 1 18 19
M  V30 19 2 19 20
M  V30 20 1 20 21
M  V30 21 2 21 22
M  V30 22 1 22 23
M  V30 23 2 23 24
M  V30 24 2 17 25
M  V30 25 1 25 26
M  V30 26 2 26 3
M  V30 27 1 26 6
M  V30 28 1 15 11
M  V30 29 1 24 19
M  V30 30 1 4 27
M  V30 31 1 8 28
M  V30 32 1 9 29
M  V30 33 1 9 30
M  V30 34 1 10 31
M  V30 35 1 10 32
M  V30 36 1 12 33
M  V30 37 1 14 34
M  V30 38 1 15 35
M  V30 39 1 18 36
M  V30 40 1 20 37
M  V30 41 1 21 38
M  V30 42 1 22 39
M  V30 43 1 23 40
M  V30 44 1 24 41
M  V30 END BOND
M  V30 END CTAB
M  END
>  <Dataset>  (82) 
ChEMBL_Kinases

>  <Ligand_Instance>  (82) 
nan

>  <PDB_ID>  (82) 
nan

>  <Standardized_SMILES>  (82) 
N#Cc1cnn2c(NCCc3cnc[nH]3)nc(Nc3ccccc3)nc12

>  <Name>  (82) 
nan

>  <Pocket>  (82) 
nan

>  <ATP_Site>  (82) 
nan

>  <Peripheral>  (82) 
nan

>  <Num_H_Atoms_ProtBoundConf>  (82) 
nan

>  <Num_Resolved_Atoms>  (82) 
nan

>  <Num_Not_Resolved_Atoms>  (82) 
nan

$$$$
CHEMBL389765
     RDKit          3D

  0  0  0  0  0  0  0  0  0  0999 V3000
M  V30 BEGIN CTAB
M  V30 COUNTS 43 45 0 0 0
M  V30 BEGIN ATOM
M  V30 1 C -0.671190 -5.506008 -0.652548 0
M  V30 2 C 0.010668 -4.728350 0.501260 0
M  V30 3 C -1.089767 -3.788014 0.980006 0
M  V30 4 C 1.151743 -4.015353 -0.133409 0
M  V30 5 C 2.026054 -3.189645 0.723702 0
M  V30 6 N 1.455914 -2.113703 1.451017 0
M  V30 7 C 0.709217 -0.938867 1.173409 0
M  V30 8 N 0.999041 0.001467 0.242462 0
M  V30 9 C 0.217567 1.074206 0.043519 0
M  V30 10 N 0.582769 2.061479 -0.944977 0
M  V30 11 C 1.416389 2.822705 -0.039690 0
M  V30 12 C 0.992613 3.929511 0.670921 0
M  V30 13 C 1.880567 4.577627 1.509882 0
M  V30 14 C 3.157787 4.127256 1.632780 0
M  V30 15 C 3.656114 3.034436 0.960765 0
M  V30 16 C 2.745000 2.399844 0.124229 0
M  V30 17 N -0.890681 1.215053 0.792549 0
M  V30 18 N -1.843798 2.151131 0.815382 0
M  V30 19 C -2.775169 1.865939 1.740838 0
M  V30 20 C -2.425104 0.690685 2.361735 0
M  V30 21 C -3.034993 -0.057793 3.406300 0
M  V30 22 N -3.538114 -0.670633 4.265137 0
M  V30 23 C -1.239212 0.321447 1.733609 0
M  V30 24 N -0.424975 -0.725141 1.890550 0
M  V30 25 H -1.635917 -5.902208 -0.336978 0
M  V30 26 H -0.862213 -4.698064 -1.409154 0
M  V30 27 H 0.029992 -6.225624 -1.099955 0
M  V30 28 H 0.274107 -5.490438 1.247367 0
M  V30 29 H -0.911552 -3.577804 2.048122 0
M  V30 30 H -1.193265 -2.917388 0.328732 0
M  V30 31 H -2.104563 -4.291764 0.945217 0
M  V30 32 H 0.742776 -3.445567 -1.015693 0
M  V30 33 H 1.811717 -4.820820 -0.587060 0
M  V30 34 H 2.809969 -2.745605 0.023606 0
M  V30 35 H 2.659284 -3.817112 1.409228 0
M  V30 36 H 1.619509 -2.128211 2.509227 0
M  V30 37 H 0.331068 2.185891 -1.970428 0
M  V30 38 H -0.029066 4.238258 0.531237 0
M  V30 39 H 1.463676 5.433126 2.026318 0
M  V30 40 H 3.812134 4.662274 2.297777 0
M  V30 41 H 4.678038 2.703444 1.082672 0
M  V30 42 H 3.091159 1.532140 -0.423467 0
M  V30 43 H -3.680323 2.386812 2.032592 0
M  V30 END ATOM
M  V30 BEGIN BOND
M  V30 1 1 1 2
M  V30 2 1 2 3
M  V30 3 1 2 4
M  V30 4 1 4 5
M  V30 5 1 5 6
M  V30 6 1 6 7
M  V30 7 1 7 8
M  V30 8 2 8 9
M  V30 9 1 9 10
M  V30 10 1 10 11
M  V30 11 2 11 12
M  V30 12 1 12 13
M  V30 13 2 13 14
M  V30 14 1 14 15
M  V30 15 2 15 16
M  V30 16 1 9 17
M  V30 17 1 17 18
M  V30 18 2 18 19
M  V30 19 1 19 20
M  V30 20 1 20 21
M  V30 21 3 21 22
M  V30 22 2 20 23
M  V30 23 1 23 24
M  V30 24 2 24 7
M  V30 25 1 16 11
M  V30 26 1 23 17
M  V30 27 1 1 25
M  V30 28 1 1 26
M  V30 29 1 1 27
M  V30 30 1 2 28
M  V30 31 1 3 29
M  V30 32 1 3 30
M  V30 33 1 3 31
M  V30 34 1 4 32
M  V30 35 1 4 33
M  V30 36 1 5 34
M  V30 37 1 5 35
M  V30 38 1 6 36
M  V30 39 1 10 37
M  V30 40 1 12 38
M  V30 41 1 13 39
M  V30 42 1 14 40
M  V30 43 1 15 41
M  V30 44 1 16 42
M  V30 45 1 19 43
M  V30 END BOND
M  V30 END CTAB
M  END
>  <Dataset>  (83) 
ChEMBL_Kinases

>  <Ligand_Instance>  (83) 
nan

>  <PDB_ID>  (83) 
nan

>  <Standardized_SMILES>  (83) 
CC(C)CCNc1nc(Nc2ccccc2)n2ncc(C#N)c2n1

>  <Name>  (83) 
nan

>  <Pocket>  (83) 
nan

>  <ATP_Site>  (83) 
nan

>  <Peripheral>  (83) 
nan

>  <Num_H_Atoms_ProtBoundConf>  (83) 
nan

>  <Num_Resolved_Atoms>  (83) 
nan

>  <Num_Not_Resolved_Atoms>  (83) 
nan

$$$$
CHEMBL3897556
     RDKit          3D

  0  0  0  0  0  0  0  0  0  0999 V3000
M  V30 BEGIN CTAB
M  V30 COUNTS 47 51 0 0 0
M  V30 BEGIN ATOM
M  V30 1 O 3.123974 -3.562618 4.485761 0
M  V30 2 C 3.031977 -3.157175 3.289879 0
M  V30 3 C 4.018128 -3.589048 2.274191 0
M  V30 4 O 3.964246 -2.782625 1.132801 0
M  V30 5 C 2.940941 -1.927950 0.802126 0
M  V30 6 C 2.871851 -1.305200 -0.424195 0
M  V30 7 C 1.844227 -0.438993 -0.772958 0
M  V30 8 C 0.847401 -0.188704 0.145840 0
M  V30 9 C -0.269206 0.753502 -0.223379 0
M  V30 10 O -0.703041 0.401607 -1.490855 0
M  V30 11 C 0.196765 2.159926 -0.154534 0
M  V30 12 C 1.179815 2.829958 -0.863276 0
M  V30 13 C 1.480310 4.158487 -0.647396 0
M  V30 14 C 0.801255 4.892203 0.302621 0
M  V30 15 C -0.184296 4.231230 1.016937 0
M  V30 16 C -0.487545 2.889715 0.798506 0
M  V30 17 C -1.463941 1.970145 1.388802 0
M  V30 18 O -2.232219 2.348745 2.287350 0
M  V30 19 N -1.326223 0.705991 0.756566 0
M  V30 20 C -2.098697 -0.455387 1.024498 0
M  V30 21 C -3.101173 -0.525741 1.966900 0
M  V30 22 C -3.861169 -1.645056 2.236074 0
M  V30 23 C -3.605791 -2.790514 1.509875 0
M  V30 24 C -2.620817 -2.810849 0.546532 0
M  V30 25 C -2.344975 -4.042472 -0.235894 0
M  V30 26 F -1.861979 -4.994604 0.635019 0
M  V30 27 F -1.318946 -3.786275 -1.127924 0
M  V30 28 F -3.495924 -4.427246 -0.871631 0
M  V30 29 C -1.898567 -1.638497 0.336120 0
M  V30 30 C 0.923222 -0.824219 1.389773 0
M  V30 31 C 1.940662 -1.673608 1.717452 0
M  V30 32 N 1.936857 -2.281933 3.019721 0
M  V30 33 H 3.826516 -4.672965 2.032759 0
M  V30 34 H 5.031603 -3.567748 2.768387 0
M  V30 35 H 3.679034 -1.538558 -1.103263 0
M  V30 36 H 1.882554 -0.005248 -1.755063 0
M  V30 37 H -0.360567 0.996171 -2.207471 0
M  V30 38 H 1.791114 2.385310 -1.635907 0
M  V30 39 H 2.247076 4.699579 -1.192801 0
M  V30 40 H 0.972697 5.931872 0.534541 0
M  V30 41 H -0.739772 4.787390 1.776475 0
M  V30 42 H -3.340472 0.332731 2.557344 0
M  V30 43 H -4.639181 -1.638754 2.992932 0
M  V30 44 H -4.181335 -3.692189 1.691333 0
M  V30 45 H -1.141384 -1.719529 -0.432877 0
M  V30 46 H 0.150735 -0.633872 2.112864 0
M  V30 47 H 1.184347 -2.101255 3.731041 0
M  V30 END ATOM
M  V30 BEGIN BOND
M  V30 1 2 1 2
M  V30 2 1 2 3
M  V30 3 1 3 4
M  V30 4 1 4 5
M  V30 5 2 5 6
M  V30 6 1 6 7
M  V30 7 2 7 8
M  V30 8 1 8 9
M  V30 9 1 9 10
M  V30 10 1 9 11
M  V30 11 2 11 12
M  V30 12 1 12 13
M  V30 13 2 13 14
M  V30 14 1 14 15
M  V30 15 2 15 16
M  V30 16 1 16 17
M  V30 17 2 17 18
M  V30 18 1 17 19
M  V30 19 1 19 20
M  V30 20 2 20 21
M  V30 21 1 21 22
M  V30 22 2 22 23
M  V30 23 1 23 24
M  V30 24 1 24 25
M  V30 25 1 25 26
M  V30 26 1 25 27
M  V30 27 1 25 28
M  V30 28 2 24 29
M  V30 29 1 8 30
M  V30 30 2 30 31
M  V30 31 1 31 32
M  V30 32 1 32 2
M  V30 33 1 31 5
M  V30 34 1 19 9
M  V30 35 1 29 20
M  V30 36 1 16 11
M  V30 37 1 3 33
M  V30 38 1 3 34
M  V30 39 1 6 35
M  V30 40 1 7 36
M  V30 41 1 10 37
M  V30 42 1 12 38
M  V30 43 1 13 39
M  V30 44 1 14 40
M  V30 45 1 15 41
M  V30 46 1 21 42
M  V30 47 1 22 43
M  V30 48 1 23 44
M  V30 49 1 29 45
M  V30 50 1 30 46
M  V30 51 1 32 47
M  V30 END BOND
M  V30 END CTAB
M  END
>  <Dataset>  (84) 
ChEMBL_Kinases

>  <Ligand_Instance>  (84) 
nan

>  <PDB_ID>  (84) 
nan

>  <Standardized_SMILES>  (84) 
O=C1COc2ccc(C3(O)c4ccccc4C(=O)N3c3cccc(C(F)(F)F)c3)cc2N1

>  <Name>  (84) 
nan

>  <Pocket>  (84) 
nan

>  <ATP_Site>  (84) 
nan

>  <Peripheral>  (84) 
nan

>  <Num_H_Atoms_ProtBoundConf>  (84) 
nan

>  <Num_Resolved_Atoms>  (84) 
nan

>  <Num_Not_Resolved_Atoms>  (84) 
nan

$$$$
CHEMBL3897490
     RDKit          3D

  0  0  0  0  0  0  0  0  0  0999 V3000
M  V30 BEGIN CTAB
M  V30 COUNTS 49 52 0 0 0
M  V30 BEGIN ATOM
M  V30 1 N 4.379366 -7.925196 -0.455978 0
M  V30 2 C 5.273264 -6.842807 -0.528671 0
M  V30 3 O 6.349748 -7.480863 -0.477288 0
M  V30 4 C 4.898010 -5.448094 -0.631848 0
M  V30 5 C 5.873352 -4.493836 -0.663381 0
M  V30 6 C 5.507004 -3.168131 -0.760863 0
M  V30 7 C 4.169033 -2.809574 -0.825418 0
M  V30 8 N 3.460378 -1.677958 -0.917877 0
M  V30 9 C 2.134064 -1.913344 -0.943913 0
M  V30 10 C 1.033002 -0.960533 -1.034019 0
M  V30 11 C 1.228386 0.406133 -1.111488 0
M  V30 12 C 0.166138 1.310783 -1.194888 0
M  V30 13 C -1.133496 0.800567 -1.199607 0
M  V30 14 O -2.235813 1.652094 -1.281326 0
M  V30 15 C -2.812310 2.145401 -0.128553 0
M  V30 16 C -2.542872 3.290916 0.585511 0
M  V30 17 C -3.258906 3.595680 1.732024 0
M  V30 18 C -4.256065 2.755975 2.183245 0
M  V30 19 C -5.000996 3.092146 3.388055 0
M  V30 20 C -4.472033 2.531083 4.675510 0
M  V30 21 C -3.104697 2.994992 4.922310 0
M  V30 22 O -2.112545 2.886502 4.194800 0
M  V30 23 O -2.505551 3.656240 5.955384 0
M  V30 24 C -4.562823 1.590767 1.496944 0
M  V30 25 C -3.828485 1.303085 0.342188 0
M  V30 26 C -1.336366 -0.541917 -1.124571 0
M  V30 27 C -0.270338 -1.413478 -1.042434 0
M  V30 28 N 2.020874 -3.229862 -0.864485 0
M  V30 29 C 3.218057 -3.836453 -0.788570 0
M  V30 30 C 3.548791 -5.193973 -0.690469 0
M  V30 31 H 3.865237 -8.688744 -0.002877 0
M  V30 32 H 4.068577 -8.563033 0.337912 0
M  V30 33 H 6.895396 -4.834375 -0.606704 0
M  V30 34 H 6.251949 -2.397165 -0.789599 0
M  V30 35 H 3.886464 -0.733659 -0.963258 0
M  V30 36 H 2.238457 0.814189 -1.110003 0
M  V30 37 H 0.317827 2.384727 -1.254884 0
M  V30 38 H -1.736183 3.876538 0.141152 0
M  V30 39 H -2.966832 4.542333 2.222081 0
M  V30 40 H -6.075029 2.787006 3.291287 0
M  V30 41 H -5.058915 4.215711 3.487183 0
M  V30 42 H -5.159528 2.806073 5.500247 0
M  V30 43 H -4.423317 1.410501 4.616658 0
M  V30 44 H -1.857382 3.257284 6.611994 0
M  V30 45 H -5.338750 0.963509 1.870554 0
M  V30 46 H -4.137816 0.361540 -0.136901 0
M  V30 47 H -2.323967 -0.974743 -1.128419 0
M  V30 48 H -0.423938 -2.496565 -0.982476 0
M  V30 49 H 2.744481 -5.914924 -0.668669 0
M  V30 END ATOM
M  V30 BEGIN BOND
M  V30 1 1 1 2
M  V30 2 2 2 3
M  V30 3 1 2 4
M  V30 4 2 4 5
M  V30 5 1 5 6
M  V30 6 2 6 7
M  V30 7 1 7 8
M  V30 8 1 8 9
M  V30 9 1 9 10
M  V30 10 2 10 11
M  V30 11 1 11 12
M  V30 12 2 12 13
M  V30 13 1 13 14
M  V30 14 1 14 15
M  V30 15 2 15 16
M  V30 16 1 16 17
M  V30 17 2 17 18
M  V30 18 1 18 19
M  V30 19 1 19 20
M  V30 20 1 20 21
M  V30 21 2 21 22
M  V30 22 1 21 23
M  V30 23 1 18 24
M  V30 24 2 24 25
M  V30 25 1 13 26
M  V30 26 2 26 27
M  V30 27 2 9 28
M  V30 28 1 28 29
M  V30 29 2 29 30
M  V30 30 1 30 4
M  V30 31 1 29 7
M  V30 32 1 27 10
M  V30 33 1 25 15
M  V30 34 1 1 31
M  V30 35 1 1 32
M  V30 36 1 5 33
M  V30 37 1 6 34
M  V30 38 1 8 35
M  V30 39 1 11 36
M  V30 40 1 12 37
M  V30 41 1 16 38
M  V30 42 1 17 39
M  V30 43 1 19 40
M  V30 44 1 19 41
M  V30 45 1 20 42
M  V30 46 1 20 43
M  V30 47 1 23 44
M  V30 48 1 24 45
M  V30 49 1 25 46
M  V30 50 1 26 47
M  V30 51 1 27 48
M  V30 52 1 30 49
M  V30 END BOND
M  V30 END CTAB
M  END
>  <Dataset>  (85) 
ChEMBL_Kinases

>  <Ligand_Instance>  (85) 
nan

>  <PDB_ID>  (85) 
nan

>  <Standardized_SMILES>  (85) 
NC(=O)c1ccc2[nH]c(-c3ccc(Oc4ccc(CCC(=O)O)cc4)cc3)nc2c1

>  <Name>  (85) 
nan

>  <Pocket>  (85) 
nan

>  <ATP_Site>  (85) 
nan

>  <Peripheral>  (85) 
nan

>  <Num_H_Atoms_ProtBoundConf>  (85) 
nan

>  <Num_Resolved_Atoms>  (85) 
nan

>  <Num_Not_Resolved_Atoms>  (85) 
nan

$$$$
CHEMBL4878393
     RDKit          3D

  0  0  0  0  0  0  0  0  0  0999 V3000
M  V30 BEGIN CTAB
M  V30 COUNTS 44 46 0 0 0
M  V30 BEGIN ATOM
M  V30 1 C 0.774015 -3.205060 3.396422 0
M  V30 2 O -0.095686 -3.552340 2.336559 0
M  V30 3 C -0.047717 -3.043350 1.067226 0
M  V30 4 C 0.937500 -2.111672 0.808702 0
M  V30 5 C 1.022388 -1.571518 -0.460180 0
M  V30 6 N 2.028082 -0.593216 -0.796973 0
M  V30 7 C 1.513147 0.722920 -0.540532 0
M  V30 8 O 0.319035 0.611874 -0.092106 0
M  V30 9 C 2.318511 1.945332 -0.789903 0 CFG=2
M  V30 10 N 3.614324 1.499948 -1.330223 0
M  V30 11 C 2.642677 2.692976 0.481538 0
M  V30 12 C 1.414317 3.108700 1.160589 0
M  V30 13 C 0.829059 2.268809 2.113550 0
M  V30 14 C -0.334983 2.619372 2.780100 0
M  V30 15 C -0.953637 3.837187 2.507311 0
M  V30 16 C -0.372403 4.662052 1.566645 0
M  V30 17 C 0.792522 4.298651 0.907174 0
M  V30 18 C 0.136704 -1.959906 -1.445355 0
M  V30 19 C -0.826425 -2.897337 -1.120408 0
M  V30 20 C -0.960337 -3.471464 0.127798 0
M  V30 21 C -2.006788 -4.452597 0.379357 0
M  V30 22 C -2.310754 -5.134424 1.527642 0
M  V30 23 N -3.364502 -5.933194 1.268220 0
M  V30 24 C -3.692564 -5.740525 -0.008390 0
M  V30 25 O -2.880566 -4.866592 -0.508660 0
M  V30 26 H 0.261397 -3.486452 4.362650 0
M  V30 27 H 1.709163 -3.812471 3.410299 0
M  V30 28 H 0.948221 -2.116404 3.483085 0
M  V30 29 H 1.632696 -1.805657 1.578817 0
M  V30 30 H 3.007084 -0.716944 -1.174632 0
M  V30 31 H 1.891274 2.602499 -1.577142 0
M  V30 32 H 4.206216 2.334490 -1.580205 0
M  V30 33 H 3.478935 0.973198 -2.229798 0
M  V30 34 H 3.214087 3.612667 0.246235 0
M  V30 35 H 3.291199 2.012986 1.096926 0
M  V30 36 H 1.237341 1.304793 2.393953 0
M  V30 37 H -0.784511 1.954300 3.524077 0
M  V30 38 H -1.858900 4.096531 3.033759 0
M  V30 39 H -0.907474 5.593085 1.405073 0
M  V30 40 H 1.198673 4.993213 0.178016 0
M  V30 41 H 0.170420 -1.559160 -2.454033 0
M  V30 42 H -1.511072 -3.185754 -1.913711 0
M  V30 43 H -1.833713 -5.077160 2.469634 0
M  V30 44 H -4.449068 -6.123205 -0.711517 0
M  V30 END ATOM
M  V30 BEGIN BOND
M  V30 1 1 1 2
M  V30 2 1 2 3
M  V30 3 2 3 4
M  V30 4 1 4 5
M  V30 5 1 5 6
M  V30 6 1 6 7
M  V30 7 2 7 8
M  V30 8 1 7 9
M  V30 9 1 9 10
M  V30 10 1 9 11
M  V30 11 1 11 12
M  V30 12 2 12 13
M  V30 13 1 13 14
M  V30 14 2 14 15
M  V30 15 1 15 16
M  V30 16 2 16 17
M  V30 17 2 5 18
M  V30 18 1 18 19
M  V30 19 2 19 20
M  V30 20 1 20 21
M  V30 21 2 21 22
M  V30 22 1 22 23
M  V30 23 2 23 24
M  V30 24 1 24 25
M  V30 25 1 20 3
M  V30 26 1 25 21
M  V30 27 1 17 12
M  V30 28 1 1 26
M  V30 29 1 1 27
M  V30 30 1 1 28
M  V30 31 1 4 29
M  V30 32 1 6 30
M  V30 33 1 9 31 CFG=3
M  V30 34 1 10 32
M  V30 35 1 10 33
M  V30 36 1 11 34
M  V30 37 1 11 35
M  V30 38 1 13 36
M  V30 39 1 14 37
M  V30 40 1 15 38
M  V30 41 1 16 39
M  V30 42 1 17 40
M  V30 43 1 18 41
M  V30 44 1 19 42
M  V30 45 1 22 43
M  V30 46 1 24 44
M  V30 END BOND
M  V30 END CTAB
M  END
>  <Dataset>  (86) 
ChEMBL_Kinases

>  <Ligand_Instance>  (86) 
nan

>  <PDB_ID>  (86) 
nan

>  <Standardized_SMILES>  (86) 
COc1cc(NC(=O)[C@H](N)Cc2ccccc2)ccc1-c1cnco1

>  <Name>  (86) 
nan

>  <Pocket>  (86) 
nan

>  <ATP_Site>  (86) 
nan

>  <Peripheral>  (86) 
nan

>  <Num_H_Atoms_ProtBoundConf>  (86) 
nan

>  <Num_Resolved_Atoms>  (86) 
nan

>  <Num_Not_Resolved_Atoms>  (86) 
nan

$$$$
CHEMBL3897377
     RDKit          3D

  0  0  0  0  0  0  0  0  0  0999 V3000
M  V30 BEGIN CTAB
M  V30 COUNTS 61 66 0 0 0
M  V30 BEGIN ATOM
M  V30 1 C 6.869457 -4.038495 5.939283 0
M  V30 2 O 5.985987 -2.995088 6.307854 0
M  V30 3 C 5.044191 -2.434818 5.464835 0
M  V30 4 O 5.148790 -3.036515 4.350903 0
M  V30 5 N 4.162855 -1.384335 5.853770 0
M  V30 6 C 3.307980 -1.027053 4.749998 0
M  V30 7 N 3.467747 -0.121253 3.768522 0
M  V30 8 C 2.380968 -0.171527 2.980746 0
M  V30 9 C 2.046501 0.549959 1.837973 0
M  V30 10 C 0.844071 0.289076 1.216916 0
M  V30 11 C 0.445027 1.054014 -0.019787 0
M  V30 12 O 1.541680 1.068449 -0.867728 0
M  V30 13 C -0.011889 2.420274 0.339783 0
M  V30 14 C 0.685699 3.436397 0.950186 0
M  V30 15 C 0.058190 4.658895 1.212826 0
M  V30 16 C -1.262071 4.849244 0.860483 0
M  V30 17 C -1.962988 3.831994 0.248294 0
M  V30 18 C -1.328124 2.630018 -0.004385 0
M  V30 19 C -1.740486 1.378537 -0.625272 0
M  V30 20 O -2.903505 1.208463 -1.066661 0
M  V30 21 N -0.690285 0.421896 -0.659602 0
M  V30 22 C -0.653362 -0.896610 -1.182467 0
M  V30 23 C 0.511155 -1.667404 -1.125650 0
M  V30 24 C 0.569575 -2.948156 -1.624071 0
M  V30 25 C -0.545672 -3.500360 -2.199518 0
M  V30 26 C -1.735172 -2.795492 -2.291221 0
M  V30 27 N -2.851599 -3.434382 -2.885429 0
M  V30 28 C -4.036613 -2.956649 -3.502195 0
M  V30 29 C -5.188433 -3.717337 -3.621446 0
M  V30 30 C -6.306248 -3.214830 -4.242502 0
M  V30 31 C -6.364922 -1.952640 -4.778505 0
M  V30 32 C -5.228970 -1.173783 -4.672834 0
M  V30 33 C -4.115451 -1.692921 -4.046823 0
M  V30 34 C -1.719116 -1.532722 -1.775968 0
M  V30 35 C 0.013555 -0.689984 1.763729 0
M  V30 36 C 0.341643 -1.406097 2.894867 0
M  V30 37 C 1.557771 -1.140972 3.521540 0
M  V30 38 N 2.130039 -1.674668 4.620563 0
M  V30 39 H 6.363273 -5.002050 6.210137 0
M  V30 40 H 6.980271 -4.073019 4.818894 0
M  V30 41 H 7.872889 -3.943867 6.397968 0
M  V30 42 H 4.284185 -1.066065 6.836313 0
M  V30 43 H 2.742506 1.292036 1.473237 0
M  V30 44 H 1.748210 1.945160 -1.234461 0
M  V30 45 H 1.699184 3.435435 1.275406 0
M  V30 46 H 0.512774 5.529398 1.689806 0
M  V30 47 H -1.824012 5.768652 1.029174 0
M  V30 48 H -2.993849 3.962167 -0.033864 0
M  V30 49 H 1.415086 -1.291181 -0.690227 0
M  V30 50 H 1.475519 -3.525348 -1.570569 0
M  V30 51 H -0.499951 -4.502548 -2.589603 0
M  V30 52 H -2.832112 -4.501928 -2.887349 0
M  V30 53 H -5.150591 -4.723421 -3.197563 0
M  V30 54 H -7.152970 -3.904761 -4.276755 0
M  V30 55 H -7.297754 -1.670605 -5.240805 0
M  V30 56 H -5.295201 -0.183704 -5.100766 0
M  V30 57 H -3.300757 -0.988947 -4.043083 0
M  V30 58 H -2.621756 -0.952744 -1.813438 0
M  V30 59 H -0.926307 -0.885809 1.268380 0
M  V30 60 H -0.359853 -2.145095 3.249157 0
M  V30 61 H 1.665430 -2.425494 5.174437 0
M  V30 END ATOM
M  V30 BEGIN BOND
M  V30 1 1 1 2
M  V30 2 1 2 3
M  V30 3 2 3 4
M  V30 4 1 3 5
M  V30 5 1 5 6
M  V30 6 2 6 7
M  V30 7 1 7 8
M  V30 8 2 8 9
M  V30 9 1 9 10
M  V30 10 1 10 11
M  V30 11 1 11 12
M  V30 12 1 11 13
M  V30 13 2 13 14
M  V30 14 1 14 15
M  V30 15 2 15 16
M  V30 16 1 16 17
M  V30 17 2 17 18
M  V30 18 1 18 19
M  V30 19 2 19 20
M  V30 20 1 19 21
M  V30 21 1 21 22
M  V30 22 2 22 23
M  V30 23 1 23 24
M  V30 24 2 24 25
M  V30 25 1 25 26
M  V30 26 1 26 27
M  V30 27 1 27 28
M  V30 28 2 28 29
M  V30 29 1 29 30
M  V30 30 2 30 31
M  V30 31 1 31 32
M  V30 32 2 32 33
M  V30 33 2 26 34
M  V30 34 2 10 35
M  V30 35 1 35 36
M  V30 36 2 36 37
M  V30 37 1 37 38
M  V30 38 1 38 6
M  V30 39 1 37 8
M  V30 40 1 21 11
M  V30 41 1 34 22
M  V30 42 1 18 13
M  V30 43 1 33 28
M  V30 44 1 1 39
M  V30 45 1 1 40
M  V30 46 1 1 41
M  V30 47 1 5 42
M  V30 48 1 9 43
M  V30 49 1 12 44
M  V30 50 1 14 45
M  V30 51 1 15 46
M  V30 52 1 16 47
M  V30 53 1 17 48
M  V30 54 1 23 49
M  V30 55 1 24 50
M  V30 56 1 25 51
M  V30 57 1 27 52
M  V30 58 1 29 53
M  V30 59 1 30 54
M  V30 60 1 31 55
M  V30 61 1 32 56
M  V30 62 1 33 57
M  V30 63 1 34 58
M  V30 64 1 35 59
M  V30 65 1 36 60
M  V30 66 1 38 61
M  V30 END BOND
M  V30 END CTAB
M  END
>  <Dataset>  (87) 
ChEMBL_Kinases

>  <Ligand_Instance>  (87) 
nan

>  <PDB_ID>  (87) 
nan

>  <Standardized_SMILES>  (87) 
COC(=O)Nc1nc2cc(C3(O)c4ccccc4C(=O)N3c3cccc(Nc4ccccc4)c3)ccc2[nH]1

>  <Name>  (87) 
nan

>  <Pocket>  (87) 
nan

>  <ATP_Site>  (87) 
nan

>  <Peripheral>  (87) 
nan

>  <Num_H_Atoms_ProtBoundConf>  (87) 
nan

>  <Num_Resolved_Atoms>  (87) 
nan

>  <Num_Not_Resolved_Atoms>  (87) 
nan

$$$$
CHEMBL602377
     RDKit          3D

  0  0  0  0  0  0  0  0  0  0999 V3000
M  V30 BEGIN CTAB
M  V30 COUNTS 37 38 0 0 0
M  V30 BEGIN ATOM
M  V30 1 C -1.485077 -1.698677 2.094387 0
M  V30 2 C -0.753792 -0.991581 0.922478 0
M  V30 3 C -0.278745 -2.067898 -0.006519 0
M  V30 4 C 0.647620 -3.025172 0.611664 0
M  V30 5 C 0.211354 -4.185510 1.247102 0
M  V30 6 C 1.124184 -5.054302 1.812984 0
M  V30 7 C 2.468646 -4.784119 1.755449 0
M  V30 8 C 2.917077 -3.640187 1.130280 0
M  V30 9 C 1.980089 -2.768979 0.561246 0
M  V30 10 N -1.713558 -0.111905 0.404953 0
M  V30 11 C -1.446340 0.787884 -0.629458 0
M  V30 12 C -0.468435 1.866296 -0.360674 0
M  V30 13 C -0.912345 3.163514 -0.058727 0
M  V30 14 C -0.145396 4.271956 0.226094 0
M  V30 15 C 1.221744 4.089943 0.214106 0
M  V30 16 C 1.744760 2.847446 -0.073186 0
M  V30 17 C 0.906431 1.790514 -0.347373 0
M  V30 18 O 1.485333 0.567747 -0.630230 0
M  V30 19 H -2.174320 -2.412250 1.590306 0
M  V30 20 H -0.762714 -2.206151 2.740124 0
M  V30 21 H -2.127341 -0.972433 2.635272 0
M  V30 22 H 0.042109 -0.435794 1.448608 0
M  V30 23 H -1.190089 -2.690657 -0.262519 0
M  V30 24 H 0.103758 -1.753401 -0.969679 0
M  V30 25 H -0.846156 -4.407372 1.297590 0
M  V30 26 H 0.807164 -5.944901 2.302135 0
M  V30 27 H 3.229901 -5.442205 2.188463 0
M  V30 28 H 3.990244 -3.431318 1.088185 0
M  V30 29 H 2.418424 -1.911213 0.100090 0
M  V30 30 H -2.193451 0.385755 1.188044 0
M  V30 31 H -2.423919 1.318150 -0.844949 0
M  V30 32 H -1.199696 0.332883 -1.615408 0
M  V30 33 H -2.004786 3.319233 -0.046782 0
M  V30 34 H -0.628548 5.214379 0.441716 0
M  V30 35 H 1.860198 4.910609 0.426785 0
M  V30 36 H 2.815825 2.692316 -0.085423 0
M  V30 37 H 2.377495 0.420978 -1.054165 0
M  V30 END ATOM
M  V30 BEGIN BOND
M  V30 1 1 1 2
M  V30 2 1 2 3
M  V30 3 1 3 4
M  V30 4 2 4 5
M  V30 5 1 5 6
M  V30 6 2 6 7
M  V30 7 1 7 8
M  V30 8 2 8 9
M  V30 9 1 2 10
M  V30 10 1 10 11
M  V30 11 1 11 12
M  V30 12 2 12 13
M  V30 13 1 13 14
M  V30 14 2 14 15
M  V30 15 1 15 16
M  V30 16 2 16 17
M  V30 17 1 17 18
M  V30 18 1 9 4
M  V30 19 1 17 12
M  V30 20 1 1 19
M  V30 21 1 1 20
M  V30 22 1 1 21
M  V30 23 1 2 22
M  V30 24 1 3 23
M  V30 25 1 3 24
M  V30 26 1 5 25
M  V30 27 1 6 26
M  V30 28 1 7 27
M  V30 29 1 8 28
M  V30 30 1 9 29
M  V30 31 1 10 30
M  V30 32 1 11 31
M  V30 33 1 11 32
M  V30 34 1 13 33
M  V30 35 1 14 34
M  V30 36 1 15 35
M  V30 37 1 16 36
M  V30 38 1 18 37
M  V30 END BOND
M  V30 END CTAB
M  END
>  <Dataset>  (88) 
ChEMBL_Kinases

>  <Ligand_Instance>  (88) 
nan

>  <PDB_ID>  (88) 
nan

>  <Standardized_SMILES>  (88) 
CC(Cc1ccccc1)NCc1ccccc1O

>  <Name>  (88) 
nan

>  <Pocket>  (88) 
nan

>  <ATP_Site>  (88) 
nan

>  <Peripheral>  (88) 
nan

>  <Num_H_Atoms_ProtBoundConf>  (88) 
nan

>  <Num_Resolved_Atoms>  (88) 
nan

>  <Num_Not_Resolved_Atoms>  (88) 
nan

$$$$
CHEMBL603682
     RDKit          3D

  0  0  0  0  0  0  0  0  0  0999 V3000
M  V30 BEGIN CTAB
M  V30 COUNTS 61 64 0 0 0
M  V30 BEGIN ATOM
M  V30 1 C 0.845534 3.665743 -2.634837 0
M  V30 2 C 1.410260 2.598883 -1.755232 0
M  V30 3 N 2.727030 2.341174 -1.653984 0
M  V30 4 C 2.992016 1.336641 -0.800875 0
M  V30 5 C 4.102161 0.679941 -0.333360 0
M  V30 6 C 3.994812 -0.360555 0.584425 0
M  V30 7 C 2.762082 -0.791350 1.077487 0
M  V30 8 C 2.761184 -1.890320 2.029500 0
M  V30 9 O 3.901776 -2.348833 2.314385 0
M  V30 10 C 1.567663 -2.458490 2.638606 0
M  V30 11 O 0.361634 -2.079378 2.442033 0
M  V30 12 N 1.706876 -3.539381 3.544305 0
M  V30 13 C 3.011229 -4.104017 3.882659 0
M  V30 14 C 0.551762 -4.165413 4.203331 0
M  V30 15 C 1.676440 -0.110108 0.586597 0
M  V30 16 C 1.770476 0.918887 -0.320423 0
M  V30 17 C 0.797145 1.697863 -0.909723 0
M  V30 18 C -0.630658 1.709284 -0.788607 0
M  V30 19 O -1.191397 2.823894 -0.504904 0
M  V30 20 N -1.766379 0.871667 -0.872757 0
M  V30 21 C -2.918448 1.660321 -0.615839 0
M  V30 22 C -4.215823 0.958039 -0.736461 0
M  V30 23 C -4.238464 -0.319184 -1.491005 0
M  V30 24 C -4.649317 -0.181014 -2.950867 0
M  V30 25 C -3.793755 0.678412 -3.754004 0
M  V30 26 C -2.694717 0.191397 -4.434343 0
M  V30 27 C -1.832846 0.933208 -5.219835 0
M  V30 28 C -2.099337 2.289988 -5.332937 0
M  V30 29 F -1.296537 3.084530 -6.087527 0
M  V30 30 C -3.183007 2.855806 -4.681308 0
M  V30 31 C -3.990753 2.031430 -3.916118 0
M  V30 32 C -3.041802 -1.191445 -1.318334 0
M  V30 33 C -1.733835 -0.519915 -1.164102 0
M  V30 34 H 0.761267 3.378905 -3.682009 0
M  V30 35 H 1.569003 4.531512 -2.583925 0
M  V30 36 H -0.095731 4.091935 -2.199043 0
M  V30 37 H 3.517293 2.836678 -2.160638 0
M  V30 38 H 5.053513 1.018796 -0.719356 0
M  V30 39 H 4.960991 -0.782929 0.861896 0
M  V30 40 H 2.922058 -4.953194 4.582728 0
M  V30 41 H 3.652294 -3.362789 4.395181 0
M  V30 42 H 3.517054 -4.538701 2.971538 0
M  V30 43 H 0.356911 -3.720535 5.201888 0
M  V30 44 H 0.741601 -5.256372 4.325694 0
M  V30 45 H -0.364190 -4.025243 3.603386 0
M  V30 46 H 0.715741 -0.391517 0.926013 0
M  V30 47 H -2.934758 2.573556 -1.277175 0
M  V30 48 H -2.819224 2.097677 0.417888 0
M  V30 49 H -4.983575 1.639346 -1.208267 0
M  V30 50 H -4.647951 0.792327 0.295613 0
M  V30 51 H -5.114720 -0.904200 -1.056051 0
M  V30 52 H -4.731171 -1.228427 -3.327195 0
M  V30 53 H -5.695314 0.218093 -3.006511 0
M  V30 54 H -2.480740 -0.875255 -4.347194 0
M  V30 55 H -0.994568 0.468192 -5.717584 0
M  V30 56 H -3.405610 3.926373 -4.761728 0
M  V30 57 H -4.825268 2.522166 -3.428769 0
M  V30 58 H -3.008681 -1.901937 -2.174404 0
M  V30 59 H -3.221986 -1.847465 -0.414269 0
M  V30 60 H -1.125728 -1.104035 -0.418747 0
M  V30 61 H -1.164984 -0.620442 -2.135784 0
M  V30 END ATOM
M  V30 BEGIN BOND
M  V30 1 1 1 2
M  V30 2 1 2 3
M  V30 3 1 3 4
M  V30 4 2 4 5
M  V30 5 1 5 6
M  V30 6 2 6 7
M  V30 7 1 7 8
M  V30 8 2 8 9
M  V30 9 1 8 10
M  V30 10 2 10 11
M  V30 11 1 10 12
M  V30 12 1 12 13
M  V30 13 1 12 14
M  V30 14 1 7 15
M  V30 15 2 15 16
M  V30 16 1 16 17
M  V30 17 1 17 18
M  V30 18 2 18 19
M  V30 19 1 18 20
M  V30 20 1 20 21
M  V30 21 1 21 22
M  V30 22 1 22 23
M  V30 23 1 23 24
M  V30 24 1 24 25
M  V30 25 2 25 26
M  V30 26 1 26 27
M  V30 27 2 27 28
M  V30 28 1 28 29
M  V30 29 1 28 30
M  V30 30 2 30 31
M  V30 31 1 23 32
M  V30 32 1 32 33
M  V30 33 2 17 2
M  V30 34 1 33 20
M  V30 35 1 16 4
M  V30 36 1 31 25
M  V30 37 1 1 34
M  V30 38 1 1 35
M  V30 39 1 1 36
M  V30 40 1 3 37
M  V30 41 1 5 38
M  V30 42 1 6 39
M  V30 43 1 13 40
M  V30 44 1 13 41
M  V30 45 1 13 42
M  V30 46 1 14 43
M  V30 47 1 14 44
M  V30 48 1 14 45
M  V30 49 1 15 46
M  V30 50 1 21 47
M  V30 51 1 21 48
M  V30 52 1 22 49
M  V30 53 1 22 50
M  V30 54 1 23 51
M  V30 55 1 24 52
M  V30 56 1 24 53
M  V30 57 1 26 54
M  V30 58 1 27 55
M  V30 59 1 30 56
M  V30 60 1 31 57
M  V30 61 1 32 58
M  V30 62 1 32 59
M  V30 63 1 33 60
M  V30 64 1 33 61
M  V30 END BOND
M  V30 END CTAB
M  END
>  <Dataset>  (89) 
ChEMBL_Kinases

>  <Ligand_Instance>  (89) 
nan

>  <PDB_ID>  (89) 
nan

>  <Standardized_SMILES>  (89) 
Cc1[nH]c2ccc(C(=O)C(=O)N(C)C)cc2c1C(=O)N1CCC(Cc2ccc(F)cc2)CC1

>  <Name>  (89) 
nan

>  <Pocket>  (89) 
nan

>  <ATP_Site>  (89) 
nan

>  <Peripheral>  (89) 
nan

>  <Num_H_Atoms_ProtBoundConf>  (89) 
nan

>  <Num_Resolved_Atoms>  (89) 
nan

>  <Num_Not_Resolved_Atoms>  (89) 
nan

$$$$
CHEMBL3900491
     RDKit          3D

  0  0  0  0  0  0  0  0  0  0999 V3000
M  V30 BEGIN CTAB
M  V30 COUNTS 61 64 0 0 0
M  V30 BEGIN ATOM
M  V30 1 C -0.578218 -0.192012 5.271856 0
M  V30 2 O -0.380154 0.061870 4.005621 0
M  V30 3 C 0.000565 0.347809 2.821473 0
M  V30 4 C 1.299954 0.726677 2.535962 0
M  V30 5 C 1.772134 1.053933 1.256887 0
M  V30 6 C 3.186817 1.413780 1.189903 0
M  V30 7 C 4.153328 1.044971 0.270073 0
M  V30 8 N 5.307033 1.620639 0.663832 0
M  V30 9 N 5.092447 2.327074 1.781835 0
M  V30 10 C 6.171235 3.040963 2.431411 0
M  V30 11 C 3.796380 2.219454 2.130492 0
M  V30 12 C 3.287393 2.914671 3.338680 0
M  V30 13 C 0.830114 0.974755 0.252850 0
M  V30 14 C -0.473923 0.604998 0.469682 0
M  V30 15 C -0.879797 0.293814 1.750001 0
M  V30 16 N -2.190349 -0.090269 2.057741 0
M  V30 17 C -3.359190 -0.378734 1.299933 0
M  V30 18 N -4.652096 -0.012500 1.372552 0
M  V30 19 C -5.550851 -0.511893 0.492742 0
M  V30 20 C -5.214215 -1.394887 -0.498336 0
M  V30 21 C -6.155257 -1.897116 -1.381278 0
M  V30 22 C -5.669969 -2.782351 -2.317014 0
M  V30 23 N -4.376066 -3.148468 -2.388775 0
M  V30 24 C -3.457122 -2.653003 -1.522073 0
M  V30 25 N -2.073387 -3.016529 -1.588921 0
M  V30 26 C -1.416172 -3.928519 -2.496280 0
M  V30 27 C 0.093735 -3.815456 -2.236682 0
M  V30 28 C 0.427599 -2.345699 -2.525283 0
M  V30 29 C 0.841321 -4.614077 -3.275259 0
M  V30 30 C 0.452238 -4.191077 -0.843081 0
M  V30 31 C -3.891842 -1.749908 -0.548545 0
M  V30 32 N -3.011249 -1.236657 0.343308 0
M  V30 33 H -0.120202 0.515465 6.027818 0
M  V30 34 H -1.639448 -0.341301 5.617729 0
M  V30 35 H -0.087098 -1.182671 5.572113 0
M  V30 36 H 1.991729 0.762234 3.391031 0
M  V30 37 H 3.953970 0.409889 -0.583273 0
M  V30 38 H 6.140529 4.104673 2.130424 0
M  V30 39 H 5.999266 3.007109 3.527848 0
M  V30 40 H 7.159601 2.627006 2.134034 0
M  V30 41 H 3.799049 3.915964 3.421262 0
M  V30 42 H 2.214000 3.124743 3.300733 0
M  V30 43 H 3.548650 2.358243 4.257534 0
M  V30 44 H 1.227966 1.236627 -0.706446 0
M  V30 45 H -1.153767 0.564859 -0.374289 0
M  V30 46 H -2.575615 -0.248265 3.008984 0
M  V30 47 H -6.560579 -0.177138 0.610468 0
M  V30 48 H -7.189935 -1.575909 -1.285348 0
M  V30 49 H -6.389458 -3.186607 -3.018547 0
M  V30 50 H -1.467483 -2.541241 -0.855345 0
M  V30 51 H -1.764840 -4.973458 -2.325287 0
M  V30 52 H -1.567748 -3.644855 -3.558555 0
M  V30 53 H 0.261173 -1.708611 -1.638346 0
M  V30 54 H 1.440567 -2.232557 -2.908918 0
M  V30 55 H -0.295609 -2.008713 -3.298207 0
M  V30 56 H 0.458918 -4.293297 -4.278377 0
M  V30 57 H 0.662068 -5.690189 -3.217342 0
M  V30 58 H 1.916542 -4.341506 -3.251379 0
M  V30 59 H 1.341486 -4.864577 -0.785699 0
M  V30 60 H -0.388141 -4.698014 -0.344900 0
M  V30 61 H 0.674159 -3.264769 -0.249595 0
M  V30 END ATOM
M  V30 BEGIN BOND
M  V30 1 1 1 2
M  V30 2 1 2 3
M  V30 3 2 3 4
M  V30 4 1 4 5
M  V30 5 1 5 6
M  V30 6 1 6 7
M  V30 7 2 7 8
M  V30 8 1 8 9
M  V30 9 1 9 10
M  V30 10 1 9 11
M  V30 11 1 11 12
M  V30 12 2 5 13
M  V30 13 1 13 14
M  V30 14 2 14 15
M  V30 15 1 15 16
M  V30 16 1 16 17
M  V30 17 2 17 18
M  V30 18 1 18 19
M  V30 19 2 19 20
M  V30 20 1 20 21
M  V30 21 2 21 22
M  V30 22 1 22 23
M  V30 23 2 23 24
M  V30 24 1 24 25
M  V30 25 1 25 26
M  V30 26 1 26 27
M  V30 27 1 27 28
M  V30 28 1 27 29
M  V30 29 1 27 30
M  V30 30 1 24 31
M  V30 31 2 31 32
M  V30 32 1 15 3
M  V30 33 1 32 17
M  V30 34 2 11 6
M  V30 35 1 31 20
M  V30 36 1 1 33
M  V30 37 1 1 34
M  V30 38 1 1 35
M  V30 39 1 4 36
M  V30 40 1 7 37
M  V30 41 1 10 38
M  V30 42 1 10 39
M  V30 43 1 10 40
M  V30 44 1 12 41
M  V30 45 1 12 42
M  V30 46 1 12 43
M  V30 47 1 13 44
M  V30 48 1 14 45
M  V30 49 1 16 46
M  V30 50 1 19 47
M  V30 51 1 21 48
M  V30 52 1 22 49
M  V30 53 1 25 50
M  V30 54 1 26 51
M  V30 55 1 26 52
M  V30 56 1 28 53
M  V30 57 1 28 54
M  V30 58 1 28 55
M  V30 59 1 29 56
M  V30 60 1 29 57
M  V30 61 1 29 58
M  V30 62 1 30 59
M  V30 63 1 30 60
M  V30 64 1 30 61
M  V30 END BOND
M  V30 END CTAB
M  END
>  <Dataset>  (90) 
ChEMBL_Kinases

>  <Ligand_Instance>  (90) 
nan

>  <PDB_ID>  (90) 
nan

>  <Standardized_SMILES>  (90) 
COc1cc(-c2cnn(C)c2C)ccc1Nc1ncc2ccnc(NCC(C)(C)C)c2n1

>  <Name>  (90) 
nan

>  <Pocket>  (90) 
nan

>  <ATP_Site>  (90) 
nan

>  <Peripheral>  (90) 
nan

>  <Num_H_Atoms_ProtBoundConf>  (90) 
nan

>  <Num_Resolved_Atoms>  (90) 
nan

>  <Num_Not_Resolved_Atoms>  (90) 
nan

$$$$
CHEMBL3900426
     RDKit          3D

  0  0  0  0  0  0  0  0  0  0999 V3000
M  V30 BEGIN CTAB
M  V30 COUNTS 47 51 0 0 0
M  V30 BEGIN ATOM
M  V30 1 O -1.651822 -3.252148 4.686102 0
M  V30 2 C -0.909701 -3.319261 3.683172 0
M  V30 3 C -0.175384 -4.506107 3.197362 0
M  V30 4 O 0.989415 -4.160841 2.479406 0
M  V30 5 C 1.120470 -2.976583 1.770613 0
M  V30 6 C 2.136230 -2.838503 0.831281 0
M  V30 7 C 2.311171 -1.681984 0.099085 0
M  V30 8 C 1.430235 -0.617180 0.317045 0
M  V30 9 C 1.499956 0.711735 -0.403901 0
M  V30 10 O 2.302277 0.678239 -1.513096 0
M  V30 11 C 1.916241 1.694805 0.633643 0
M  V30 12 C 3.212717 1.745841 1.123243 0
M  V30 13 C 3.509843 2.641728 2.131408 0
M  V30 14 C 2.525476 3.469374 2.637763 0
M  V30 15 C 1.261485 3.370885 2.109609 0
M  V30 16 C 0.905202 2.501522 1.106386 0
M  V30 17 C -0.229597 2.124888 0.274591 0
M  V30 18 O -1.305178 2.768586 0.559694 0
M  V30 19 N 0.139230 1.099457 -0.687013 0
M  V30 20 C -0.957623 0.834503 -1.605697 0
M  V30 21 C -1.847494 -0.220621 -1.141048 0
M  V30 22 C -3.004146 0.094239 -0.443740 0
M  V30 23 C -3.882974 -0.844284 0.056071 0
M  V30 24 C -3.640266 -2.174563 -0.122724 0
M  V30 25 C -2.503826 -2.569627 -0.811318 0
M  V30 26 C -1.668555 -1.579416 -1.284364 0
M  V30 27 Cl -0.287491 -2.158790 -2.187432 0
M  V30 28 C 0.411704 -0.749439 1.255995 0
M  V30 29 C 0.249946 -1.913226 1.980523 0
M  V30 30 N -0.790140 -2.088882 2.959913 0
M  V30 31 H -0.897430 -5.103555 2.589504 0
M  V30 32 H 0.066495 -5.127389 4.084169 0
M  V30 33 H 2.840986 -3.636759 0.629692 0
M  V30 34 H 3.079927 -1.523763 -0.639917 0
M  V30 35 H 3.221445 0.410558 -1.345499 0
M  V30 36 H 4.051214 1.150709 0.803643 0
M  V30 37 H 4.504083 2.749283 2.578304 0
M  V30 38 H 2.656409 4.200865 3.423188 0
M  V30 39 H 0.446223 4.004004 2.476672 0
M  V30 40 H -1.500829 1.720770 -1.936062 0
M  V30 41 H -0.445065 0.452558 -2.534465 0
M  V30 42 H -3.322676 1.107674 -0.231080 0
M  V30 43 H -4.784132 -0.601787 0.598674 0
M  V30 44 H -4.313106 -2.929180 0.258316 0
M  V30 45 H -2.326528 -3.607812 -0.942156 0
M  V30 46 H -0.311756 -0.007421 1.501629 0
M  V30 47 H -1.442574 -1.287374 3.114409 0
M  V30 END ATOM
M  V30 BEGIN BOND
M  V30 1 2 1 2
M  V30 2 1 2 3
M  V30 3 1 3 4
M  V30 4 1 4 5
M  V30 5 2 5 6
M  V30 6 1 6 7
M  V30 7 2 7 8
M  V30 8 1 8 9
M  V30 9 1 9 10
M  V30 10 1 9 11
M  V30 11 2 11 12
M  V30 12 1 12 13
M  V30 13 2 13 14
M  V30 14 1 14 15
M  V30 15 2 15 16
M  V30 16 1 16 17
M  V30 17 2 17 18
M  V30 18 1 17 19
M  V30 19 1 19 20
M  V30 20 1 20 21
M  V30 21 2 21 22
M  V30 22 1 22 23
M  V30 23 2 23 24
M  V30 24 1 24 25
M  V30 25 2 25 26
M  V30 26 1 26 27
M  V30 27 1 8 28
M  V30 28 2 28 29
M  V30 29 1 29 30
M  V30 30 1 30 2
M  V30 31 1 29 5
M  V30 32 1 19 9
M  V30 33 1 26 21
M  V30 34 1 16 11
M  V30 35 1 3 31
M  V30 36 1 3 32
M  V30 37 1 6 33
M  V30 38 1 7 34
M  V30 39 1 10 35
M  V30 40 1 12 36
M  V30 41 1 13 37
M  V30 42 1 14 38
M  V30 43 1 15 39
M  V30 44 1 20 40
M  V30 45 1 20 41
M  V30 46 1 22 42
M  V30 47 1 23 43
M  V30 48 1 24 44
M  V30 49 1 25 45
M  V30 50 1 28 46
M  V30 51 1 30 47
M  V30 END BOND
M  V30 END CTAB
M  END
>  <Dataset>  (91) 
ChEMBL_Kinases

>  <Ligand_Instance>  (91) 
nan

>  <PDB_ID>  (91) 
nan

>  <Standardized_SMILES>  (91) 
O=C1COc2ccc(C3(O)c4ccccc4C(=O)N3Cc3ccccc3Cl)cc2N1

>  <Name>  (91) 
nan

>  <Pocket>  (91) 
nan

>  <ATP_Site>  (91) 
nan

>  <Peripheral>  (91) 
nan

>  <Num_H_Atoms_ProtBoundConf>  (91) 
nan

>  <Num_Resolved_Atoms>  (91) 
nan

>  <Num_Not_Resolved_Atoms>  (91) 
nan

$$$$
CHEMBL3900407
     RDKit          3D

  0  0  0  0  0  0  0  0  0  0999 V3000
M  V30 BEGIN CTAB
M  V30 COUNTS 46 49 0 0 0
M  V30 BEGIN ATOM
M  V30 1 C 3.266222 -4.879617 2.147565 0
M  V30 2 C 2.389718 -4.066755 1.256343 0
M  V30 3 C 2.618862 -2.569588 1.361094 0
M  V30 4 C 1.648075 -1.933356 0.394473 0
M  V30 5 N 1.741507 -0.493242 0.375330 0
M  V30 6 C 2.556006 0.346454 -0.435641 0
M  V30 7 O 3.362491 -0.051848 -1.318281 0
M  V30 8 C 2.228207 1.700583 0.000191 0
M  V30 9 C 2.776488 2.871999 -0.500768 0
M  V30 10 C 2.329976 4.068468 0.056856 0
M  V30 11 C 1.379271 4.068923 1.066762 0
M  V30 12 C 0.880556 2.862140 1.512384 0
M  V30 13 C 1.279909 1.644479 1.003293 0
M  V30 14 C 0.902605 0.252619 1.302144 0
M  V30 15 O 1.364008 0.004933 2.615333 0
M  V30 16 C -0.518155 -0.055312 1.182095 0
M  V30 17 C -1.241718 -0.431685 2.306315 0
M  V30 18 C -2.591653 -0.737150 2.263888 0
M  V30 19 C -3.219064 -0.655469 1.037854 0
M  V30 20 C -2.522164 -0.282065 -0.103154 0
M  V30 21 C -1.162404 0.020622 -0.033824 0
M  V30 22 N -3.271781 -0.231501 -1.311163 0
M  V30 23 C -4.667892 -0.549636 -1.339666 0
M  V30 24 O -5.399816 -0.159789 -2.288389 0
M  V30 25 C -5.201965 -1.363174 -0.190113 0
M  V30 26 O -4.590298 -0.970611 1.019883 0
M  V30 27 H 3.738697 -5.672005 1.523235 0
M  V30 28 H 4.019369 -4.231297 2.629269 0
M  V30 29 H 2.642070 -5.422891 2.891454 0
M  V30 30 H 2.553000 -4.310577 0.179053 0
M  V30 31 H 1.301517 -4.225306 1.463939 0
M  V30 32 H 2.345768 -2.281197 2.396969 0
M  V30 33 H 3.669027 -2.326875 1.129950 0
M  V30 34 H 0.632177 -2.318039 0.607871 0
M  V30 35 H 1.905500 -2.286291 -0.632886 0
M  V30 36 H 3.517846 2.875999 -1.288506 0
M  V30 37 H 2.713651 5.038479 -0.283643 0
M  V30 38 H 1.005412 4.971376 1.527217 0
M  V30 39 H 0.142019 2.837377 2.295481 0
M  V30 40 H 0.950053 0.713591 3.193985 0
M  V30 41 H -0.714290 -0.484946 3.255147 0
M  V30 42 H -3.063434 -1.019937 3.199084 0
M  V30 43 H -0.654786 0.307179 -0.942618 0
M  V30 44 H -2.781288 0.044226 -2.183590 0
M  V30 45 H -5.071367 -2.446228 -0.391165 0
M  V30 46 H -6.299634 -1.219530 -0.063147 0
M  V30 END ATOM
M  V30 BEGIN BOND
M  V30 1 1 1 2
M  V30 2 1 2 3
M  V30 3 1 3 4
M  V30 4 1 4 5
M  V30 5 1 5 6
M  V30 6 2 6 7
M  V30 7 1 6 8
M  V30 8 2 8 9
M  V30 9 1 9 10
M  V30 10 2 10 11
M  V30 11 1 11 12
M  V30 12 2 12 13
M  V30 13 1 13 14
M  V30 14 1 14 15
M  V30 15 1 14 16
M  V30 16 2 16 17
M  V30 17 1 17 18
M  V30 18 2 18 19
M  V30 19 1 19 20
M  V30 20 2 20 21
M  V30 21 1 20 22
M  V30 22 1 22 23
M  V30 23 2 23 24
M  V30 24 1 23 25
M  V30 25 1 25 26
M  V30 26 1 14 5
M  V30 27 1 21 16
M  V30 28 1 13 8
M  V30 29 1 26 19
M  V30 30 1 1 27
M  V30 31 1 1 28
M  V30 32 1 1 29
M  V30 33 1 2 30
M  V30 34 1 2 31
M  V30 35 1 3 32
M  V30 36 1 3 33
M  V30 37 1 4 34
M  V30 38 1 4 35
M  V30 39 1 9 36
M  V30 40 1 10 37
M  V30 41 1 11 38
M  V30 42 1 12 39
M  V30 43 1 15 40
M  V30 44 1 17 41
M  V30 45 1 18 42
M  V30 46 1 21 43
M  V30 47 1 22 44
M  V30 48 1 25 45
M  V30 49 1 25 46
M  V30 END BOND
M  V30 END CTAB
M  END
>  <Dataset>  (92) 
ChEMBL_Kinases

>  <Ligand_Instance>  (92) 
nan

>  <PDB_ID>  (92) 
nan

>  <Standardized_SMILES>  (92) 
CCCCN1C(=O)c2ccccc2C1(O)c1ccc2c(c1)NC(=O)CO2

>  <Name>  (92) 
nan

>  <Pocket>  (92) 
nan

>  <ATP_Site>  (92) 
nan

>  <Peripheral>  (92) 
nan

>  <Num_H_Atoms_ProtBoundConf>  (92) 
nan

>  <Num_Resolved_Atoms>  (92) 
nan

>  <Num_Not_Resolved_Atoms>  (92) 
nan

$$$$
CHEMBL390024
     RDKit          3D

  0  0  0  0  0  0  0  0  0  0999 V3000
M  V30 BEGIN CTAB
M  V30 COUNTS 54 58 0 0 0
M  V30 BEGIN ATOM
M  V30 1 C 2.347708 -4.952084 1.948689 0
M  V30 2 C 2.421477 -3.569645 2.560425 0 CFG=1
M  V30 3 C 1.126717 -2.814738 2.272871 0
M  V30 4 C 0.904158 -1.759283 3.298207 0
M  V30 5 C 2.176577 -1.212016 3.880482 0 CFG=2
M  V30 6 N 3.119653 -0.701550 3.006330 0
M  V30 7 C 2.977144 0.388108 2.169406 0
M  V30 8 C 2.007054 0.300721 1.067875 0
M  V30 9 C 2.467898 -0.315598 -0.105779 0
M  V30 10 C 1.753399 -0.487388 -1.272165 0
M  V30 11 C 0.457877 -0.018982 -1.321304 0
M  V30 12 C -0.047305 0.595779 -0.195898 0
M  V30 13 C 0.704282 0.744870 0.947295 0
M  V30 14 C -1.460084 1.046887 -0.407568 0
M  V30 15 C -1.748551 0.634781 -1.786539 0
M  V30 16 C -2.660061 0.586921 -2.821032 0
M  V30 17 C -4.019451 1.114047 -2.778423 0
M  V30 18 C -4.912191 0.947629 -1.754971 0
M  V30 19 C -6.178189 1.497989 -1.830690 0
M  V30 20 C -6.545468 2.218765 -2.942314 0
M  V30 21 Cl -8.168635 2.909752 -3.010979 0
M  V30 22 C -5.664971 2.405135 -3.994910 0
M  V30 23 C -4.409071 1.847204 -3.896568 0
M  V30 24 N -2.079665 -0.032625 -3.884278 0
M  V30 25 N -0.824914 -0.384901 -3.567966 0
M  V30 26 C -0.623970 0.019345 -2.296985 0
M  V30 27 C 2.844910 -2.334276 4.694482 0
M  V30 28 C 2.548884 -3.674658 4.057702 0
M  V30 29 H 2.038266 -4.782161 0.878117 0
M  V30 30 H 3.383946 -5.346482 1.890487 0
M  V30 31 H 1.697818 -5.632108 2.497650 0
M  V30 32 H 3.308972 -3.104951 2.128536 0
M  V30 33 H 1.059030 -2.464337 1.228221 0
M  V30 34 H 0.333496 -3.617183 2.343568 0
M  V30 35 H 0.417119 -2.306221 4.181435 0
M  V30 36 H 0.197078 -0.995016 3.047715 0
M  V30 37 H 1.882914 -0.441797 4.621736 0
M  V30 38 H 4.093176 -1.079489 3.123324 0
M  V30 39 H 3.986247 0.583838 1.677145 0
M  V30 40 H 2.772141 1.367922 2.685114 0
M  V30 41 H 3.475965 -0.712461 -0.153266 0
M  V30 42 H 2.162171 -0.967460 -2.136778 0
M  V30 43 H 0.361433 1.222216 1.870231 0
M  V30 44 H -1.557163 2.141004 -0.272327 0
M  V30 45 H -2.149400 0.580831 0.324046 0
M  V30 46 H -4.591782 0.380783 -0.905488 0
M  V30 47 H -6.901603 1.381476 -1.036985 0
M  V30 48 H -6.025968 2.983563 -4.835029 0
M  V30 49 H -3.785756 2.039810 -4.759538 0
M  V30 50 H -0.171016 -0.875446 -4.216283 0
M  V30 51 H 2.447127 -2.281433 5.719299 0
M  V30 52 H 3.923909 -2.118189 4.697028 0
M  V30 53 H 1.639132 -4.096778 4.514166 0
M  V30 54 H 3.378496 -4.383572 4.261184 0
M  V30 END ATOM
M  V30 BEGIN BOND
M  V30 1 1 1 2
M  V30 2 1 2 3
M  V30 3 1 3 4
M  V30 4 1 4 5
M  V30 5 1 5 6
M  V30 6 1 6 7
M  V30 7 1 7 8
M  V30 8 2 8 9
M  V30 9 1 9 10
M  V30 10 2 10 11
M  V30 11 1 11 12
M  V30 12 2 12 13
M  V30 13 1 12 14
M  V30 14 1 14 15
M  V30 15 1 15 16
M  V30 16 1 16 17
M  V30 17 2 17 18
M  V30 18 1 18 19
M  V30 19 2 19 20
M  V30 20 1 20 21
M  V30 21 1 20 22
M  V30 22 2 22 23
M  V30 23 2 16 24
M  V30 24 1 24 25
M  V30 25 1 25 26
M  V30 26 1 5 27
M  V30 27 1 27 28
M  V30 28 1 28 2
M  V30 29 1 13 8
M  V30 30 2 26 15
M  V30 31 1 26 11
M  V30 32 1 23 17
M  V30 33 1 1 29
M  V30 34 1 1 30
M  V30 35 1 1 31
M  V30 36 1 2 32 CFG=3
M  V30 37 1 3 33
M  V30 38 1 3 34
M  V30 39 1 4 35
M  V30 40 1 4 36
M  V30 41 1 5 37 CFG=1
M  V30 42 1 6 38
M  V30 43 1 7 39
M  V30 44 1 7 40
M  V30 45 1 9 41
M  V30 46 1 10 42
M  V30 47 1 13 43
M  V30 48 1 14 44
M  V30 49 1 14 45
M  V30 50 1 18 46
M  V30 51 1 19 47
M  V30 52 1 22 48
M  V30 53 1 23 49
M  V30 54 1 25 50
M  V30 55 1 27 51
M  V30 56 1 27 52
M  V30 57 1 28 53
M  V30 58 1 28 54
M  V30 END BOND
M  V30 END CTAB
M  END
>  <Dataset>  (93) 
ChEMBL_Kinases

>  <Ligand_Instance>  (93) 
nan

>  <PDB_ID>  (93) 
nan

>  <Standardized_SMILES>  (93) 
C[C@H]1CC[C@H](NCc2ccc3c(c2)Cc2c(-c4ccc(Cl)cc4)n[nH]c2-3)CC1

>  <Name>  (93) 
nan

>  <Pocket>  (93) 
nan

>  <ATP_Site>  (93) 
nan

>  <Peripheral>  (93) 
nan

>  <Num_H_Atoms_ProtBoundConf>  (93) 
nan

>  <Num_Resolved_Atoms>  (93) 
nan

>  <Num_Not_Resolved_Atoms>  (93) 
nan

$$$$
CHEMBL3907188
     RDKit          3D

  0  0  0  0  0  0  0  0  0  0999 V3000
M  V30 BEGIN CTAB
M  V30 COUNTS 46 49 0 0 0
M  V30 BEGIN ATOM
M  V30 1 C 1.337156 -0.139448 -5.196366 0
M  V30 2 C 1.598666 -1.404801 -4.470400 0
M  V30 3 C 1.392758 -2.690768 -4.922597 0
M  V30 4 C 1.678418 -3.790229 -4.143940 0
M  V30 5 C 2.189498 -3.607918 -2.863649 0
M  V30 6 C 2.402559 -2.310031 -2.394043 0
M  V30 7 C 2.104956 -1.207923 -3.202991 0
M  V30 8 C 2.417174 0.054445 -2.482741 0
M  V30 9 O 2.010309 1.192596 -3.153768 0
M  V30 10 C 1.677284 0.068203 -1.173893 0
M  V30 11 C 2.334420 -0.219606 0.005001 0
M  V30 12 C 1.591613 -0.187209 1.168140 0
M  V30 13 C 0.245750 0.116695 1.186936 0
M  V30 14 C -0.576689 0.162403 2.393669 0
M  V30 15 N -0.053904 -0.101162 3.613077 0
M  V30 16 C -1.024411 0.010525 4.549595 0
M  V30 17 C -1.041350 -0.147195 5.921075 0
M  V30 18 C -2.266761 0.064652 6.505544 0
M  V30 19 C -2.348564 -0.088146 7.953005 0
M  V30 20 N -1.292044 -0.444677 8.837158 0
M  V30 21 O -3.214801 0.010100 8.859173 0
M  V30 22 C -3.449440 0.408893 5.883721 0
M  V30 23 C -3.361982 0.552606 4.493444 0
M  V30 24 C -2.164170 0.355432 3.838215 0
M  V30 25 N -1.867085 0.444312 2.508171 0
M  V30 26 C -0.384434 0.402985 -0.030912 0
M  V30 27 C 0.315246 0.386111 -1.243078 0
M  V30 28 H 2.247518 0.464418 -5.361279 0
M  V30 29 H 0.976022 -0.414584 -6.230688 0
M  V30 30 H 0.483272 0.443313 -4.772990 0
M  V30 31 H 0.992804 -2.757798 -5.928654 0
M  V30 32 H 1.500092 -4.784811 -4.542031 0
M  V30 33 H 2.399181 -4.498112 -2.287734 0
M  V30 34 H 2.801253 -2.304722 -1.387781 0
M  V30 35 H 3.506187 0.159145 -2.295355 0
M  V30 36 H 2.595834 1.974482 -3.033210 0
M  V30 37 H 3.384467 -0.461659 0.034304 0
M  V30 38 H 2.027299 -0.401576 2.148331 0
M  V30 39 H -0.173839 -0.411001 6.472904 0
M  V30 40 H -0.464233 -0.037317 9.359782 0
M  V30 41 H -0.847377 -1.225669 9.366018 0
M  V30 42 H -4.367126 0.554168 6.437087 0
M  V30 43 H -4.265145 0.821721 3.965813 0
M  V30 44 H -2.536541 0.687449 1.745561 0
M  V30 45 H -1.452195 0.648763 -0.056738 0
M  V30 46 H -0.169346 0.606480 -2.182987 0
M  V30 END ATOM
M  V30 BEGIN BOND
M  V30 1 1 1 2
M  V30 2 2 2 3
M  V30 3 1 3 4
M  V30 4 2 4 5
M  V30 5 1 5 6
M  V30 6 2 6 7
M  V30 7 1 7 8
M  V30 8 1 8 9
M  V30 9 1 8 10
M  V30 10 2 10 11
M  V30 11 1 11 12
M  V30 12 2 12 13
M  V30 13 1 13 14
M  V30 14 2 14 15
M  V30 15 1 15 16
M  V30 16 2 16 17
M  V30 17 1 17 18
M  V30 18 1 18 19
M  V30 19 1 19 20
M  V30 20 2 19 21
M  V30 21 2 18 22
M  V30 22 1 22 23
M  V30 23 2 23 24
M  V30 24 1 24 25
M  V30 25 1 13 26
M  V30 26 2 26 27
M  V30 27 1 7 2
M  V30 28 1 27 10
M  V30 29 1 25 14
M  V30 30 1 24 16
M  V30 31 1 1 28
M  V30 32 1 1 29
M  V30 33 1 1 30
M  V30 34 1 3 31
M  V30 35 1 4 32
M  V30 36 1 5 33
M  V30 37 1 6 34
M  V30 38 1 8 35
M  V30 39 1 9 36
M  V30 40 1 11 37
M  V30 41 1 12 38
M  V30 42 1 17 39
M  V30 43 1 20 40
M  V30 44 1 20 41
M  V30 45 1 22 42
M  V30 46 1 23 43
M  V30 47 1 25 44
M  V30 48 1 26 45
M  V30 49 1 27 46
M  V30 END BOND
M  V30 END CTAB
M  END
>  <Dataset>  (94) 
ChEMBL_Kinases

>  <Ligand_Instance>  (94) 
nan

>  <PDB_ID>  (94) 
nan

>  <Standardized_SMILES>  (94) 
Cc1ccccc1C(O)c1ccc(-c2nc3cc(C(N)=O)ccc3[nH]2)cc1

>  <Name>  (94) 
nan

>  <Pocket>  (94) 
nan

>  <ATP_Site>  (94) 
nan

>  <Peripheral>  (94) 
nan

>  <Num_H_Atoms_ProtBoundConf>  (94) 
nan

>  <Num_Resolved_Atoms>  (94) 
nan

>  <Num_Not_Resolved_Atoms>  (94) 
nan

$$$$
CHEMBL3900024
     RDKit          3D

  0  0  0  0  0  0  0  0  0  0999 V3000
M  V30 BEGIN CTAB
M  V30 COUNTS 46 50 0 0 0
M  V30 BEGIN ATOM
M  V30 1 C -4.642545 -4.887964 -3.623605 0
M  V30 2 C -3.533120 -5.027840 -2.635321 0
M  V30 3 C -2.908358 -3.873041 -2.227152 0
M  V30 4 C -1.874650 -3.931894 -1.314872 0
M  V30 5 N -1.101880 -2.870366 -0.765841 0
M  V30 6 C 0.107342 -2.252929 -1.185582 0
M  V30 7 O 0.603082 -2.723100 -2.243976 0
M  V30 8 C 0.643806 -1.165274 -0.374664 0
M  V30 9 C 0.124229 -0.631158 0.786198 0
M  V30 10 C 0.772622 0.403681 1.423181 0
M  V30 11 C 1.943592 0.964448 0.969973 0
M  V30 12 C 2.725579 1.983652 1.457626 0
M  V30 13 C 2.593854 2.832025 2.625734 0
M  V30 14 N 3.512219 3.781905 2.895765 0
M  V30 15 C 3.231746 4.467814 4.009818 0
M  V30 16 C 3.852409 5.504727 4.676545 0
M  V30 17 C 3.264494 5.989354 5.843370 0
M  V30 18 C 2.082109 5.458044 6.343674 0
M  V30 19 C 1.465211 4.406749 5.655644 0
M  V30 20 C 2.059697 3.938618 4.502630 0
M  V30 21 N 1.733107 2.970833 3.634263 0
M  V30 22 N 3.724223 2.031913 0.544016 0
M  V30 23 N 3.563007 1.131725 -0.402425 0
M  V30 24 C 2.445206 0.415940 -0.191011 0
M  V30 25 C 1.824279 -0.620259 -0.856415 0
M  V30 26 C -1.495374 -5.185987 -0.831876 0
M  V30 27 C -2.125276 -6.334322 -1.245320 0
M  V30 28 C -3.167693 -6.273177 -2.165503 0
M  V30 29 O -3.831756 -7.413440 -2.609827 0
M  V30 30 H -5.533612 -4.552508 -3.030181 0
M  V30 31 H -4.418239 -4.069848 -4.339558 0
M  V30 32 H -4.864614 -5.848574 -4.122805 0
M  V30 33 H -3.131873 -2.865098 -2.544151 0
M  V30 34 H -1.655646 -2.618012 0.082014 0
M  V30 35 H -0.789609 -1.088621 1.115635 0
M  V30 36 H 0.311201 0.761323 2.311024 0
M  V30 37 H 4.766203 5.904157 4.276205 0
M  V30 38 H 3.748960 6.801697 6.367440 0
M  V30 39 H 1.605301 5.817181 7.248410 0
M  V30 40 H 0.544632 3.947477 5.989241 0
M  V30 41 H 0.892031 2.401742 3.755807 0
M  V30 42 H 4.243465 1.033556 -1.185575 0
M  V30 43 H 2.337568 -0.954074 -1.765651 0
M  V30 44 H -0.693012 -5.372549 -0.106846 0
M  V30 45 H -1.875740 -7.334905 -0.906421 0
M  V30 46 H -4.189878 -8.100092 -1.951739 0
M  V30 END ATOM
M  V30 BEGIN BOND
M  V30 1 1 1 2
M  V30 2 2 2 3
M  V30 3 1 3 4
M  V30 4 1 4 5
M  V30 5 1 5 6
M  V30 6 2 6 7
M  V30 7 1 6 8
M  V30 8 2 8 9
M  V30 9 1 9 10
M  V30 10 2 10 11
M  V30 11 1 11 12
M  V30 12 1 12 13
M  V30 13 2 13 14
M  V30 14 1 14 15
M  V30 15 2 15 16
M  V30 16 1 16 17
M  V30 17 2 17 18
M  V30 18 1 18 19
M  V30 19 2 19 20
M  V30 20 1 20 21
M  V30 21 2 12 22
M  V30 22 1 22 23
M  V30 23 1 23 24
M  V30 24 2 24 25
M  V30 25 2 4 26
M  V30 26 1 26 27
M  V30 27 2 27 28
M  V30 28 1 28 29
M  V30 29 1 28 2
M  V30 30 1 25 8
M  V30 31 1 24 11
M  V30 32 1 21 13
M  V30 33 1 20 15
M  V30 34 1 1 30
M  V30 35 1 1 31
M  V30 36 1 1 32
M  V30 37 1 3 33
M  V30 38 1 5 34
M  V30 39 1 9 35
M  V30 40 1 10 36
M  V30 41 1 16 37
M  V30 42 1 17 38
M  V30 43 1 18 39
M  V30 44 1 19 40
M  V30 45 1 21 41
M  V30 46 1 23 42
M  V30 47 1 25 43
M  V30 48 1 26 44
M  V30 49 1 27 45
M  V30 50 1 29 46
M  V30 END BOND
M  V30 END CTAB
M  END
>  <Dataset>  (95) 
ChEMBL_Kinases

>  <Ligand_Instance>  (95) 
nan

>  <PDB_ID>  (95) 
nan

>  <Standardized_SMILES>  (95) 
Cc1cc(NC(=O)c2ccc3c(-c4nc5ccccc5[nH]4)n[nH]c3c2)ccc1O

>  <Name>  (95) 
nan

>  <Pocket>  (95) 
nan

>  <ATP_Site>  (95) 
nan

>  <Peripheral>  (95) 
nan

>  <Num_H_Atoms_ProtBoundConf>  (95) 
nan

>  <Num_Resolved_Atoms>  (95) 
nan

>  <Num_Not_Resolved_Atoms>  (95) 
nan

$$$$
CHEMBL4878141
     RDKit          3D

  0  0  0  0  0  0  0  0  0  0999 V3000
M  V30 BEGIN CTAB
M  V30 COUNTS 48 51 0 0 0
M  V30 BEGIN ATOM
M  V30 1 C 0.269549 -2.749165 4.587130 0
M  V30 2 O 1.375291 -3.511131 4.118459 0
M  V30 3 C 1.731392 -3.345419 2.785451 0
M  V30 4 O 1.024081 -2.528817 2.138596 0
M  V30 5 C 2.797538 -3.946499 1.951684 0
M  V30 6 C 3.923044 -2.989147 1.631723 0
M  V30 7 C 3.438563 -1.795201 0.897549 0
M  V30 8 C 3.077573 -0.745558 1.741792 0
M  V30 9 C 2.587582 0.471541 1.300604 0
M  V30 10 C 2.458282 0.625647 -0.086654 0
M  V30 11 N 1.955491 1.827395 -0.698013 0
M  V30 12 C 2.441477 2.808254 -1.506526 0
M  V30 13 N 1.445062 3.678933 -1.742035 0
M  V30 14 C 0.324138 3.278265 -1.100643 0
M  V30 15 C -0.923066 3.893563 -1.083371 0
M  V30 16 N -1.846198 3.246776 -0.345935 0
M  V30 17 C -1.603422 2.108411 0.321003 0
M  V30 18 N -2.591357 1.434591 1.096073 0
M  V30 19 C -3.414642 0.407333 0.556156 0
M  V30 20 C -4.370773 -0.236808 1.292459 0
M  V30 21 C -5.185205 -1.231330 0.822235 0
M  V30 22 F -6.119734 -1.846765 1.570982 0
M  V30 23 C -4.986939 -1.571583 -0.497871 0
M  V30 24 O -5.741130 -2.567823 -1.117874 0
M  V30 25 C -4.041916 -0.982634 -1.345385 0
M  V30 26 F -3.882043 -1.346962 -2.632002 0
M  V30 27 C -3.259381 0.022184 -0.770388 0
M  V30 28 N -0.368828 1.589072 0.245493 0
M  V30 29 C 0.653634 2.104489 -0.440042 0
M  V30 30 C 2.815231 -0.411468 -0.921653 0
M  V30 31 C 3.302591 -1.617860 -0.456124 0
M  V30 32 H 0.564862 -1.778082 5.024313 0
M  V30 33 H -0.355813 -3.325214 5.300718 0
M  V30 34 H -0.417603 -2.539337 3.723200 0
M  V30 35 H 3.167959 -4.845577 2.487679 0
M  V30 36 H 2.323208 -4.338684 1.026191 0
M  V30 37 H 4.607039 -3.511605 0.928468 0
M  V30 38 H 4.510586 -2.720773 2.527215 0
M  V30 39 H 3.147464 -0.788298 2.835039 0
M  V30 40 H 2.305305 1.292696 1.940066 0
M  V30 41 H 3.480734 2.638933 -1.746608 0
M  V30 42 H -1.109132 4.811122 -1.624244 0
M  V30 43 H -2.744337 1.678659 2.112207 0
M  V30 44 H -4.486988 0.070522 2.324311 0
M  V30 45 H -5.361611 -3.521888 -1.179522 0
M  V30 46 H -2.522046 0.484087 -1.430241 0
M  V30 47 H 2.751052 -0.384587 -2.019601 0
M  V30 48 H 3.597459 -2.461470 -1.047335 0
M  V30 END ATOM
M  V30 BEGIN BOND
M  V30 1 1 1 2
M  V30 2 1 2 3
M  V30 3 2 3 4
M  V30 4 1 3 5
M  V30 5 1 5 6
M  V30 6 1 6 7
M  V30 7 2 7 8
M  V30 8 1 8 9
M  V30 9 2 9 10
M  V30 10 1 10 11
M  V30 11 1 11 12
M  V30 12 2 12 13
M  V30 13 1 13 14
M  V30 14 2 14 15
M  V30 15 1 15 16
M  V30 16 2 16 17
M  V30 17 1 17 18
M  V30 18 1 18 19
M  V30 19 2 19 20
M  V30 20 1 20 21
M  V30 21 1 21 22
M  V30 22 2 21 23
M  V30 23 1 23 24
M  V30 24 1 23 25
M  V30 25 1 25 26
M  V30 26 2 25 27
M  V30 27 1 17 28
M  V30 28 2 28 29
M  V30 29 1 10 30
M  V30 30 2 30 31
M  V30 31 1 31 7
M  V30 32 1 29 11
M  V30 33 1 29 14
M  V30 34 1 27 19
M  V30 35 1 1 32
M  V30 36 1 1 33
M  V30 37 1 1 34
M  V30 38 1 5 35
M  V30 39 1 5 36
M  V30 40 1 6 37
M  V30 41 1 6 38
M  V30 42 1 8 39
M  V30 43 1 9 40
M  V30 44 1 12 41
M  V30 45 1 15 42
M  V30 46 1 18 43
M  V30 47 1 20 44
M  V30 48 1 24 45
M  V30 49 1 27 46
M  V30 50 1 30 47
M  V30 51 1 31 48
M  V30 END BOND
M  V30 END CTAB
M  END
>  <Dataset>  (96) 
ChEMBL_Kinases

>  <Ligand_Instance>  (96) 
nan

>  <PDB_ID>  (96) 
nan

>  <Standardized_SMILES>  (96) 
COC(=O)CCc1ccc(-n2cnc3cnc(Nc4cc(F)c(O)c(F)c4)nc32)cc1

>  <Name>  (96) 
nan

>  <Pocket>  (96) 
nan

>  <ATP_Site>  (96) 
nan

>  <Peripheral>  (96) 
nan

>  <Num_H_Atoms_ProtBoundConf>  (96) 
nan

>  <Num_Resolved_Atoms>  (96) 
nan

>  <Num_Not_Resolved_Atoms>  (96) 
nan

$$$$
CHEMBL4878127
     RDKit          3D

  0  0  0  0  0  0  0  0  0  0999 V3000
M  V30 BEGIN CTAB
M  V30 COUNTS 61 67 0 0 0
M  V30 BEGIN ATOM
M  V30 1 C 0.200122 -5.584299 2.183761 0
M  V30 2 C 0.695687 -4.513536 2.899959 0
M  V30 3 C 1.360398 -3.468322 2.256493 0
M  V30 4 C 1.864060 -2.361100 3.062070 0
M  V30 5 N 2.535281 -2.427712 4.225268 0
M  V30 6 N 2.839934 -1.225111 4.681562 0
M  V30 7 C 2.373526 -0.273836 3.820701 0
M  V30 8 C 2.409320 1.106613 3.802282 0
M  V30 9 C 1.821847 1.788315 2.747978 0
M  V30 10 C 1.203966 1.107428 1.720357 0
M  V30 11 C 0.562202 1.779558 0.572813 0
M  V30 12 N 1.266248 1.742040 -0.591156 0
M  V30 13 N 0.558564 2.385888 -1.519672 0
M  V30 14 C -0.576136 2.822893 -0.947337 0
M  V30 15 N -0.582352 2.453641 0.342475 0
M  V30 16 C -1.471152 2.599307 1.471523 0
M  V30 17 C -2.042536 1.295128 1.955945 0
M  V30 18 C -3.404750 1.456089 2.586210 0
M  V30 19 C -4.436592 1.884126 1.565437 0
M  V30 20 C -3.784753 2.745183 0.519213 0
M  V30 21 C -2.639808 3.508854 1.125969 0
M  V30 22 C 1.198237 -0.286547 1.791488 0
M  V30 23 C 1.767775 -1.006192 2.817021 0
M  V30 24 C 1.489002 -3.567867 0.894033 0
M  V30 25 C 0.999042 -4.632321 0.162125 0
M  V30 26 N 1.243501 -4.536542 -1.258619 0
M  V30 27 C 2.049857 -5.104689 -2.172773 0
M  V30 28 N 1.773111 -4.555682 -3.369530 0
M  V30 29 C 0.790332 -3.634786 -3.230085 0
M  V30 30 C 0.236192 -2.831157 -4.364831 0
M  V30 31 C 0.254593 -3.355322 -5.735259 0
M  V30 32 C 1.276410 -2.281467 -5.365241 0
M  V30 33 C 0.454805 -3.622931 -1.891600 0
M  V30 34 C 0.340746 -5.664237 0.812564 0
M  V30 35 H -0.325645 -6.432630 2.604140 0
M  V30 36 H 0.544396 -4.525237 3.974371 0
M  V30 37 H 3.352575 -0.944973 5.550696 0
M  V30 38 H 2.898185 1.643238 4.615458 0
M  V30 39 H 1.835322 2.885692 2.707472 0
M  V30 40 H -1.462119 3.381743 -1.253918 0
M  V30 41 H -0.899526 3.063382 2.316056 0
M  V30 42 H -1.366375 0.884664 2.723134 0
M  V30 43 H -2.155535 0.644033 1.061082 0
M  V30 44 H -3.303875 2.252524 3.352533 0
M  V30 45 H -3.673612 0.483971 3.045805 0
M  V30 46 H -4.870667 0.965108 1.124976 0
M  V30 47 H -5.219180 2.480206 2.076937 0
M  V30 48 H -3.391188 2.101438 -0.303278 0
M  V30 49 H -4.499065 3.492160 0.127036 0
M  V30 50 H -2.292676 4.273349 0.386189 0
M  V30 51 H -2.969672 4.019359 2.057620 0
M  V30 52 H 0.707033 -0.794678 0.972606 0
M  V30 53 H 2.010080 -2.737283 0.435630 0
M  V30 54 H 2.726649 -5.852755 -1.782886 0
M  V30 55 H -0.558390 -2.124696 -4.089700 0
M  V30 56 H -0.550488 -2.993504 -6.419644 0
M  V30 57 H 0.700092 -4.328875 -6.001076 0
M  V30 58 H 1.127382 -1.250121 -5.748961 0
M  V30 59 H 2.324762 -2.594381 -5.264139 0
M  V30 60 H -0.330439 -2.934774 -1.576907 0
M  V30 61 H -0.012525 -6.458984 0.173054 0
M  V30 END ATOM
M  V30 BEGIN BOND
M  V30 1 2 1 2
M  V30 2 1 2 3
M  V30 3 1 3 4
M  V30 4 2 4 5
M  V30 5 1 5 6
M  V30 6 1 6 7
M  V30 7 2 7 8
M  V30 8 1 8 9
M  V30 9 2 9 10
M  V30 10 1 10 11
M  V30 11 2 11 12
M  V30 12 1 12 13
M  V30 13 2 13 14
M  V30 14 1 14 15
M  V30 15 1 15 16
M  V30 16 1 16 17
M  V30 17 1 17 18
M  V30 18 1 18 19
M  V30 19 1 19 20
M  V30 20 1 20 21
M  V30 21 1 10 22
M  V30 22 2 22 23
M  V30 23 2 3 24
M  V30 24 1 24 25
M  V30 25 1 25 26
M  V30 26 1 26 27
M  V30 27 2 27 28
M  V30 28 1 28 29
M  V30 29 1 29 30
M  V30 30 1 30 31
M  V30 31 1 31 32
M  V30 32 2 29 33
M  V30 33 2 25 34
M  V30 34 1 34 1
M  V30 35 1 23 4
M  V30 36 1 33 26
M  V30 37 1 23 7
M  V30 38 1 32 30
M  V30 39 1 15 11
M  V30 40 1 21 16
M  V30 41 1 1 35
M  V30 42 1 2 36
M  V30 43 1 6 37
M  V30 44 1 8 38
M  V30 45 1 9 39
M  V30 46 1 14 40
M  V30 47 1 16 41
M  V30 48 1 17 42
M  V30 49 1 17 43
M  V30 50 1 18 44
M  V30 51 1 18 45
M  V30 52 1 19 46
M  V30 53 1 19 47
M  V30 54 1 20 48
M  V30 55 1 20 49
M  V30 56 1 21 50
M  V30 57 1 21 51
M  V30 58 1 22 52
M  V30 59 1 24 53
M  V30 60 1 27 54
M  V30 61 1 30 55
M  V30 62 1 31 56
M  V30 63 1 31 57
M  V30 64 1 32 58
M  V30 65 1 32 59
M  V30 66 1 33 60
M  V30 67 1 34 61
M  V30 END BOND
M  V30 END CTAB
M  END
>  <Dataset>  (97) 
ChEMBL_Kinases

>  <Ligand_Instance>  (97) 
nan

>  <PDB_ID>  (97) 
nan

>  <Standardized_SMILES>  (97) 
c1cc(-c2n[nH]c3ccc(-c4nncn4C4CCCCC4)cc23)cc(-n2cnc(C3CC3)c2)c1

>  <Name>  (97) 
nan

>  <Pocket>  (97) 
nan

>  <ATP_Site>  (97) 
nan

>  <Peripheral>  (97) 
nan

>  <Num_H_Atoms_ProtBoundConf>  (97) 
nan

>  <Num_Resolved_Atoms>  (97) 
nan

>  <Num_Not_Resolved_Atoms>  (97) 
nan

$$$$
CHEMBL3899948
     RDKit          3D

  0  0  0  0  0  0  0  0  0  0999 V3000
M  V30 BEGIN CTAB
M  V30 COUNTS 54 57 0 0 0
M  V30 BEGIN ATOM
M  V30 1 C 2.310887 3.719523 4.391699 0
M  V30 2 C 2.637438 2.243999 4.249967 0
M  V30 3 N 3.157960 2.009840 2.941472 0
M  V30 4 N 4.470796 2.141007 2.660515 0
M  V30 5 C 4.693274 1.872764 1.359871 0
M  V30 6 C 3.489622 1.546808 0.735775 0
M  V30 7 C 3.114594 1.182184 -0.540551 0
M  V30 8 C 1.768776 0.953629 -0.603754 0
M  V30 9 N 0.891594 1.056558 0.383471 0
M  V30 10 C 1.283220 1.407732 1.597024 0
M  V30 11 C 2.606577 1.661000 1.797335 0
M  V30 12 C 0.172815 1.441216 2.490205 0
M  V30 13 C -0.583472 0.382783 2.408066 0
M  V30 14 C -1.014801 -0.917865 1.918640 0
M  V30 15 O -0.220656 -1.470234 0.977052 0
M  V30 16 C -0.777890 -2.570508 0.276609 0
M  V30 17 C -1.295289 -3.553816 1.250408 0
M  V30 18 C 0.496693 -3.249583 -0.305112 0
M  V30 19 C -1.646778 -2.123554 -0.860679 0 CFG=2
M  V30 20 C -2.676845 -2.895937 -1.403335 0
M  V30 21 C -3.110355 -4.174642 -1.319251 0
M  V30 22 C -4.204097 -4.717936 -1.948831 0
M  V30 23 C -4.921467 -3.857118 -2.742453 0
M  V30 24 C -4.606468 -2.529894 -2.927789 0
M  V30 25 C -3.474765 -2.082309 -2.241623 0
M  V30 26 N -0.769571 -1.517560 -1.922397 0
M  V30 27 C 0.275047 -0.600199 -2.347002 0
M  V30 28 O -0.041234 -0.700948 -1.174293 0
M  V30 29 N 1.225786 0.369132 -1.844111 0
M  V30 30 H 3.021752 4.268888 5.030605 0
M  V30 31 H 1.252218 3.824318 4.741548 0
M  V30 32 H 2.325690 4.230577 3.393284 0
M  V30 33 H 1.822211 1.574680 4.572960 0
M  V30 34 H 3.434729 2.059382 5.038247 0
M  V30 35 H 5.639487 1.882974 0.792668 0
M  V30 36 H 3.778387 1.090093 -1.354854 0
M  V30 37 H 0.290003 2.363314 2.977222 0
M  V30 38 H -1.288909 0.722525 3.179655 0
M  V30 39 H -1.203513 -1.617129 2.789857 0
M  V30 40 H -2.064097 -0.765354 1.527841 0
M  V30 41 H -0.822346 -3.441452 2.276046 0
M  V30 42 H -2.390824 -3.597021 1.354881 0
M  V30 43 H -0.968200 -4.620169 1.016442 0
M  V30 44 H 1.415073 -2.713963 -0.022191 0
M  V30 45 H 0.607332 -4.284057 0.069773 0
M  V30 46 H 0.459172 -3.314284 -1.402777 0
M  V30 47 H -2.063580 -1.120361 -0.410388 0
M  V30 48 H -2.513064 -4.785027 -0.704528 0
M  V30 49 H -4.426375 -5.756083 -1.786907 0
M  V30 50 H -5.802106 -4.278419 -3.252329 0
M  V30 51 H -5.238725 -1.947469 -3.571366 0
M  V30 52 H -3.335906 -1.006966 -2.474739 0
M  V30 53 H -0.974505 -1.950808 -2.895811 0
M  V30 54 H 1.685662 0.632284 -2.733365 0
M  V30 END ATOM
M  V30 BEGIN BOND
M  V30 1 1 1 2
M  V30 2 1 2 3
M  V30 3 1 3 4
M  V30 4 2 4 5
M  V30 5 1 5 6
M  V30 6 2 6 7
M  V30 7 1 7 8
M  V30 8 2 8 9
M  V30 9 1 9 10
M  V30 10 2 10 11
M  V30 11 1 10 12
M  V30 12 2 12 13
M  V30 13 1 13 14
M  V30 14 1 14 15
M  V30 15 1 15 16
M  V30 16 1 16 17
M  V30 17 1 16 18
M  V30 18 1 16 19
M  V30 19 1 19 20
M  V30 20 2 20 21
M  V30 21 1 21 22
M  V30 22 2 22 23
M  V30 23 1 23 24
M  V30 24 2 24 25
M  V30 25 1 19 26
M  V30 26 1 26 27
M  V30 27 2 27 28
M  V30 28 1 27 29
M  V30 29 1 11 3
M  V30 30 1 25 20
M  V30 31 1 11 6
M  V30 32 1 29 8
M  V30 33 1 1 30
M  V30 34 1 1 31
M  V30 35 1 1 32
M  V30 36 1 2 33
M  V30 37 1 2 34
M  V30 38 1 5 35
M  V30 39 1 7 36
M  V30 40 1 12 37
M  V30 41 1 13 38
M  V30 42 1 14 39
M  V30 43 1 14 40
M  V30 44 1 17 41
M  V30 45 1 17 42
M  V30 46 1 17 43
M  V30 47 1 18 44
M  V30 48 1 18 45
M  V30 49 1 18 46
M  V30 50 1 19 47 CFG=1
M  V30 51 1 21 48
M  V30 52 1 22 49
M  V30 53 1 23 50
M  V30 54 1 24 51
M  V30 55 1 25 52
M  V30 56 1 26 53
M  V30 57 1 29 54
M  V30 END BOND
M  V30 END CTAB
M  END
>  <Dataset>  (98) 
ChEMBL_Kinases

>  <Ligand_Instance>  (98) 
nan

>  <PDB_ID>  (98) 
nan

>  <Standardized_SMILES>  (98) 
CCn1ncc2cc3nc(c21)/C=C\COC(C)(C)[C@H](c1ccccc1)NC(=O)N3

>  <Name>  (98) 
nan

>  <Pocket>  (98) 
nan

>  <ATP_Site>  (98) 
nan

>  <Peripheral>  (98) 
nan

>  <Num_H_Atoms_ProtBoundConf>  (98) 
nan

>  <Num_Resolved_Atoms>  (98) 
nan

>  <Num_Not_Resolved_Atoms>  (98) 
nan

$$$$
CHEMBL3907479
     RDKit          3D

  0  0  0  0  0  0  0  0  0  0999 V3000
M  V30 BEGIN CTAB
M  V30 COUNTS 43 47 0 0 0
M  V30 BEGIN ATOM
M  V30 1 C 2.110142 -8.611068 0.790581 0
M  V30 2 C 1.892339 -7.271184 0.196900 0
M  V30 3 N 2.063094 -6.772398 -1.036503 0
M  V30 4 C 1.719739 -5.471785 -1.082387 0
M  V30 5 C 1.732973 -4.578617 -2.115003 0
M  V30 6 C 1.327244 -3.297833 -1.888393 0
M  V30 7 C 0.908899 -2.912366 -0.629294 0
M  V30 8 N 0.456862 -1.630288 -0.217942 0
M  V30 9 N -0.798604 -1.255723 -0.473525 0
M  V30 10 C -0.968738 -0.006242 0.017814 0
M  V30 11 C 0.198118 0.428991 0.599082 0
M  V30 12 C 0.625054 1.641104 1.273738 0
M  V30 13 O 1.840430 1.639269 1.679485 0
M  V30 14 C -0.135430 2.845011 1.547591 0
M  V30 15 C 0.488804 3.899559 2.219171 0
M  V30 16 C -0.473918 4.907693 2.339448 0
M  V30 17 C -0.482293 6.173579 2.892113 0
M  V30 18 C -1.595310 6.990538 2.878216 0
M  V30 19 C -2.743543 6.536597 2.294870 0
M  V30 20 C -2.778085 5.278540 1.731282 0
M  V30 21 C -1.649438 4.483404 1.759984 0
M  V30 22 N -1.375942 3.250121 1.310323 0
M  V30 23 C 1.087680 -0.613076 0.439389 0
M  V30 24 N 2.459509 -0.850857 0.793908 0
M  V30 25 C 0.895917 -3.826204 0.424973 0
M  V30 26 C 1.309921 -5.138502 0.199654 0
M  V30 27 N 1.433734 -6.267890 0.940360 0
M  V30 28 H 2.809390 -9.235995 0.187859 0
M  V30 29 H 2.591243 -8.492031 1.804309 0
M  V30 30 H 1.162717 -9.157631 0.889771 0
M  V30 31 H 2.053864 -4.833579 -3.125431 0
M  V30 32 H 1.288071 -2.486812 -2.620252 0
M  V30 33 H -1.873325 0.563520 -0.034756 0
M  V30 34 H 1.482722 4.107062 2.642753 0
M  V30 35 H 0.410105 6.564802 3.362345 0
M  V30 36 H -1.534921 7.973722 3.329840 0
M  V30 37 H -3.645452 7.153276 2.263718 0
M  V30 38 H -3.680579 4.896884 1.261869 0
M  V30 39 H -2.097109 2.691999 0.824144 0
M  V30 40 H 2.559278 -0.794093 1.814660 0
M  V30 41 H 3.140445 -1.041001 0.001001 0
M  V30 42 H 0.586194 -3.616689 1.440351 0
M  V30 43 H 1.173168 -6.243190 1.960772 0
M  V30 END ATOM
M  V30 BEGIN BOND
M  V30 1 1 1 2
M  V30 2 2 2 3
M  V30 3 1 3 4
M  V30 4 2 4 5
M  V30 5 1 5 6
M  V30 6 2 6 7
M  V30 7 1 7 8
M  V30 8 1 8 9
M  V30 9 2 9 10
M  V30 10 1 10 11
M  V30 11 1 11 12
M  V30 12 2 12 13
M  V30 13 1 12 14
M  V30 14 2 14 15
M  V30 15 1 15 16
M  V30 16 2 16 17
M  V30 17 1 17 18
M  V30 18 2 18 19
M  V30 19 1 19 20
M  V30 20 2 20 21
M  V30 21 1 21 22
M  V30 22 2 11 23
M  V30 23 1 23 24
M  V30 24 1 7 25
M  V30 25 2 25 26
M  V30 26 1 26 27
M  V30 27 1 27 2
M  V30 28 1 26 4
M  V30 29 1 23 8
M  V30 30 1 22 14
M  V30 31 1 21 16
M  V30 32 1 1 28
M  V30 33 1 1 29
M  V30 34 1 1 30
M  V30 35 1 5 31
M  V30 36 1 6 32
M  V30 37 1 10 33
M  V30 38 1 15 34
M  V30 39 1 17 35
M  V30 40 1 18 36
M  V30 41 1 19 37
M  V30 42 1 20 38
M  V30 43 1 22 39
M  V30 44 1 24 40
M  V30 45 1 24 41
M  V30 46 1 25 42
M  V30 47 1 27 43
M  V30 END BOND
M  V30 END CTAB
M  END
>  <Dataset>  (99) 
ChEMBL_Kinases

>  <Ligand_Instance>  (99) 
nan

>  <PDB_ID>  (99) 
nan

>  <Standardized_SMILES>  (99) 
Cc1nc2ccc(-n3ncc(C(=O)c4cc5ccccc5[nH]4)c3N)cc2[nH]1

>  <Name>  (99) 
FGFR INHIBITOR DEBIO 1347

>  <Pocket>  (99) 
nan

>  <ATP_Site>  (99) 
nan

>  <Peripheral>  (99) 
nan

>  <Num_H_Atoms_ProtBoundConf>  (99) 
nan

>  <Num_Resolved_Atoms>  (99) 
nan

>  <Num_Not_Resolved_Atoms>  (99) 
nan

$$$$
CHEMBL3899916
     RDKit          3D

  0  0  0  0  0  0  0  0  0  0999 V3000
M  V30 BEGIN CTAB
M  V30 COUNTS 42 45 0 0 0
M  V30 BEGIN ATOM
M  V30 1 N 3.505939 -7.679871 0.763399 0
M  V30 2 C 2.225981 -7.591839 0.168175 0
M  V30 3 O 1.690918 -8.672670 -0.205914 0
M  V30 4 C 1.539666 -6.328631 -0.014695 0
M  V30 5 C 0.290252 -6.353676 -0.607832 0
M  V30 6 C -0.350866 -5.142620 -0.775247 0
M  V30 7 C 0.202176 -3.928496 -0.378089 0
M  V30 8 N -0.214592 -2.649277 -0.431918 0
M  V30 9 C 0.744564 -1.865682 0.108919 0
M  V30 10 C 0.670955 -0.410371 0.236863 0
M  V30 11 C -0.462015 0.229480 -0.226942 0
M  V30 12 C -0.535284 1.622090 -0.105918 0
M  V30 13 C 0.510175 2.346033 0.468963 0
M  V30 14 C 0.440550 3.817280 0.600480 0
M  V30 15 O -0.022825 4.439251 -0.566159 0
M  V30 16 C -0.528522 4.227053 1.670342 0
M  V30 17 C -1.030780 3.310736 2.571072 0
M  V30 18 C -1.916349 3.745800 3.530087 0
M  V30 19 N -2.291200 5.033642 3.597431 0
M  V30 20 C -1.807846 5.932143 2.725489 0
M  V30 21 C -0.905531 5.552609 1.728780 0
M  V30 22 C 1.617241 1.643855 0.913566 0
M  V30 23 C 1.726768 0.270570 0.811833 0
M  V30 24 N 1.745649 -2.675094 0.491382 0
M  V30 25 C 1.469427 -3.964162 0.216682 0
M  V30 26 C 2.148456 -5.162429 0.403441 0
M  V30 27 H 3.695857 -7.544011 1.780624 0
M  V30 28 H 4.512483 -7.857604 0.554650 0
M  V30 29 H -0.137829 -7.296075 -0.915539 0
M  V30 30 H -1.329482 -5.132265 -1.236479 0
M  V30 31 H -1.127047 -2.338531 -0.828277 0
M  V30 32 H -1.311421 -0.264322 -0.683469 0
M  V30 33 H -1.375273 2.195640 -0.438708 0
M  V30 34 H 1.431265 4.191767 0.889283 0
M  V30 35 H 0.440902 5.329397 -0.632364 0
M  V30 36 H -0.690719 2.278707 2.468159 0
M  V30 37 H -2.246606 2.932196 4.187117 0
M  V30 38 H -2.116217 6.968017 2.788120 0
M  V30 39 H -0.510927 6.287743 1.016445 0
M  V30 40 H 2.469704 2.149412 1.372846 0
M  V30 41 H 2.573727 -0.306252 1.147543 0
M  V30 42 H 3.123568 -5.132090 0.867574 0
M  V30 END ATOM
M  V30 BEGIN BOND
M  V30 1 1 1 2
M  V30 2 2 2 3
M  V30 3 1 2 4
M  V30 4 2 4 5
M  V30 5 1 5 6
M  V30 6 2 6 7
M  V30 7 1 7 8
M  V30 8 1 8 9
M  V30 9 1 9 10
M  V30 10 2 10 11
M  V30 11 1 11 12
M  V30 12 2 12 13
M  V30 13 1 13 14
M  V30 14 1 14 15
M  V30 15 1 14 16
M  V30 16 2 16 17
M  V30 17 1 17 18
M  V30 18 2 18 19
M  V30 19 1 19 20
M  V30 20 2 20 21
M  V30 21 1 13 22
M  V30 22 2 22 23
M  V30 23 2 9 24
M  V30 24 1 24 25
M  V30 25 2 25 26
M  V30 26 1 26 4
M  V30 27 1 25 7
M  V30 28 1 23 10
M  V30 29 1 21 16
M  V30 30 1 1 27
M  V30 31 1 1 28
M  V30 32 1 5 29
M  V30 33 1 6 30
M  V30 34 1 8 31
M  V30 35 1 11 32
M  V30 36 1 12 33
M  V30 37 1 14 34
M  V30 38 1 15 35
M  V30 39 1 17 36
M  V30 40 1 18 37
M  V30 41 1 20 38
M  V30 42 1 21 39
M  V30 43 1 22 40
M  V30 44 1 23 41
M  V30 45 1 26 42
M  V30 END BOND
M  V30 END CTAB
M  END
>  <Dataset>  (100) 
ChEMBL_Kinases

>  <Ligand_Instance>  (100) 
nan

>  <PDB_ID>  (100) 
nan

>  <Standardized_SMILES>  (100) 
NC(=O)c1ccc2[nH]c(-c3ccc(C(O)c4ccncc4)cc3)nc2c1

>  <Name>  (100) 
nan

>  <Pocket>  (100) 
nan

>  <ATP_Site>  (100) 
nan

>  <Peripheral>  (100) 
nan

>  <Num_H_Atoms_ProtBoundConf>  (100) 
nan

>  <Num_Resolved_Atoms>  (100) 
nan

>  <Num_Not_Resolved_Atoms>  (100) 
nan

$$$$
CHEMBL3899823
     RDKit          3D

  0  0  0  0  0  0  0  0  0  0999 V3000
M  V30 BEGIN CTAB
M  V30 COUNTS 53 56 0 0 0
M  V30 BEGIN ATOM
M  V30 1 O 1.746220 -2.073144 -2.092219 0
M  V30 2 C 1.383062 -1.807588 -0.893404 0
M  V30 3 O 2.605749 -2.447350 -0.891293 0
M  V30 4 C 0.177188 -1.142172 -0.341755 0 CFG=2
M  V30 5 C 0.436272 0.041630 0.505705 0
M  V30 6 C 1.142747 1.168858 -0.071047 0
M  V30 7 C 1.679227 1.426209 -1.312207 0
M  V30 8 C 2.322453 2.597829 -1.632496 0
M  V30 9 C 2.445191 3.574976 -0.672264 0
M  V30 10 C 1.912047 3.328459 0.574388 0
M  V30 11 N 2.053563 4.355627 1.549053 0
M  V30 12 C 3.135661 4.564388 2.478648 0
M  V30 13 C 4.330252 5.246976 2.655708 0
M  V30 14 C 4.817894 4.894041 3.898065 0
M  V30 15 N 3.932305 4.025586 4.436878 0
M  V30 16 N 2.935624 3.825819 3.604711 0
M  V30 17 N 1.298980 2.181430 0.837330 0
M  V30 18 C -0.486836 -2.251596 0.505815 0
M  V30 19 C -1.267386 -3.161906 -0.439408 0
M  V30 20 C -2.578363 -2.451568 -0.668018 0 CFG=1
M  V30 21 S -3.567820 -2.623722 0.838848 0
M  V30 22 C -3.959667 -4.341448 1.072303 0
M  V30 23 C -4.993486 -5.030142 0.469219 0
M  V30 24 C -5.246045 -6.359274 0.732267 0
M  V30 25 C -4.455059 -7.083309 1.635806 0
M  V30 26 C -3.422292 -6.366506 2.228297 0
M  V30 27 Cl -2.487979 -7.371777 3.348921 0
M  V30 28 C -3.158906 -5.046858 1.978309 0
M  V30 29 Cl -1.812499 -4.420076 2.901152 0
M  V30 30 C -2.210176 -0.993646 -0.907094 0
M  V30 31 C -0.812847 -0.791563 -1.408904 0
M  V30 32 H 3.349681 -2.216253 -0.241153 0
M  V30 33 H 1.044576 -0.318640 1.392695 0
M  V30 34 H -0.498698 0.429058 0.994922 0
M  V30 35 H 1.555054 0.628837 -2.008195 0
M  V30 36 H 2.702874 2.684003 -2.645761 0
M  V30 37 H 2.948944 4.492218 -0.923808 0
M  V30 38 H 1.325169 5.113640 1.688793 0
M  V30 39 H 4.550855 5.867057 1.773305 0
M  V30 40 H 5.752982 5.364988 4.153222 0
M  V30 41 H 4.163410 3.662146 5.386765 0
M  V30 42 H -1.211511 -1.725206 1.156100 0
M  V30 43 H 0.262724 -2.791462 1.094588 0
M  V30 44 H -0.705527 -3.302300 -1.394053 0
M  V30 45 H -1.386070 -4.149712 0.015772 0
M  V30 46 H -3.154445 -2.866532 -1.515659 0
M  V30 47 H -5.590065 -4.449653 -0.223130 0
M  V30 48 H -6.069136 -6.866932 0.236414 0
M  V30 49 H -4.701875 -8.119931 1.800033 0
M  V30 50 H -2.962036 -0.550920 -1.619331 0
M  V30 51 H -2.331050 -0.393325 0.020080 0
M  V30 52 H -0.615160 -1.292003 -2.375462 0
M  V30 53 H -0.739703 0.318752 -1.619850 0
M  V30 END ATOM
M  V30 BEGIN BOND
M  V30 1 2 1 2
M  V30 2 1 2 3
M  V30 3 1 2 4
M  V30 4 1 4 5 CFG=1
M  V30 5 1 5 6
M  V30 6 2 6 7
M  V30 7 1 7 8
M  V30 8 2 8 9
M  V30 9 1 9 10
M  V30 10 1 10 11
M  V30 11 1 11 12
M  V30 12 1 12 13
M  V30 13 2 13 14
M  V30 14 1 14 15
M  V30 15 1 15 16
M  V30 16 2 10 17
M  V30 17 1 4 18
M  V30 18 1 18 19
M  V30 19 1 19 20
M  V30 20 1 20 21
M  V30 21 1 21 22
M  V30 22 2 22 23
M  V30 23 1 23 24
M  V30 24 2 24 25
M  V30 25 1 25 26
M  V30 26 1 26 27
M  V30 27 2 26 28
M  V30 28 1 28 29
M  V30 29 1 20 30
M  V30 30 1 30 31
M  V30 31 1 31 4
M  V30 32 1 17 6
M  V30 33 1 28 22
M  V30 34 2 16 12
M  V30 35 1 3 32
M  V30 36 1 5 33
M  V30 37 1 5 34
M  V30 38 1 7 35
M  V30 39 1 8 36
M  V30 40 1 9 37
M  V30 41 1 11 38
M  V30 42 1 13 39
M  V30 43 1 14 40
M  V30 44 1 15 41
M  V30 45 1 18 42
M  V30 46 1 18 43
M  V30 47 1 19 44
M  V30 48 1 19 45
M  V30 49 1 20 46 CFG=3
M  V30 50 1 23 47
M  V30 51 1 24 48
M  V30 52 1 25 49
M  V30 53 1 30 50
M  V30 54 1 30 51
M  V30 55 1 31 52
M  V30 56 1 31 53
M  V30 END BOND
M  V30 END CTAB
M  END
>  <Dataset>  (101) 
ChEMBL_Kinases

>  <Ligand_Instance>  (101) 
nan

>  <PDB_ID>  (101) 
nan

>  <Standardized_SMILES>  (101) 
O=C(O)[C@]1(Cc2cccc(Nc3cc[nH]n3)n2)CC[C@@H](Sc2cccc(Cl)c2Cl)CC1

>  <Name>  (101) 
nan

>  <Pocket>  (101) 
nan

>  <ATP_Site>  (101) 
nan

>  <Peripheral>  (101) 
nan

>  <Num_H_Atoms_ProtBoundConf>  (101) 
nan

>  <Num_Resolved_Atoms>  (101) 
nan

>  <Num_Not_Resolved_Atoms>  (101) 
nan

$$$$
CHEMBL3899779
     RDKit          3D

  0  0  0  0  0  0  0  0  0  0999 V3000
M  V30 BEGIN CTAB
M  V30 COUNTS 48 52 0 0 0
M  V30 BEGIN ATOM
M  V30 1 N 0.844650 -3.727571 3.379920 0
M  V30 2 C 1.692854 -4.175825 2.328944 0
M  V30 3 O 2.086524 -5.351904 2.332042 0
M  V30 4 C 2.103808 -3.279920 1.255321 0
M  V30 5 C 2.925344 -3.776771 0.265350 0
M  V30 6 C 3.319146 -2.943842 -0.749917 0
M  V30 7 C 2.886868 -1.635558 -0.757549 0
M  V30 8 C 2.066825 -1.079257 0.200143 0
M  V30 9 N 1.620872 0.270129 0.194851 0
M  V30 10 C 1.931961 1.267751 -0.766661 0
M  V30 11 O 2.635353 1.194976 -1.798599 0
M  V30 12 C 1.258735 2.513111 -0.355678 0
M  V30 13 C 1.247597 3.782662 -0.950549 0
M  V30 14 C 0.545126 4.818765 -0.382360 0
M  V30 15 C -0.138715 4.575886 0.773996 0
M  V30 16 C -0.106063 3.315012 1.331790 0
M  V30 17 C 0.564246 2.249187 0.826426 0
M  V30 18 C 0.765079 0.832880 1.194607 0
M  V30 19 O 1.402722 0.758724 2.432618 0
M  V30 20 C -0.574099 0.181452 1.233435 0
M  V30 21 C -1.442596 0.419717 2.278470 0
M  V30 22 C -2.699391 -0.169539 2.341916 0
M  V30 23 C -3.109350 -1.022009 1.338702 0
M  V30 24 C -2.245620 -1.271075 0.280902 0
M  V30 25 C -0.993388 -0.677522 0.227617 0
M  V30 26 N -2.574612 -2.134077 -0.802504 0
M  V30 27 C -3.871136 -2.758326 -0.763665 0
M  V30 28 O -4.388402 -3.112307 -1.874086 0
M  V30 29 C -4.474103 -2.924656 0.584517 0
M  V30 30 O -4.324687 -1.679133 1.264611 0
M  V30 31 C 1.703615 -1.961195 1.194061 0
M  V30 32 H -0.161538 -3.718902 3.668933 0
M  V30 33 H 1.601284 -3.295816 3.965325 0
M  V30 34 H 3.239409 -4.810003 0.312691 0
M  V30 35 H 3.971881 -3.315785 -1.548111 0
M  V30 36 H 3.232246 -1.031495 -1.583776 0
M  V30 37 H 1.799844 3.962745 -1.876567 0
M  V30 38 H 0.573419 5.772126 -0.884919 0
M  V30 39 H -0.681200 5.424184 1.189655 0
M  V30 40 H -0.678330 3.228397 2.244375 0
M  V30 41 H 2.376702 0.793533 2.253117 0
M  V30 42 H -1.212302 1.059882 3.095644 0
M  V30 43 H -3.431648 -0.039280 3.113168 0
M  V30 44 H -0.316929 -0.852952 -0.570475 0
M  V30 45 H -1.913558 -2.310600 -1.590465 0
M  V30 46 H -5.538857 -3.181538 0.540656 0
M  V30 47 H -3.841854 -3.686127 1.098399 0
M  V30 48 H 1.066294 -1.665346 2.008403 0
M  V30 END ATOM
M  V30 BEGIN BOND
M  V30 1 1 1 2
M  V30 2 2 2 3
M  V30 3 1 2 4
M  V30 4 2 4 5
M  V30 5 1 5 6
M  V30 6 2 6 7
M  V30 7 1 7 8
M  V30 8 1 8 9
M  V30 9 1 9 10
M  V30 10 2 10 11
M  V30 11 1 10 12
M  V30 12 2 12 13
M  V30 13 1 13 14
M  V30 14 2 14 15
M  V30 15 1 15 16
M  V30 16 2 16 17
M  V30 17 1 17 18
M  V30 18 1 18 19
M  V30 19 1 18 20
M  V30 20 2 20 21
M  V30 21 1 21 22
M  V30 22 2 22 23
M  V30 23 1 23 24
M  V30 24 2 24 25
M  V30 25 1 24 26
M  V30 26 1 26 27
M  V30 27 2 27 28
M  V30 28 1 27 29
M  V30 29 1 29 30
M  V30 30 2 8 31
M  V30 31 1 31 4
M  V30 32 1 18 9
M  V30 33 1 25 20
M  V30 34 1 17 12
M  V30 35 1 30 23
M  V30 36 1 1 32
M  V30 37 1 1 33
M  V30 38 1 5 34
M  V30 39 1 6 35
M  V30 40 1 7 36
M  V30 41 1 13 37
M  V30 42 1 14 38
M  V30 43 1 15 39
M  V30 44 1 16 40
M  V30 45 1 19 41
M  V30 46 1 21 42
M  V30 47 1 22 43
M  V30 48 1 25 44
M  V30 49 1 26 45
M  V30 50 1 29 46
M  V30 51 1 29 47
M  V30 52 1 31 48
M  V30 END BOND
M  V30 END CTAB
M  END
>  <Dataset>  (102) 
ChEMBL_Kinases

>  <Ligand_Instance>  (102) 
nan

>  <PDB_ID>  (102) 
nan

>  <Standardized_SMILES>  (102) 
NC(=O)c1cccc(N2C(=O)c3ccccc3C2(O)c2ccc3c(c2)NC(=O)CO3)c1

>  <Name>  (102) 
nan

>  <Pocket>  (102) 
nan

>  <ATP_Site>  (102) 
nan

>  <Peripheral>  (102) 
nan

>  <Num_H_Atoms_ProtBoundConf>  (102) 
nan

>  <Num_Resolved_Atoms>  (102) 
nan

>  <Num_Not_Resolved_Atoms>  (102) 
nan

$$$$
CHEMBL602437
     RDKit          3D

  0  0  0  0  0  0  0  0  0  0999 V3000
M  V30 BEGIN CTAB
M  V30 COUNTS 58 60 0 0 0
M  V30 BEGIN ATOM
M  V30 1 C 6.004774 -1.083976 1.510811 0
M  V30 2 N 6.779856 0.149384 1.534230 0
M  V30 3 C 8.111618 -0.204251 1.986803 0
M  V30 4 C 6.815859 0.781569 0.228662 0
M  V30 5 C 5.465642 1.131169 -0.255955 0
M  V30 6 C 4.710537 0.243055 -1.010022 0
M  V30 7 C 3.455658 0.667499 -1.415651 0
M  V30 8 C 3.001811 1.925287 -1.069839 0
M  V30 9 N 1.676448 2.192323 -1.578506 0
M  V30 10 C 0.768329 1.753542 -0.581151 0
M  V30 11 O 1.365882 1.270213 0.433857 0
M  V30 12 C -0.704355 1.832553 -0.674847 0
M  V30 13 C -1.361698 2.367272 -1.786623 0
M  V30 14 C -2.740824 2.378582 -1.744105 0
M  V30 15 C -3.465206 1.895196 -0.675344 0
M  V30 16 C -2.796112 1.363298 0.429580 0
M  V30 17 C -3.477649 0.807101 1.642946 0
M  V30 18 N -3.743628 -0.592862 1.567779 0
M  V30 19 C -4.760426 -1.258035 0.839427 0
M  V30 20 O -5.530594 -0.511765 0.171363 0
M  V30 21 C -4.951144 -2.702946 0.825558 0
M  V30 22 C -4.185773 -3.627515 1.503222 0
M  V30 23 C -4.406673 -4.987904 1.458009 0
M  V30 24 C -5.459057 -5.480842 0.689237 0
M  V30 25 O -5.651756 -6.855969 0.667202 0
M  V30 26 C -6.512182 -7.471362 1.639456 0
M  V30 27 F -5.969314 -7.181344 2.892050 0
M  V30 28 F -6.469336 -8.840058 1.521728 0
M  V30 29 F -7.772196 -6.957009 1.609993 0
M  V30 30 C -6.249665 -4.586079 -0.005274 0
M  V30 31 Cl -7.565862 -5.203997 -0.966819 0
M  V30 32 C -5.981230 -3.235604 0.077725 0
M  V30 33 C -1.410035 1.354261 0.382043 0
M  V30 34 C 3.738048 2.820124 -0.321770 0
M  V30 35 C 4.992460 2.387188 0.079842 0
M  V30 36 H 6.543563 -1.906516 1.021228 0
M  V30 37 H 5.878071 -1.370575 2.585599 0
M  V30 38 H 4.975790 -0.922737 1.144474 0
M  V30 39 H 8.646932 0.711625 2.367874 0
M  V30 40 H 8.723877 -0.621979 1.168451 0
M  V30 41 H 7.949661 -0.932459 2.822668 0
M  V30 42 H 7.474268 1.658049 0.297683 0
M  V30 43 H 7.299817 0.053943 -0.462804 0
M  V30 44 H 5.118470 -0.721930 -1.246785 0
M  V30 45 H 2.899945 -0.049860 -1.998845 0
M  V30 46 H 1.253313 2.610091 -2.460324 0
M  V30 47 H -0.773705 2.738134 -2.607750 0
M  V30 48 H -3.265922 2.792544 -2.603378 0
M  V30 49 H -4.545879 1.907461 -0.644303 0
M  V30 50 H -4.391423 1.425655 1.804282 0
M  V30 51 H -2.852491 1.011231 2.536589 0
M  V30 52 H -3.119560 -1.260768 2.115123 0
M  V30 53 H -3.372130 -3.268057 2.099296 0
M  V30 54 H -3.775673 -5.662377 2.008634 0
M  V30 55 H -6.624283 -2.574704 -0.480218 0
M  V30 56 H -0.891661 0.937419 1.248592 0
M  V30 57 H 3.289399 3.774092 -0.109452 0
M  V30 58 H 5.582024 3.095766 0.675015 0
M  V30 END ATOM
M  V30 BEGIN BOND
M  V30 1 1 1 2
M  V30 2 1 2 3
M  V30 3 1 2 4
M  V30 4 1 4 5
M  V30 5 2 5 6
M  V30 6 1 6 7
M  V30 7 2 7 8
M  V30 8 1 8 9
M  V30 9 1 9 10
M  V30 10 2 10 11
M  V30 11 1 10 12
M  V30 12 2 12 13
M  V30 13 1 13 14
M  V30 14 2 14 15
M  V30 15 1 15 16
M  V30 16 1 16 17
M  V30 17 1 17 18
M  V30 18 1 18 19
M  V30 19 2 19 20
M  V30 20 1 19 21
M  V30 21 2 21 22
M  V30 22 1 22 23
M  V30 23 2 23 24
M  V30 24 1 24 25
M  V30 25 1 25 26
M  V30 26 1 26 27
M  V30 27 1 26 28
M  V30 28 1 26 29
M  V30 29 1 24 30
M  V30 30 1 30 31
M  V30 31 2 30 32
M  V30 32 2 16 33
M  V30 33 1 8 34
M  V30 34 2 34 35
M  V30 35 1 35 5
M  V30 36 1 33 12
M  V30 37 1 32 21
M  V30 38 1 1 36
M  V30 39 1 1 37
M  V30 40 1 1 38
M  V30 41 1 3 39
M  V30 42 1 3 40
M  V30 43 1 3 41
M  V30 44 1 4 42
M  V30 45 1 4 43
M  V30 46 1 6 44
M  V30 47 1 7 45
M  V30 48 1 9 46
M  V30 49 1 13 47
M  V30 50 1 14 48
M  V30 51 1 15 49
M  V30 52 1 17 50
M  V30 53 1 17 51
M  V30 54 1 18 52
M  V30 55 1 22 53
M  V30 56 1 23 54
M  V30 57 1 32 55
M  V30 58 1 33 56
M  V30 59 1 34 57
M  V30 60 1 35 58
M  V30 END BOND
M  V30 END CTAB
M  END
>  <Dataset>  (103) 
ChEMBL_Kinases

>  <Ligand_Instance>  (103) 
nan

>  <PDB_ID>  (103) 
nan

>  <Standardized_SMILES>  (103) 
CN(C)Cc1ccc(NC(=O)c2cccc(CNC(=O)c3ccc(OC(F)(F)F)c(Cl)c3)c2)cc1

>  <Name>  (103) 
nan

>  <Pocket>  (103) 
nan

>  <ATP_Site>  (103) 
nan

>  <Peripheral>  (103) 
nan

>  <Num_H_Atoms_ProtBoundConf>  (103) 
nan

>  <Num_Resolved_Atoms>  (103) 
nan

>  <Num_Not_Resolved_Atoms>  (103) 
nan

$$$$
CHEMBL3899488
     RDKit          3D

  0  0  0  0  0  0  0  0  0  0999 V3000
M  V30 BEGIN CTAB
M  V30 COUNTS 38 41 0 0 0
M  V30 BEGIN ATOM
M  V30 1 C 1.270645 -4.914565 3.110312 0
M  V30 2 C 2.186072 -4.374216 2.056847 0
M  V30 3 N 3.102781 -5.266236 1.657482 0
M  V30 4 C 3.873875 -4.705797 0.723263 0
M  V30 5 C 3.432590 -3.420914 0.524823 0
M  V30 6 S 3.411799 -1.696143 -0.244361 0
M  V30 7 C 1.930902 -1.100068 0.786447 0
M  V30 8 C 1.240600 0.187679 0.801269 0
M  V30 9 O 1.350644 0.966126 1.816251 0
M  V30 10 N 0.454814 0.513701 -0.359853 0
M  V30 11 C 0.260388 -0.267702 -1.552783 0
M  V30 12 C -0.196030 0.747449 -2.564091 0
M  V30 13 C -0.954340 1.735281 -1.733285 0
M  V30 14 C -0.276668 1.762174 -0.427297 0
M  V30 15 C -1.163734 1.838310 0.746573 0
M  V30 16 C -1.316061 2.988738 1.500437 0
M  V30 17 C -2.143317 3.071307 2.602746 0
M  V30 18 C -2.836282 1.922636 2.936657 0
M  V30 19 C -2.707526 0.743936 2.200283 0
M  V30 20 C -1.870047 0.709819 1.106979 0
M  V30 21 N 1.596874 -2.143412 1.556920 0
M  V30 22 N 2.350596 -3.201520 1.376684 0
M  V30 23 H 0.662876 -4.069919 3.552744 0
M  V30 24 H 1.832411 -5.369314 3.945012 0
M  V30 25 H 0.589677 -5.665527 2.643253 0
M  V30 26 H 4.712656 -4.890201 0.069011 0
M  V30 27 H 1.268778 -0.621946 -1.860383 0
M  V30 28 H -0.450550 -1.102650 -1.411061 0
M  V30 29 H 0.634801 1.186722 -3.161963 0
M  V30 30 H -0.913054 0.196047 -3.238346 0
M  V30 31 H -0.782052 2.742857 -2.221059 0
M  V30 32 H -2.048185 1.590585 -1.716093 0
M  V30 33 H 0.491677 2.578292 -0.359770 0
M  V30 34 H -0.760092 3.886583 1.222283 0
M  V30 35 H -2.240297 4.000352 3.175551 0
M  V30 36 H -3.499632 1.962148 3.809695 0
M  V30 37 H -3.252013 -0.144051 2.469003 0
M  V30 38 H -1.770858 -0.197695 0.542005 0
M  V30 END ATOM
M  V30 BEGIN BOND
M  V30 1 1 1 2
M  V30 2 2 2 3
M  V30 3 1 3 4
M  V30 4 2 4 5
M  V30 5 1 5 6
M  V30 6 1 6 7
M  V30 7 1 7 8
M  V30 8 2 8 9
M  V30 9 1 8 10
M  V30 10 1 10 11
M  V30 11 1 11 12
M  V30 12 1 12 13
M  V30 13 1 13 14
M  V30 14 1 14 15
M  V30 15 2 15 16
M  V30 16 1 16 17
M  V30 17 2 17 18
M  V30 18 1 18 19
M  V30 19 2 19 20
M  V30 20 2 7 21
M  V30 21 1 21 22
M  V30 22 1 22 2
M  V30 23 1 22 5
M  V30 24 1 14 10
M  V30 25 1 20 15
M  V30 26 1 1 23
M  V30 27 1 1 24
M  V30 28 1 1 25
M  V30 29 1 4 26
M  V30 30 1 11 27
M  V30 31 1 11 28
M  V30 32 1 12 29
M  V30 33 1 12 30
M  V30 34 1 13 31
M  V30 35 1 13 32
M  V30 36 1 14 33
M  V30 37 1 16 34
M  V30 38 1 17 35
M  V30 39 1 18 36
M  V30 40 1 19 37
M  V30 41 1 20 38
M  V30 END BOND
M  V30 END CTAB
M  END
>  <Dataset>  (104) 
ChEMBL_Kinases

>  <Ligand_Instance>  (104) 
nan

>  <PDB_ID>  (104) 
nan

>  <Standardized_SMILES>  (104) 
Cc1ncc2sc(C(=O)N3CCCC3c3ccccc3)nn12

>  <Name>  (104) 
nan

>  <Pocket>  (104) 
nan

>  <ATP_Site>  (104) 
nan

>  <Peripheral>  (104) 
nan

>  <Num_H_Atoms_ProtBoundConf>  (104) 
nan

>  <Num_Resolved_Atoms>  (104) 
nan

>  <Num_Not_Resolved_Atoms>  (104) 
nan

$$$$
CHEMBL3899461
     RDKit          3D

  0  0  0  0  0  0  0  0  0  0999 V3000
M  V30 BEGIN CTAB
M  V30 COUNTS 62 68 0 0 0
M  V30 BEGIN ATOM
M  V30 1 C 1.930038 -2.743879 4.540944 0
M  V30 2 C 3.136137 -2.101939 4.739161 0
M  V30 3 C 3.338977 -0.849969 4.168860 0
M  V30 4 C 2.375231 -0.223284 3.409287 0
M  V30 5 C 2.678336 1.087816 2.850057 0
M  V30 6 C 1.808788 1.825061 2.071572 0
M  V30 7 C 2.227329 3.049334 1.607201 0
M  V30 8 C 3.473104 3.572426 1.883497 0
M  V30 9 C 4.312932 2.804528 2.665268 0
M  V30 10 N 3.904040 1.605552 3.120395 0
M  V30 11 N 3.853839 4.774192 1.412400 0
M  V30 12 C 3.045577 5.534737 0.646789 0
M  V30 13 C 1.781006 5.023642 0.355667 0
M  V30 14 N 0.785914 5.557848 -0.372987 0
M  V30 15 C -0.219415 4.633190 -0.328173 0
M  V30 16 N 0.164808 3.572755 0.408685 0
M  V30 17 C -0.765340 2.554841 0.539372 0
M  V30 18 C -1.724519 2.496604 1.560671 0
M  V30 19 C -2.686374 1.529300 1.754207 0
M  V30 20 C -2.730156 0.473237 0.837961 0
M  V30 21 N -3.553945 -0.541546 0.835331 0
M  V30 22 C -3.667215 -1.427921 0.154243 0
M  V30 23 N -4.423401 -2.628216 -0.111778 0
M  V30 24 C -4.101598 -3.549233 -1.211589 0
M  V30 25 C -2.753463 -4.174527 -1.033424 0
M  V30 26 N -2.384199 -5.096830 -2.095596 0
M  V30 27 C -2.157939 -4.424041 -3.341548 0
M  V30 28 C -0.718358 -3.935575 -3.468387 0
M  V30 29 O 0.207014 -4.954749 -3.388454 0
M  V30 30 C -0.342024 -6.131709 -2.873115 0
M  V30 31 C -1.163342 -5.753568 -1.681749 0
M  V30 32 S -2.242238 -0.963847 -1.018405 0
M  V30 33 C -1.833171 0.480699 -0.159987 0
M  V30 34 C -0.832397 1.484851 -0.363532 0
M  V30 35 C 1.392096 3.792479 0.838797 0
M  V30 36 C 1.209180 -0.895345 3.244917 0
M  V30 37 C 0.940778 -2.147875 3.786134 0
M  V30 38 H 1.715249 -3.731933 4.966433 0
M  V30 39 H 3.888219 -2.606334 5.340939 0
M  V30 40 H 4.309788 -0.429996 4.379340 0
M  V30 41 H 0.879410 1.356750 1.909027 0
M  V30 42 H 5.300756 3.131455 2.930705 0
M  V30 43 H 3.348367 6.504640 0.264783 0
M  V30 44 H -1.127758 4.911679 -0.882628 0
M  V30 45 H -1.639721 3.353369 2.249020 0
M  V30 46 H -3.330462 1.693205 2.626170 0
M  V30 47 H -5.180879 -2.704477 0.574421 0
M  V30 48 H -4.874783 -4.339795 -1.209263 0
M  V30 49 H -4.175463 -2.988047 -2.170884 0
M  V30 50 H -2.758790 -4.707664 -0.037177 0
M  V30 51 H -1.913213 -3.466412 -0.952177 0
M  V30 52 H -2.313678 -5.105308 -4.224215 0
M  V30 53 H -2.794662 -3.554433 -3.539733 0
M  V30 54 H -0.651721 -3.525074 -4.505556 0
M  V30 55 H -0.485524 -3.095285 -2.803438 0
M  V30 56 H -1.009916 -6.592881 -3.629596 0
M  V30 57 H 0.485704 -6.806340 -2.625386 0
M  V30 58 H -0.567419 -5.077196 -1.039051 0
M  V30 59 H -1.436499 -6.620141 -1.045794 0
M  V30 60 H -0.168110 1.397437 -1.187777 0
M  V30 61 H 0.418865 -0.461800 2.664581 0
M  V30 62 H 0.015029 -2.666699 3.648269 0
M  V30 END ATOM
M  V30 BEGIN BOND
M  V30 1 2 1 2
M  V30 2 1 2 3
M  V30 3 2 3 4
M  V30 4 1 4 5
M  V30 5 2 5 6
M  V30 6 1 6 7
M  V30 7 2 7 8
M  V30 8 1 8 9
M  V30 9 2 9 10
M  V30 10 1 8 11
M  V30 11 2 11 12
M  V30 12 1 12 13
M  V30 13 1 13 14
M  V30 14 2 14 15
M  V30 15 1 15 16
M  V30 16 1 16 17
M  V30 17 2 17 18
M  V30 18 1 18 19
M  V30 19 2 19 20
M  V30 20 1 20 21
M  V30 21 2 21 22
M  V30 22 1 22 23
M  V30 23 1 23 24
M  V30 24 1 24 25
M  V30 25 1 25 26
M  V30 26 1 26 27
M  V30 27 1 27 28
M  V30 28 1 28 29
M  V30 29 1 29 30
M  V30 30 1 30 31
M  V30 31 1 22 32
M  V30 32 1 32 33
M  V30 33 2 33 34
M  V30 34 1 16 35
M  V30 35 1 4 36
M  V30 36 2 36 37
M  V30 37 1 37 1
M  V30 38 1 10 5
M  V30 39 2 35 13
M  V30 40 1 35 7
M  V30 41 1 34 17
M  V30 42 1 33 20
M  V30 43 1 31 26
M  V30 44 1 1 38
M  V30 45 1 2 39
M  V30 46 1 3 40
M  V30 47 1 6 41
M  V30 48 1 9 42
M  V30 49 1 12 43
M  V30 50 1 15 44
M  V30 51 1 18 45
M  V30 52 1 19 46
M  V30 53 1 23 47
M  V30 54 1 24 48
M  V30 55 1 24 49
M  V30 56 1 25 50
M  V30 57 1 25 51
M  V30 58 1 27 52
M  V30 59 1 27 53
M  V30 60 1 28 54
M  V30 61 1 28 55
M  V30 62 1 30 56
M  V30 63 1 30 57
M  V30 64 1 31 58
M  V30 65 1 31 59
M  V30 66 1 34 60
M  V30 67 1 36 61
M  V30 68 1 37 62
M  V30 END BOND
M  V30 END CTAB
M  END
>  <Dataset>  (105) 
ChEMBL_Kinases

>  <Ligand_Instance>  (105) 
nan

>  <PDB_ID>  (105) 
nan

>  <Standardized_SMILES>  (105) 
c1ccc(-c2cc3c(cn2)ncc2ncn(-c4ccc5nc(NCCN6CCOCC6)sc5c4)c23)cc1

>  <Name>  (105) 
nan

>  <Pocket>  (105) 
nan

>  <ATP_Site>  (105) 
nan

>  <Peripheral>  (105) 
nan

>  <Num_H_Atoms_ProtBoundConf>  (105) 
nan

>  <Num_Resolved_Atoms>  (105) 
nan

>  <Num_Not_Resolved_Atoms>  (105) 
nan

$$$$
CHEMBL3899098
     RDKit          3D

  0  0  0  0  0  0  0  0  0  0999 V3000
M  V30 BEGIN CTAB
M  V30 COUNTS 51 53 0 0 0
M  V30 BEGIN ATOM
M  V30 1 O 2.773122 0.949415 2.176947 0
M  V30 2 C 2.279366 0.685332 1.075955 0
M  V30 3 N 3.041416 0.997104 -0.083841 0
M  V30 4 C 4.308512 1.591159 0.246826 0
M  V30 5 C 5.493961 0.970180 0.472268 0
M  V30 6 C 6.610138 1.720484 0.779780 0
M  V30 7 C 6.564248 3.106260 0.868209 0
M  V30 8 Cl 8.011367 4.001395 1.261325 0
M  V30 9 C 5.348718 3.741654 0.636953 0
M  V30 10 C 5.265357 5.240736 0.724958 0
M  V30 11 F 3.953984 5.623896 0.453769 0
M  V30 12 F 6.072384 5.858200 -0.190226 0
M  V30 13 F 5.509483 5.670172 2.031808 0
M  V30 14 C 4.222931 2.980926 0.326507 0
M  V30 15 N 0.989790 0.090427 1.030183 0
M  V30 16 C 0.233210 -0.217708 2.223352 0
M  V30 17 C -1.071366 0.416216 2.403730 0
M  V30 18 C -2.295287 -0.298048 1.955606 0
M  V30 19 C -2.042484 -1.761839 1.572777 0
M  V30 20 O -3.244827 -2.453383 1.507507 0
M  V30 21 C -3.767197 -3.152572 0.459555 0
M  V30 22 C -3.233908 -3.347697 -0.794277 0
M  V30 23 C -3.861852 -4.080494 -1.778767 0
M  V30 24 C -5.098891 -4.649898 -1.483215 0
M  V30 25 C -5.845994 -5.445760 -2.460395 0
M  V30 26 O -6.966064 -5.985660 -2.254996 0
M  V30 27 O -5.311464 -5.646559 -3.730658 0
M  V30 28 C -5.659189 -4.472240 -0.235781 0
M  V30 29 C -5.008896 -3.726139 0.751092 0
M  V30 30 C -1.133698 -2.269429 2.687694 0
M  V30 31 C 0.241502 -1.722986 2.327584 0
M  V30 32 H 2.593411 0.760045 -1.007355 0
M  V30 33 H 5.467420 -0.106430 0.389443 0
M  V30 34 H 7.552561 1.187814 0.956214 0
M  V30 35 H 3.316031 3.562746 0.161674 0
M  V30 36 H 0.602909 -0.119414 0.080834 0
M  V30 37 H 0.913278 0.122585 3.038886 0
M  V30 38 H -1.003740 1.466372 1.997655 0
M  V30 39 H -1.237348 0.614805 3.497402 0
M  V30 40 H -2.812276 0.186934 1.088387 0
M  V30 41 H -3.105175 -0.375856 2.714259 0
M  V30 42 H -1.515334 -1.842979 0.619355 0
M  V30 43 H -2.274989 -2.882442 -0.962342 0
M  V30 44 H -3.429614 -4.219686 -2.746402 0
M  V30 45 H -5.921894 -5.748721 -4.556420 0
M  V30 46 H -6.636210 -4.925208 -0.010723 0
M  V30 47 H -5.514386 -3.640440 1.685790 0
M  V30 48 H -1.071338 -3.356560 2.703949 0
M  V30 49 H -1.472800 -1.868602 3.671108 0
M  V30 50 H 0.928356 -2.131397 3.077060 0
M  V30 51 H 0.490465 -2.223414 1.363652 0
M  V30 END ATOM
M  V30 BEGIN BOND
M  V30 1 2 1 2
M  V30 2 1 2 3
M  V30 3 1 3 4
M  V30 4 2 4 5
M  V30 5 1 5 6
M  V30 6 2 6 7
M  V30 7 1 7 8
M  V30 8 1 7 9
M  V30 9 1 9 10
M  V30 10 1 10 11
M  V30 11 1 10 12
M  V30 12 1 10 13
M  V30 13 2 9 14
M  V30 14 1 2 15
M  V30 15 1 15 16
M  V30 16 1 16 17
M  V30 17 1 17 18
M  V30 18 1 18 19
M  V30 19 1 19 20
M  V30 20 1 20 21
M  V30 21 2 21 22
M  V30 22 1 22 23
M  V30 23 2 23 24
M  V30 24 1 24 25
M  V30 25 2 25 26
M  V30 26 1 25 27
M  V30 27 1 24 28
M  V30 28 2 28 29
M  V30 29 1 19 30
M  V30 30 1 30 31
M  V30 31 1 14 4
M  V30 32 1 31 16
M  V30 33 1 29 21
M  V30 34 1 3 32
M  V30 35 1 5 33
M  V30 36 1 6 34
M  V30 37 1 14 35
M  V30 38 1 15 36
M  V30 39 1 16 37
M  V30 40 1 17 38
M  V30 41 1 17 39
M  V30 42 1 18 40
M  V30 43 1 18 41
M  V30 44 1 19 42
M  V30 45 1 22 43
M  V30 46 1 23 44
M  V30 47 1 27 45
M  V30 48 1 28 46
M  V30 49 1 29 47
M  V30 50 1 30 48
M  V30 51 1 30 49
M  V30 52 1 31 50
M  V30 53 1 31 51
M  V30 END BOND
M  V30 END CTAB
M  END
>  <Dataset>  (106) 
ChEMBL_Kinases

>  <Ligand_Instance>  (106) 
nan

>  <PDB_ID>  (106) 
nan

>  <Standardized_SMILES>  (106) 
O=C(Nc1ccc(Cl)c(C(F)(F)F)c1)NC1CCC(Oc2ccc(C(=O)O)cc2)CC1

>  <Name>  (106) 
nan

>  <Pocket>  (106) 
nan

>  <ATP_Site>  (106) 
nan

>  <Peripheral>  (106) 
nan

>  <Num_H_Atoms_ProtBoundConf>  (106) 
nan

>  <Num_Resolved_Atoms>  (106) 
nan

>  <Num_Not_Resolved_Atoms>  (106) 
nan

$$$$
CHEMBL39
     RDKit          3D

  0  0  0  0  0  0  0  0  0  0999 V3000
M  V30 BEGIN CTAB
M  V30 COUNTS 25 26 0 0 0
M  V30 BEGIN ATOM
M  V30 1 N 0.015304 -0.480642 4.334920 0
M  V30 2 C 0.934989 -1.402958 3.744826 0
M  V30 3 C 0.547478 -1.668524 2.306456 0
M  V30 4 C 0.579056 -0.398358 1.566168 0
M  V30 5 C 0.885008 0.903361 1.951474 0
M  V30 6 N 0.769113 1.742339 0.890678 0
M  V30 7 C 0.394220 0.994479 -0.163271 0
M  V30 8 C 0.167113 1.466514 -1.437038 0
M  V30 9 C -0.214062 0.572702 -2.417007 0
M  V30 10 C -0.354320 -0.766833 -2.083530 0
M  V30 11 O -0.738367 -1.668727 -3.070019 0
M  V30 12 C -0.121567 -1.229360 -0.792660 0
M  V30 13 C 0.264381 -0.330306 0.203658 0
M  V30 14 H 0.402555 0.170321 5.025702 0
M  V30 15 H -0.735485 -0.139037 3.726153 0
M  V30 16 H 1.993898 -1.070405 3.732736 0
M  V30 17 H 0.880903 -2.347304 4.336802 0
M  V30 18 H 1.190777 -2.450136 1.874019 0
M  V30 19 H -0.488336 -2.067601 2.324221 0
M  V30 20 H 1.167749 1.142936 2.969222 0
M  V30 21 H 0.954851 2.773136 0.959367 0
M  V30 22 H 0.272425 2.510998 -1.713961 0
M  V30 23 H -0.402516 0.894333 -3.425926 0
M  V30 24 H -0.056186 -2.305518 -3.495040 0
M  V30 25 H -0.223536 -2.250050 -0.517988 0
M  V30 END ATOM
M  V30 BEGIN BOND
M  V30 1 1 1 2
M  V30 2 1 2 3
M  V30 3 1 3 4
M  V30 4 2 4 5
M  V30 5 1 5 6
M  V30 6 1 6 7
M  V30 7 2 7 8
M  V30 8 1 8 9
M  V30 9 2 9 10
M  V30 10 1 10 11
M  V30 11 1 10 12
M  V30 12 2 12 13
M  V30 13 1 13 4
M  V30 14 1 13 7
M  V30 15 1 1 14
M  V30 16 1 1 15
M  V30 17 1 2 16
M  V30 18 1 2 17
M  V30 19 1 3 18
M  V30 20 1 3 19
M  V30 21 1 5 20
M  V30 22 1 6 21
M  V30 23 1 8 22
M  V30 24 1 9 23
M  V30 25 1 11 24
M  V30 26 1 12 25
M  V30 END BOND
M  V30 END CTAB
M  END
>  <Dataset>  (107) 
ChEMBL_Kinases

>  <Ligand_Instance>  (107) 
nan

>  <PDB_ID>  (107) 
nan

>  <Standardized_SMILES>  (107) 
NCCc1c[nH]c2ccc(O)cc12

>  <Name>  (107) 
SEROTONIN

>  <Pocket>  (107) 
nan

>  <ATP_Site>  (107) 
nan

>  <Peripheral>  (107) 
nan

>  <Num_H_Atoms_ProtBoundConf>  (107) 
nan

>  <Num_Resolved_Atoms>  (107) 
nan

>  <Num_Not_Resolved_Atoms>  (107) 
nan

$$$$
CHEMBL3908396
     RDKit          3D

  0  0  0  0  0  0  0  0  0  0999 V3000
M  V30 BEGIN CTAB
M  V30 COUNTS 41 45 0 0 0
M  V30 BEGIN ATOM
M  V30 1 C -1.063735 -2.820256 2.690283 0
M  V30 2 C 0.106653 -3.028866 2.165620 0
M  V30 3 C 1.021508 -2.356831 1.279534 0
M  V30 4 N 2.216052 -2.933898 0.951783 0
M  V30 5 N 2.880828 -2.155419 0.142464 0
M  V30 6 C 2.218989 -1.021918 -0.139910 0
M  V30 7 C 2.466065 0.094821 -0.912433 0
M  V30 8 C 1.514349 1.092142 -0.957811 0
M  V30 9 C 1.875297 2.224271 -1.803011 0
M  V30 10 C 2.407054 1.939435 -3.066643 0
M  V30 11 C 2.769159 2.981642 -3.919645 0
M  V30 12 N 2.609980 4.260481 -3.534113 0
M  V30 13 C 2.108508 4.564162 -2.342136 0
M  V30 14 N 1.827108 5.708548 -1.666077 0
M  V30 15 N 1.317398 5.454034 -0.457084 0
M  V30 16 C 1.248166 4.112186 -0.301651 0
M  V30 17 C 1.735967 3.555189 -1.464167 0
M  V30 18 C 0.352214 0.938840 -0.231534 0
M  V30 19 C 0.120435 -0.180948 0.534351 0
M  V30 20 C 1.060319 -1.177089 0.585586 0
M  V30 21 C -1.852471 -3.642328 3.592528 0
M  V30 22 C -3.080275 -3.169044 3.997908 0
M  V30 23 C -3.875711 -3.888128 4.845112 0
M  V30 24 C -3.473219 -5.115976 5.323580 0
M  V30 25 C -2.250674 -5.629087 4.943784 0
M  V30 26 C -1.485977 -4.865167 4.087929 0
M  V30 27 H -1.459821 -1.884146 2.374570 0
M  V30 28 H 0.404928 -4.015415 2.563824 0
M  V30 29 H 3.820698 -2.436719 -0.213880 0
M  V30 30 H 3.408893 0.121803 -1.446187 0
M  V30 31 H 2.547395 0.930666 -3.405815 0
M  V30 32 H 3.181479 2.764284 -4.899466 0
M  V30 33 H 1.982164 6.676738 -2.027899 0
M  V30 34 H 0.881917 3.605971 0.565972 0
M  V30 35 H -0.358666 1.750284 -0.304324 0
M  V30 36 H -0.796811 -0.250033 1.077985 0
M  V30 37 H -3.462870 -2.208787 3.661035 0
M  V30 38 H -4.837120 -3.502409 5.153929 0
M  V30 39 H -4.085778 -5.711630 5.999868 0
M  V30 40 H -1.904410 -6.594306 5.303482 0
M  V30 41 H -0.543151 -5.283148 3.807739 0
M  V30 END ATOM
M  V30 BEGIN BOND
M  V30 1 2 1 2
M  V30 2 1 2 3
M  V30 3 2 3 4
M  V30 4 1 4 5
M  V30 5 1 5 6
M  V30 6 2 6 7
M  V30 7 1 7 8
M  V30 8 1 8 9
M  V30 9 2 9 10
M  V30 10 1 10 11
M  V30 11 2 11 12
M  V30 12 1 12 13
M  V30 13 1 13 14
M  V30 14 1 14 15
M  V30 15 2 15 16
M  V30 16 1 16 17
M  V30 17 2 8 18
M  V30 18 1 18 19
M  V30 19 2 19 20
M  V30 20 1 1 21
M  V30 21 2 21 22
M  V30 22 1 22 23
M  V30 23 2 23 24
M  V30 24 1 24 25
M  V30 25 2 25 26
M  V30 26 1 20 3
M  V30 27 1 26 21
M  V30 28 1 20 6
M  V30 29 1 17 9
M  V30 30 2 17 13
M  V30 31 1 1 27
M  V30 32 1 2 28
M  V30 33 1 5 29
M  V30 34 1 7 30
M  V30 35 1 10 31
M  V30 36 1 11 32
M  V30 37 1 14 33
M  V30 38 1 16 34
M  V30 39 1 18 35
M  V30 40 1 19 36
M  V30 41 1 22 37
M  V30 42 1 23 38
M  V30 43 1 24 39
M  V30 44 1 25 40
M  V30 45 1 26 41
M  V30 END BOND
M  V30 END CTAB
M  END
>  <Dataset>  (108) 
ChEMBL_Kinases

>  <Ligand_Instance>  (108) 
nan

>  <PDB_ID>  (108) 
nan

>  <Standardized_SMILES>  (108) 
C(=C/c1n[nH]c2cc(-c3ccnc4[nH]ncc34)ccc12)\c1ccccc1

>  <Name>  (108) 
nan

>  <Pocket>  (108) 
nan

>  <ATP_Site>  (108) 
nan

>  <Peripheral>  (108) 
nan

>  <Num_H_Atoms_ProtBoundConf>  (108) 
nan

>  <Num_Resolved_Atoms>  (108) 
nan

>  <Num_Not_Resolved_Atoms>  (108) 
nan

$$$$
CHEMBL3908471
     RDKit          3D

  0  0  0  0  0  0  0  0  0  0999 V3000
M  V30 BEGIN CTAB
M  V30 COUNTS 50 53 0 0 0
M  V30 BEGIN ATOM
M  V30 1 C 2.190778 -3.929122 2.956192 0
M  V30 2 C 2.980728 -2.762756 3.408265 0
M  V30 3 O 3.356075 -2.755111 4.616492 0
M  V30 4 C 3.374936 -1.604849 2.602771 0
M  V30 5 C 4.097964 -0.600047 3.191257 0
M  V30 6 C 4.500755 0.526643 2.483589 0
M  V30 7 C 4.166751 0.643398 1.156625 0
M  V30 8 N 4.510730 1.705502 0.240056 0
M  V30 9 C 3.611236 2.043119 -0.805285 0
M  V30 10 N 3.851915 2.765392 -1.904689 0
M  V30 11 C 2.895272 3.038492 -2.789371 0
M  V30 12 C 1.572474 2.615250 -2.675043 0
M  V30 13 C 1.322568 1.857580 -1.517516 0
M  V30 14 C 0.009912 1.332365 -1.155274 0
M  V30 15 C -0.127232 0.649957 0.029898 0
M  V30 16 C -1.385266 0.140727 0.385728 0
M  V30 17 C -2.488609 0.287659 -0.390900 0
M  V30 18 O -3.588967 -0.288053 0.157201 0
M  V30 19 C -3.799670 -1.551959 0.601789 0
M  V30 20 C -2.965617 -2.641340 0.653468 0
M  V30 21 C -3.347548 -3.892303 1.151954 0
M  V30 22 C -4.661249 -4.039808 1.628444 0
M  V30 23 C -5.544042 -2.947453 1.592690 0
M  V30 24 C -5.077368 -1.751640 1.081306 0
M  V30 25 N -6.102224 -0.738275 1.101890 0
M  V30 26 C -2.361372 0.970460 -1.581246 0
M  V30 27 C -1.109364 1.476616 -1.933780 0
M  V30 28 N 2.359924 1.663237 -0.729378 0
M  V30 29 C 3.431751 -0.387506 0.573892 0
M  V30 30 C 3.018352 -1.531069 1.273348 0
M  V30 31 H 1.966993 -3.910539 1.888028 0
M  V30 32 H 2.764941 -4.866759 3.221882 0
M  V30 33 H 1.195223 -3.932289 3.472128 0
M  V30 34 H 4.407893 -0.606098 4.248971 0
M  V30 35 H 5.064752 1.344282 2.878608 0
M  V30 36 H 5.384041 2.278465 0.261349 0
M  V30 37 H 3.127302 3.630857 -3.680181 0
M  V30 38 H 0.770236 2.799599 -3.344775 0
M  V30 39 H 0.739395 0.537189 0.644288 0
M  V30 40 H -1.343949 -0.378343 1.356397 0
M  V30 41 H -1.965433 -2.451169 0.267157 0
M  V30 42 H -2.624357 -4.697521 1.153937 0
M  V30 43 H -4.968357 -5.008415 2.017277 0
M  V30 44 H -6.526365 -3.134509 1.972175 0
M  V30 45 H -6.899072 -0.993950 0.447787 0
M  V30 46 H -6.125161 0.172771 1.664856 0
M  V30 47 H -3.251266 1.065832 -2.167922 0
M  V30 48 H -1.042402 2.007537 -2.872671 0
M  V30 49 H 3.087328 -0.477155 -0.473183 0
M  V30 50 H 2.446187 -2.316329 0.808784 0
M  V30 END ATOM
M  V30 BEGIN BOND
M  V30 1 1 1 2
M  V30 2 2 2 3
M  V30 3 1 2 4
M  V30 4 2 4 5
M  V30 5 1 5 6
M  V30 6 2 6 7
M  V30 7 1 7 8
M  V30 8 1 8 9
M  V30 9 2 9 10
M  V30 10 1 10 11
M  V30 11 2 11 12
M  V30 12 1 12 13
M  V30 13 1 13 14
M  V30 14 2 14 15
M  V30 15 1 15 16
M  V30 16 2 16 17
M  V30 17 1 17 18
M  V30 18 1 18 19
M  V30 19 2 19 20
M  V30 20 1 20 21
M  V30 21 2 21 22
M  V30 22 1 22 23
M  V30 23 2 23 24
M  V30 24 1 24 25
M  V30 25 1 17 26
M  V30 26 2 26 27
M  V30 27 2 13 28
M  V30 28 1 7 29
M  V30 29 2 29 30
M  V30 30 1 30 4
M  V30 31 1 28 9
M  V30 32 1 27 14
M  V30 33 1 24 19
M  V30 34 1 1 31
M  V30 35 1 1 32
M  V30 36 1 1 33
M  V30 37 1 5 34
M  V30 38 1 6 35
M  V30 39 1 8 36
M  V30 40 1 11 37
M  V30 41 1 12 38
M  V30 42 1 15 39
M  V30 43 1 16 40
M  V30 44 1 20 41
M  V30 45 1 21 42
M  V30 46 1 22 43
M  V30 47 1 23 44
M  V30 48 1 25 45
M  V30 49 1 25 46
M  V30 50 1 26 47
M  V30 51 1 27 48
M  V30 52 1 29 49
M  V30 53 1 30 50
M  V30 END BOND
M  V30 END CTAB
M  END
>  <Dataset>  (109) 
ChEMBL_Kinases

>  <Ligand_Instance>  (109) 
nan

>  <PDB_ID>  (109) 
nan

>  <Standardized_SMILES>  (109) 
CC(=O)c1ccc(Nc2nccc(-c3ccc(Oc4ccccc4N)cc3)n2)cc1

>  <Name>  (109) 
nan

>  <Pocket>  (109) 
nan

>  <ATP_Site>  (109) 
nan

>  <Peripheral>  (109) 
nan

>  <Num_H_Atoms_ProtBoundConf>  (109) 
nan

>  <Num_Resolved_Atoms>  (109) 
nan

>  <Num_Not_Resolved_Atoms>  (109) 
nan

$$$$
CHEMBL4878416
     RDKit          3D

  0  0  0  0  0  0  0  0  0  0999 V3000
M  V30 BEGIN CTAB
M  V30 COUNTS 40 44 0 0 0
M  V30 BEGIN ATOM
M  V30 1 C 1.382533 0.309743 2.899730 0
M  V30 2 C 1.111277 0.479650 4.235613 0
M  V30 3 N -0.085828 0.163713 4.755684 0
M  V30 4 N -1.064394 -0.324942 4.018768 0
M  V30 5 N -2.284430 -0.679676 4.383684 0
M  V30 6 C -2.935976 -1.127553 3.275087 0
M  V30 7 C -2.086843 -1.039987 2.217504 0
M  V30 8 C -2.314048 -1.395342 0.826229 0
M  V30 9 C -3.515812 -1.904504 0.379924 0
M  V30 10 C -3.817171 -2.266883 -0.915855 0
M  V30 11 N -2.793256 -2.079461 -1.778430 0
M  V30 12 C -1.593670 -1.587483 -1.414963 0
M  V30 13 N -0.593201 -1.435001 -2.412463 0
M  V30 14 C -0.774309 -1.775049 -3.808477 0
M  V30 15 C 0.474077 -1.260406 -4.492764 0
M  V30 16 C 1.528518 -1.172605 -3.409181 0
M  V30 17 C 2.405497 0.036527 -3.521376 0
M  V30 18 N 2.103327 0.880303 -2.378801 0
M  V30 19 C 0.684538 0.594272 -2.128312 0
M  V30 20 C 0.724173 -0.927330 -2.177451 0
M  V30 21 N -1.370758 -1.254869 -0.130813 0
M  V30 22 C -0.895090 -0.529531 2.687957 0
M  V30 23 C 0.334026 -0.205270 2.153349 0
M  V30 24 H 2.304715 0.533565 2.400507 0
M  V30 25 H 1.893819 0.878073 4.863460 0
M  V30 26 H -3.967459 -1.490639 3.264922 0
M  V30 27 H -4.289343 -2.022671 1.149751 0
M  V30 28 H -4.781596 -2.659189 -1.191791 0
M  V30 29 H -0.913148 -2.866699 -3.961023 0
M  V30 30 H -1.669390 -1.253373 -4.184181 0
M  V30 31 H 0.329111 -0.278046 -4.981580 0
M  V30 32 H 0.865548 -1.967426 -5.255616 0
M  V30 33 H 2.148875 -2.089445 -3.365294 0
M  V30 34 H 2.171209 0.611864 -4.429072 0
M  V30 35 H 3.490859 -0.185506 -3.497897 0
M  V30 36 H 2.281351 1.884974 -2.540865 0
M  V30 37 H 0.380300 0.994295 -1.154067 0
M  V30 38 H 0.032827 0.931469 -2.959164 0
M  V30 39 H 1.186791 -1.334790 -1.254793 0
M  V30 40 H 0.480288 -0.364875 1.090042 0
M  V30 END ATOM
M  V30 BEGIN BOND
M  V30 1 1 1 2
M  V30 2 2 2 3
M  V30 3 1 3 4
M  V30 4 1 4 5
M  V30 5 2 5 6
M  V30 6 1 6 7
M  V30 7 1 7 8
M  V30 8 2 8 9
M  V30 9 1 9 10
M  V30 10 2 10 11
M  V30 11 1 11 12
M  V30 12 1 12 13
M  V30 13 1 13 14
M  V30 14 1 14 15
M  V30 15 1 15 16
M  V30 16 1 16 17
M  V30 17 1 17 18
M  V30 18 1 18 19
M  V30 19 1 19 20
M  V30 20 2 12 21
M  V30 21 2 7 22
M  V30 22 1 22 23
M  V30 23 2 23 1
M  V30 24 1 22 4
M  V30 25 1 21 8
M  V30 26 1 20 13
M  V30 27 1 20 16
M  V30 28 1 1 24
M  V30 29 1 2 25
M  V30 30 1 6 26
M  V30 31 1 9 27
M  V30 32 1 10 28
M  V30 33 1 14 29
M  V30 34 1 14 30
M  V30 35 1 15 31
M  V30 36 1 15 32
M  V30 37 1 16 33
M  V30 38 1 17 34
M  V30 39 1 17 35
M  V30 40 1 18 36
M  V30 41 1 19 37
M  V30 42 1 19 38
M  V30 43 1 20 39
M  V30 44 1 23 40
M  V30 END BOND
M  V30 END CTAB
M  END
>  <Dataset>  (110) 
ChEMBL_Kinases

>  <Ligand_Instance>  (110) 
nan

>  <PDB_ID>  (110) 
nan

>  <Standardized_SMILES>  (110) 
c1cnn2ncc(-c3ccnc(N4CCC5CNCC54)n3)c2c1

>  <Name>  (110) 
nan

>  <Pocket>  (110) 
nan

>  <ATP_Site>  (110) 
nan

>  <Peripheral>  (110) 
nan

>  <Num_H_Atoms_ProtBoundConf>  (110) 
nan

>  <Num_Resolved_Atoms>  (110) 
nan

>  <Num_Not_Resolved_Atoms>  (110) 
nan

$$$$
CHEMBL3908516
     RDKit          3D

  0  0  0  0  0  0  0  0  0  0999 V3000
M  V30 BEGIN CTAB
M  V30 COUNTS 44 49 0 0 0
M  V30 BEGIN ATOM
M  V30 1 C -0.299089 0.436267 5.637519 0
M  V30 2 C -0.660661 -0.234142 4.500196 0
M  V30 3 C -0.082619 0.092732 3.309536 0
M  V30 4 C 0.868904 1.074631 3.142337 0
M  V30 5 C 1.492425 1.430878 1.872815 0
M  V30 6 C 1.215252 0.833337 0.663226 0
M  V30 7 C 1.865133 1.251360 -0.471323 0
M  V30 8 C 2.802111 2.261480 -0.461404 0
M  V30 9 C 3.059369 2.843018 0.770059 0
M  V30 10 N 2.414868 2.421273 1.866218 0
M  V30 11 N 3.441024 2.673637 -1.572139 0
M  V30 12 C 3.215195 2.131951 -2.779291 0
M  V30 13 C 2.287474 1.127311 -2.807276 0
M  V30 14 N 1.816048 0.368968 -3.822591 0
M  V30 15 C 0.892743 -0.506037 -3.346013 0
M  V30 16 N 0.774466 -0.305575 -2.022386 0
M  V30 17 C -0.146916 -1.124752 -1.328248 0
M  V30 18 C -1.489834 -0.749906 -1.177842 0
M  V30 19 C -2.460756 -1.484370 -0.533502 0
M  V30 20 C -2.097588 -2.681113 0.009310 0
M  V30 21 N -2.984450 -3.457768 0.654196 0
M  V30 22 C -2.625964 -4.644653 1.192959 0
M  V30 23 C -1.311799 -5.094376 1.089936 0
M  V30 24 C -0.385760 -4.318608 0.435311 0
M  V30 25 C -0.799969 -3.114703 -0.097996 0
M  V30 26 C 0.155014 -2.364573 -0.746526 0
M  V30 27 C 1.615343 0.680396 -1.692624 0
M  V30 28 C 1.214332 1.733132 4.301692 0
M  V30 29 C 0.651402 1.429560 5.520831 0
M  V30 30 H -0.761868 0.171787 6.579475 0
M  V30 31 H -1.406058 -1.013382 4.590595 0
M  V30 32 H -0.407236 -0.469514 2.448579 0
M  V30 33 H 0.481879 0.056077 0.709419 0
M  V30 34 H 3.788381 3.649999 0.862850 0
M  V30 35 H 3.718880 2.447044 -3.694651 0
M  V30 36 H 0.428221 -1.181923 -4.058247 0
M  V30 37 H -1.789400 0.209214 -1.610650 0
M  V30 38 H -3.468572 -1.098370 -0.476394 0
M  V30 39 H -3.363168 -5.260045 1.712934 0
M  V30 40 H -1.007061 -6.058039 1.523807 0
M  V30 41 H 0.647137 -4.661545 0.348722 0
M  V30 42 H 1.197777 -2.665288 -0.858168 0
M  V30 43 H 1.959253 2.526910 4.272109 0
M  V30 44 H 0.944022 1.966902 6.420228 0
M  V30 END ATOM
M  V30 BEGIN BOND
M  V30 1 2 1 2
M  V30 2 1 2 3
M  V30 3 2 3 4
M  V30 4 1 4 5
M  V30 5 2 5 6
M  V30 6 1 6 7
M  V30 7 2 7 8
M  V30 8 1 8 9
M  V30 9 2 9 10
M  V30 10 1 8 11
M  V30 11 2 11 12
M  V30 12 1 12 13
M  V30 13 1 13 14
M  V30 14 2 14 15
M  V30 15 1 15 16
M  V30 16 1 16 17
M  V30 17 2 17 18
M  V30 18 1 18 19
M  V30 19 2 19 20
M  V30 20 1 20 21
M  V30 21 2 21 22
M  V30 22 1 22 23
M  V30 23 2 23 24
M  V30 24 1 24 25
M  V30 25 2 25 26
M  V30 26 1 16 27
M  V30 27 1 4 28
M  V30 28 2 28 29
M  V30 29 1 29 1
M  V30 30 1 10 5
M  V30 31 2 27 13
M  V30 32 1 27 7
M  V30 33 1 26 17
M  V30 34 1 25 20
M  V30 35 1 1 30
M  V30 36 1 2 31
M  V30 37 1 3 32
M  V30 38 1 6 33
M  V30 39 1 9 34
M  V30 40 1 12 35
M  V30 41 1 15 36
M  V30 42 1 18 37
M  V30 43 1 19 38
M  V30 44 1 22 39
M  V30 45 1 23 40
M  V30 46 1 24 41
M  V30 47 1 26 42
M  V30 48 1 28 43
M  V30 49 1 29 44
M  V30 END BOND
M  V30 END CTAB
M  END
>  <Dataset>  (111) 
ChEMBL_Kinases

>  <Ligand_Instance>  (111) 
nan

>  <PDB_ID>  (111) 
nan

>  <Standardized_SMILES>  (111) 
c1ccc(-c2cc3c(cn2)ncc2ncn(-c4ccc5ncccc5c4)c23)cc1

>  <Name>  (111) 
nan

>  <Pocket>  (111) 
nan

>  <ATP_Site>  (111) 
nan

>  <Peripheral>  (111) 
nan

>  <Num_H_Atoms_ProtBoundConf>  (111) 
nan

>  <Num_Resolved_Atoms>  (111) 
nan

>  <Num_Not_Resolved_Atoms>  (111) 
nan

$$$$
CHEMBL487842
     RDKit          3D

  0  0  0  0  0  0  0  0  0  0999 V3000
M  V30 BEGIN CTAB
M  V30 COUNTS 56 57 0 0 0
M  V30 BEGIN ATOM
M  V30 1 C 2.150426 -1.331895 5.211601 0
M  V30 2 C 2.346648 -0.207413 4.171623 0
M  V30 3 C 3.768145 -0.196551 3.681800 0
M  V30 4 C 4.100590 0.836049 2.673639 0
M  V30 5 C 3.332281 0.807616 1.394098 0
M  V30 6 C 3.415599 -0.460973 0.613594 0
M  V30 7 C 2.598002 -0.313558 -0.648630 0
M  V30 8 C 1.995473 1.433084 1.460003 0
M  V30 9 O 1.669710 2.117405 2.450157 0
M  V30 10 O 0.971251 1.479615 0.719041 0
M  V30 11 C -0.117169 1.556492 -0.018141 0
M  V30 12 C -1.444448 1.052621 0.518225 0
M  V30 13 C -1.999370 1.836490 1.658491 0
M  V30 14 O -1.287912 1.857650 2.816279 0
M  V30 15 C -1.311219 -0.407640 0.813206 0
M  V30 16 C -2.014737 -1.048602 -0.333693 0
M  V30 17 C -1.860231 -2.236772 -0.894579 0
M  V30 18 C -2.618635 -2.771331 -2.039611 0
M  V30 19 C -2.881396 -2.033084 -3.170891 0
M  V30 20 C -3.618050 -2.693145 -4.129353 0
M  V30 21 C -4.092524 -3.982057 -4.046374 0
M  V30 22 N -4.850110 -4.615055 -5.067148 0 CHG=1 VAL=4
M  V30 23 O -5.113987 -3.991875 -6.110548 0
M  V30 24 O -5.254816 -5.916132 -4.829245 0 CHG=-1 VAL=1
M  V30 25 C -3.773753 -4.639709 -2.868561 0
M  V30 26 C -3.031064 -4.070472 -1.824604 0
M  V30 27 C -3.016009 -0.075163 -0.757104 0
M  V30 28 O -4.140139 -0.462173 -1.224472 0
M  V30 29 O -2.445444 1.193209 -0.524697 0
M  V30 30 H 1.816835 -2.247841 4.668830 0
M  V30 31 H 1.398579 -1.066030 5.961624 0
M  V30 32 H 3.119853 -1.589208 5.687148 0
M  V30 33 H 1.620726 -0.428805 3.352616 0
M  V30 34 H 2.155275 0.722077 4.719005 0
M  V30 35 H 4.405945 -0.013573 4.599527 0
M  V30 36 H 4.049839 -1.230213 3.384780 0
M  V30 37 H 3.921800 1.836039 3.171224 0
M  V30 38 H 5.197525 0.833418 2.484324 0
M  V30 39 H 3.934536 1.550434 0.720686 0
M  V30 40 H 3.030178 -1.340120 1.164168 0
M  V30 41 H 4.469278 -0.623073 0.262615 0
M  V30 42 H 2.491373 0.738779 -0.954777 0
M  V30 43 H 1.616153 -0.783960 -0.574102 0
M  V30 44 H 3.100556 -0.814649 -1.520445 0
M  V30 45 H -0.265314 2.602537 -0.443020 0
M  V30 46 H 0.035285 0.969435 -0.995695 0
M  V30 47 H -3.029093 1.441233 1.890992 0
M  V30 48 H -2.188042 2.914009 1.365701 0
M  V30 49 H -1.210724 2.701814 3.292105 0
M  V30 50 H -0.257083 -0.738140 0.896077 0
M  V30 51 H -1.850429 -0.605747 1.771443 0
M  V30 52 H -1.076464 -2.860206 -0.430717 0
M  V30 53 H -2.526367 -1.020886 -3.294043 0
M  V30 54 H -3.856185 -2.156332 -5.048797 0
M  V30 55 H -4.129551 -5.658875 -2.763651 0
M  V30 56 H -2.828088 -4.654613 -0.938880 0
M  V30 END ATOM
M  V30 BEGIN BOND
M  V30 1 1 1 2
M  V30 2 1 2 3
M  V30 3 1 3 4
M  V30 4 1 4 5
M  V30 5 1 5 6
M  V30 6 1 6 7
M  V30 7 1 5 8
M  V30 8 2 8 9
M  V30 9 1 8 10
M  V30 10 1 10 11
M  V30 11 1 11 12
M  V30 12 1 12 13
M  V30 13 1 13 14
M  V30 14 1 12 15
M  V30 15 1 15 16
M  V30 16 2 16 17
M  V30 17 1 17 18
M  V30 18 2 18 19
M  V30 19 1 19 20
M  V30 20 2 20 21
M  V30 21 1 21 22
M  V30 22 2 22 23
M  V30 23 1 22 24
M  V30 24 1 21 25
M  V30 25 2 25 26
M  V30 26 1 16 27
M  V30 27 2 27 28
M  V30 28 1 27 29
M  V30 29 1 29 12
M  V30 30 1 26 18
M  V30 31 1 1 30
M  V30 32 1 1 31
M  V30 33 1 1 32
M  V30 34 1 2 33
M  V30 35 1 2 34
M  V30 36 1 3 35
M  V30 37 1 3 36
M  V30 38 1 4 37
M  V30 39 1 4 38
M  V30 40 1 5 39
M  V30 41 1 6 40
M  V30 42 1 6 41
M  V30 43 1 7 42
M  V30 44 1 7 43
M  V30 45 1 7 44
M  V30 46 1 11 45
M  V30 47 1 11 46
M  V30 48 1 13 47
M  V30 49 1 13 48
M  V30 50 1 14 49
M  V30 51 1 15 50
M  V30 52 1 15 51
M  V30 53 1 17 52
M  V30 54 1 19 53
M  V30 55 1 20 54
M  V30 56 1 25 55
M  V30 57 1 26 56
M  V30 END BOND
M  V30 END CTAB
M  END
>  <Dataset>  (112) 
ChEMBL_Kinases

>  <Ligand_Instance>  (112) 
nan

>  <PDB_ID>  (112) 
nan

>  <Standardized_SMILES>  (112) 
CCCCC(CC)C(=O)OCC1(CO)C/C(=C/c2ccc([N+](=O)[O-])cc2)C(=O)O1

>  <Name>  (112) 
nan

>  <Pocket>  (112) 
nan

>  <ATP_Site>  (112) 
nan

>  <Peripheral>  (112) 
nan

>  <Num_H_Atoms_ProtBoundConf>  (112) 
nan

>  <Num_Resolved_Atoms>  (112) 
nan

>  <Num_Not_Resolved_Atoms>  (112) 
nan

$$$$
CHEMBL603694
     RDKit          3D

  0  0  0  0  0  0  0  0  0  0999 V3000
M  V30 BEGIN CTAB
M  V30 COUNTS 50 54 0 0 0
M  V30 BEGIN ATOM
M  V30 1 N -0.118379 2.446205 -1.301399 0
M  V30 2 C -0.277073 1.039427 -1.178322 0
M  V30 3 N -1.102852 0.330929 -0.381298 0
M  V30 4 N -0.911803 -0.959023 -0.599958 0
M  V30 5 C -1.614005 -2.007991 0.067503 0
M  V30 6 C -1.142006 -3.321226 -0.016155 0
M  V30 7 C -1.784374 -4.371459 0.611138 0
M  V30 8 C -2.925888 -4.107483 1.340430 0
M  V30 9 C -3.408730 -2.800760 1.432556 0
M  V30 10 C -4.622761 -2.631959 2.228567 0
M  V30 11 C -5.587408 -3.602762 2.314231 0
M  V30 12 C -6.704324 -3.363924 3.087746 0
M  V30 13 C -6.813754 -2.148634 3.753195 0
M  V30 14 C -5.853802 -1.156563 3.680816 0
M  V30 15 O -5.995427 0.050477 4.361071 0
M  V30 16 C -4.741635 -1.427729 2.894135 0
M  V30 17 C -2.757232 -1.757823 0.800323 0
M  V30 18 C 0.023127 -1.129723 -1.525256 0
M  V30 19 C 0.452449 0.134201 -1.918506 0
M  V30 20 C 1.493968 0.376633 -2.938872 0
M  V30 21 C 1.497461 -0.318323 -4.130157 0
M  V30 22 C 2.508445 -0.025151 -5.021141 0
M  V30 23 C 3.482532 0.914671 -4.757223 0
M  V30 24 C 3.480389 1.606234 -3.573594 0
M  V30 25 C 2.474242 1.332682 -2.655834 0
M  V30 26 C 4.451177 2.651360 -3.126064 0
M  V30 27 C 5.347962 3.113661 -4.224629 0
M  V30 28 N 5.481689 2.192191 -5.325131 0
M  V30 29 C 4.549982 1.206993 -5.725867 0
M  V30 30 O 4.602873 0.602387 -6.830778 0
M  V30 31 H -0.848747 2.819054 -1.973599 0
M  V30 32 H 0.549730 3.154716 -0.876285 0
M  V30 33 H -0.257768 -3.462919 -0.592329 0
M  V30 34 H -1.318864 -5.341303 0.469773 0
M  V30 35 H -3.393871 -4.955623 1.812562 0
M  V30 36 H -5.455330 -4.528537 1.778566 0
M  V30 37 H -7.494147 -4.105541 3.184424 0
M  V30 38 H -7.717746 -2.003308 4.355508 0
M  V30 39 H -5.650438 0.893993 3.901869 0
M  V30 40 H -3.982187 -0.648928 2.833898 0
M  V30 41 H -3.157550 -0.769629 0.893705 0
M  V30 42 H 0.415041 -2.053396 -1.933266 0
M  V30 43 H 0.757180 -1.047272 -4.355832 0
M  V30 44 H 2.601712 -0.514506 -5.985244 0
M  V30 45 H 2.406126 1.846768 -1.684729 0
M  V30 46 H 5.058240 2.268635 -2.286129 0
M  V30 47 H 3.922950 3.542557 -2.724857 0
M  V30 48 H 5.037809 4.122817 -4.625792 0
M  V30 49 H 6.358868 3.307882 -3.791328 0
M  V30 50 H 6.368841 2.260765 -5.890954 0
M  V30 END ATOM
M  V30 BEGIN BOND
M  V30 1 1 1 2
M  V30 2 2 2 3
M  V30 3 1 3 4
M  V30 4 1 4 5
M  V30 5 2 5 6
M  V30 6 1 6 7
M  V30 7 2 7 8
M  V30 8 1 8 9
M  V30 9 1 9 10
M  V30 10 2 10 11
M  V30 11 1 11 12
M  V30 12 2 12 13
M  V30 13 1 13 14
M  V30 14 1 14 15
M  V30 15 2 14 16
M  V30 16 2 9 17
M  V30 17 1 4 18
M  V30 18 2 18 19
M  V30 19 1 19 20
M  V30 20 2 20 21
M  V30 21 1 21 22
M  V30 22 2 22 23
M  V30 23 1 23 24
M  V30 24 2 24 25
M  V30 25 1 24 26
M  V30 26 1 26 27
M  V30 27 1 27 28
M  V30 28 1 28 29
M  V30 29 2 29 30
M  V30 30 1 19 2
M  V30 31 1 25 20
M  V30 32 1 17 5
M  V30 33 1 29 23
M  V30 34 1 16 10
M  V30 35 1 1 31
M  V30 36 1 1 32
M  V30 37 1 6 33
M  V30 38 1 7 34
M  V30 39 1 8 35
M  V30 40 1 11 36
M  V30 41 1 12 37
M  V30 42 1 13 38
M  V30 43 1 15 39
M  V30 44 1 16 40
M  V30 45 1 17 41
M  V30 46 1 18 42
M  V30 47 1 21 43
M  V30 48 1 22 44
M  V30 49 1 25 45
M  V30 50 1 26 46
M  V30 51 1 26 47
M  V30 52 1 27 48
M  V30 53 1 27 49
M  V30 54 1 28 50
M  V30 END BOND
M  V30 END CTAB
M  END
>  <Dataset>  (113) 
ChEMBL_Kinases

>  <Ligand_Instance>  (113) 
nan

>  <PDB_ID>  (113) 
nan

>  <Standardized_SMILES>  (113) 
Nc1nn(-c2cccc(-c3cccc(O)c3)c2)cc1-c1ccc2c(c1)CCNC2=O

>  <Name>  (113) 
nan

>  <Pocket>  (113) 
nan

>  <ATP_Site>  (113) 
nan

>  <Peripheral>  (113) 
nan

>  <Num_H_Atoms_ProtBoundConf>  (113) 
nan

>  <Num_Resolved_Atoms>  (113) 
nan

>  <Num_Not_Resolved_Atoms>  (113) 
nan

$$$$
CHEMBL3896115
     RDKit          3D

  0  0  0  0  0  0  0  0  0  0999 V3000
M  V30 BEGIN CTAB
M  V30 COUNTS 28 30 0 0 0
M  V30 BEGIN ATOM
M  V30 1 N -0.061361 -3.772016 2.602334 0
M  V30 2 C 0.219001 -3.363882 1.555606 0
M  V30 3 C 0.559720 -2.882370 0.253494 0
M  V30 4 C 0.858819 -3.729121 -0.817189 0
M  V30 5 N 1.124027 -2.953995 -1.909102 0
M  V30 6 C 1.008582 -1.634546 -1.588387 0
M  V30 7 N 1.144653 -0.489549 -2.251778 0
M  V30 8 C 0.954168 0.723623 -1.665438 0
M  V30 9 N 1.105197 1.934176 -2.396853 0
M  V30 10 C 0.610000 0.718173 -0.336538 0
M  V30 11 C 0.449838 -0.449261 0.424902 0
M  V30 12 C 0.116979 -0.228133 1.823024 0
M  V30 13 C -1.033145 0.561551 1.957741 0
M  V30 14 C -1.551737 0.933167 3.180047 0
M  V30 15 C -0.929467 0.522429 4.340116 0
M  V30 16 C 0.202419 -0.254312 4.213664 0
M  V30 17 C 0.722651 -0.626735 2.993901 0
M  V30 18 C 0.664047 -1.620155 -0.262582 0
M  V30 19 H 0.877967 -4.810053 -0.789822 0
M  V30 20 H 1.381016 -3.289387 -2.865790 0
M  V30 21 H 2.088810 1.984897 -2.718266 0
M  V30 22 H 0.144644 2.389637 -2.369355 0
M  V30 23 H 0.466071 1.697505 0.098650 0
M  V30 24 H -1.629363 0.958775 1.121090 0
M  V30 25 H -2.432798 1.538372 3.304384 0
M  V30 26 H -1.255499 0.758991 5.346184 0
M  V30 27 H 0.797561 -0.650768 5.044755 0
M  V30 28 H 1.602804 -1.219998 2.813820 0
M  V30 END ATOM
M  V30 BEGIN BOND
M  V30 1 3 1 2
M  V30 2 1 2 3
M  V30 3 2 3 4
M  V30 4 1 4 5
M  V30 5 1 5 6
M  V30 6 2 6 7
M  V30 7 1 7 8
M  V30 8 1 8 9
M  V30 9 2 8 10
M  V30 10 1 10 11
M  V30 11 1 11 12
M  V30 12 2 12 13
M  V30 13 1 13 14
M  V30 14 2 14 15
M  V30 15 1 15 16
M  V30 16 2 16 17
M  V30 17 2 11 18
M  V30 18 1 18 3
M  V30 19 1 18 6
M  V30 20 1 17 12
M  V30 21 1 4 19
M  V30 22 1 5 20
M  V30 23 1 9 21
M  V30 24 1 9 22
M  V30 25 1 10 23
M  V30 26 1 13 24
M  V30 27 1 14 25
M  V30 28 1 15 26
M  V30 29 1 16 27
M  V30 30 1 17 28
M  V30 END BOND
M  V30 END CTAB
M  END
>  <Dataset>  (114) 
ChEMBL_Kinases

>  <Ligand_Instance>  (114) 
nan

>  <PDB_ID>  (114) 
nan

>  <Standardized_SMILES>  (114) 
N#Cc1c[nH]c2nc(N)cc(-c3ccccc3)c12

>  <Name>  (114) 
nan

>  <Pocket>  (114) 
nan

>  <ATP_Site>  (114) 
nan

>  <Peripheral>  (114) 
nan

>  <Num_H_Atoms_ProtBoundConf>  (114) 
nan

>  <Num_Resolved_Atoms>  (114) 
nan

>  <Num_Not_Resolved_Atoms>  (114) 
nan

$$$$
CHEMBL389604
     RDKit          3D

  0  0  0  0  0  0  0  0  0  0999 V3000
M  V30 BEGIN CTAB
M  V30 COUNTS 37 40 0 0 0
M  V30 BEGIN ATOM
M  V30 1 N -0.380369 -6.610609 2.885296 0
M  V30 2 C 0.263777 -5.679969 2.582727 0
M  V30 3 C 1.042811 -4.537512 2.209440 0
M  V30 4 C 2.364815 -4.368203 2.534113 0
M  V30 5 N 2.693181 -3.182530 1.995962 0
M  V30 6 N 1.677656 -2.624744 1.374153 0
M  V30 7 C 1.609422 -1.433348 0.707604 0
M  V30 8 N 2.749963 -0.592867 0.621371 0
M  V30 9 C 2.855634 0.659301 -0.030946 0
M  V30 10 C 1.885469 1.280722 -0.782274 0
M  V30 11 C 2.053281 2.506869 -1.383080 0
M  V30 12 C 3.253736 3.153697 -1.229017 0
M  V30 13 C 4.264680 2.594148 -0.494550 0
M  V30 14 C 4.052640 1.368334 0.087070 0
M  V30 15 N 0.409222 -1.164329 0.182916 0
M  V30 16 C -0.687477 -1.924836 0.249155 0
M  V30 17 N -1.895758 -1.489793 -0.370017 0
M  V30 18 C -2.810422 -0.649880 0.329978 0
M  V30 19 C -4.011513 -0.236191 -0.225404 0
M  V30 20 C -4.907570 0.582476 0.436169 0
M  V30 21 C -4.505379 0.956517 1.703107 0
M  V30 22 N -3.345560 0.573336 2.273856 0
M  V30 23 C -2.471956 -0.228785 1.620793 0
M  V30 24 N -0.555634 -3.083811 0.918742 0
M  V30 25 C 0.633508 -3.437979 1.485363 0
M  V30 26 H 3.013823 -5.022723 3.092685 0
M  V30 27 H 3.616192 -0.949342 1.100031 0
M  V30 28 H 0.948839 0.799126 -0.918244 0
M  V30 29 H 1.230300 2.938927 -1.967943 0
M  V30 30 H 3.336543 4.122890 -1.724327 0
M  V30 31 H 5.207192 3.111026 -0.377187 0
M  V30 32 H 4.900393 0.970547 0.663299 0
M  V30 33 H -2.136980 -1.774153 -1.341239 0
M  V30 34 H -4.260288 -0.573431 -1.231960 0
M  V30 35 H -5.848362 0.921789 0.033502 0
M  V30 36 H -5.099012 1.598697 2.349264 0
M  V30 37 H -1.549152 -0.529790 2.082563 0
M  V30 END ATOM
M  V30 BEGIN BOND
M  V30 1 3 1 2
M  V30 2 1 2 3
M  V30 3 1 3 4
M  V30 4 2 4 5
M  V30 5 1 5 6
M  V30 6 1 6 7
M  V30 7 1 7 8
M  V30 8 1 8 9
M  V30 9 2 9 10
M  V30 10 1 10 11
M  V30 11 2 11 12
M  V30 12 1 12 13
M  V30 13 2 13 14
M  V30 14 2 7 15
M  V30 15 1 15 16
M  V30 16 1 16 17
M  V30 17 1 17 18
M  V30 18 2 18 19
M  V30 19 1 19 20
M  V30 20 2 20 21
M  V30 21 1 21 22
M  V30 22 2 22 23
M  V30 23 2 16 24
M  V30 24 1 24 25
M  V30 25 2 25 3
M  V30 26 1 25 6
M  V30 27 1 14 9
M  V30 28 1 23 18
M  V30 29 1 4 26
M  V30 30 1 8 27
M  V30 31 1 10 28
M  V30 32 1 11 29
M  V30 33 1 12 30
M  V30 34 1 13 31
M  V30 35 1 14 32
M  V30 36 1 17 33
M  V30 37 1 19 34
M  V30 38 1 20 35
M  V30 39 1 21 36
M  V30 40 1 23 37
M  V30 END BOND
M  V30 END CTAB
M  END
>  <Dataset>  (115) 
ChEMBL_Kinases

>  <Ligand_Instance>  (115) 
nan

>  <PDB_ID>  (115) 
nan

>  <Standardized_SMILES>  (115) 
N#Cc1cnn2c(Nc3ccccc3)nc(Nc3cccnc3)nc12

>  <Name>  (115) 
nan

>  <Pocket>  (115) 
nan

>  <ATP_Site>  (115) 
nan

>  <Peripheral>  (115) 
nan

>  <Num_H_Atoms_ProtBoundConf>  (115) 
nan

>  <Num_Resolved_Atoms>  (115) 
nan

>  <Num_Not_Resolved_Atoms>  (115) 
nan

$$$$
CHEMBL487841
     RDKit          3D

  0  0  0  0  0  0  0  0  0  0999 V3000
M  V30 BEGIN CTAB
M  V30 COUNTS 57 59 0 0 0
M  V30 BEGIN ATOM
M  V30 1 C 4.211715 -7.461786 2.043008 0
M  V30 2 N 3.669052 -6.346445 2.830955 0
M  V30 3 C 3.550215 -6.463578 4.271011 0
M  V30 4 C 3.262268 -5.154570 2.173243 0
M  V30 5 C 2.742405 -4.057178 2.826576 0
M  V30 6 C 2.360629 -2.918210 2.137930 0
M  V30 7 C 2.484199 -2.832427 0.766663 0
M  V30 8 C 2.108231 -1.673339 -0.043518 0
M  V30 9 O 2.235008 -1.631163 -1.288620 0
M  V30 10 O 1.587761 -0.557568 0.548986 0
M  V30 11 C 1.187422 0.629233 -0.148385 0
M  V30 12 C 0.688561 1.537398 0.979455 0
M  V30 13 C 1.810180 1.817971 1.939378 0
M  V30 14 O 1.288049 2.565963 2.985001 0
M  V30 15 C 0.008952 2.774884 0.482772 0
M  V30 16 C -1.269599 2.238222 -0.009043 0
M  V30 17 C -2.152329 2.595933 -0.891811 0
M  V30 18 C -3.412653 2.010463 -1.334761 0
M  V30 19 C -4.572745 2.988273 -1.266235 0
M  V30 20 C -5.830222 2.132353 -1.449406 0
M  V30 21 C -5.541006 0.942016 -2.361607 0
M  V30 22 C -4.548509 1.377916 -3.420031 0
M  V30 23 C -3.224185 1.739800 -2.839053 0
M  V30 24 C -1.478741 1.017513 0.758786 0
M  V30 25 O -2.449771 0.223792 0.757051 0
M  V30 26 O -0.375618 0.813852 1.569870 0
M  V30 27 C 3.004618 -3.925642 0.093888 0
M  V30 28 C 3.378545 -5.050970 0.802615 0
M  V30 29 H 3.344240 -7.827543 1.424737 0
M  V30 30 H 5.047451 -7.133644 1.404551 0
M  V30 31 H 4.485110 -8.289732 2.697369 0
M  V30 32 H 4.443386 -6.058211 4.788447 0
M  V30 33 H 3.444350 -7.564634 4.489904 0
M  V30 34 H 2.595843 -6.002767 4.576902 0
M  V30 35 H 2.629445 -4.081918 3.891747 0
M  V30 36 H 1.950586 -2.049877 2.643328 0
M  V30 37 H 0.408650 0.448737 -0.885554 0
M  V30 38 H 2.074268 1.044572 -0.662880 0
M  V30 39 H 2.209811 0.856687 2.272671 0
M  V30 40 H 2.579410 2.381011 1.387375 0
M  V30 41 H 0.782871 1.996021 3.596307 0
M  V30 42 H -0.142032 3.430885 1.343139 0
M  V30 43 H 0.578382 3.325653 -0.284953 0
M  V30 44 H -1.922652 3.531544 -1.429175 0
M  V30 45 H -3.725316 1.066707 -0.914558 0
M  V30 46 H -4.550148 3.681462 -2.131756 0
M  V30 47 H -4.599937 3.541114 -0.314918 0
M  V30 48 H -6.643136 2.716424 -1.909555 0
M  V30 49 H -6.086312 1.765262 -0.440686 0
M  V30 50 H -6.490130 0.698376 -2.918814 0
M  V30 51 H -5.242991 0.045787 -1.816978 0
M  V30 52 H -4.444592 0.639111 -4.216582 0
M  V30 53 H -5.008159 2.296670 -3.884060 0
M  V30 54 H -2.521829 0.897490 -2.922619 0
M  V30 55 H -2.781169 2.656777 -3.310665 0
M  V30 56 H 3.138258 -3.949557 -0.979824 0
M  V30 57 H 3.785925 -5.908867 0.283469 0
M  V30 END ATOM
M  V30 BEGIN BOND
M  V30 1 1 1 2
M  V30 2 1 2 3
M  V30 3 1 2 4
M  V30 4 2 4 5
M  V30 5 1 5 6
M  V30 6 2 6 7
M  V30 7 1 7 8
M  V30 8 2 8 9
M  V30 9 1 8 10
M  V30 10 1 10 11
M  V30 11 1 11 12
M  V30 12 1 12 13
M  V30 13 1 13 14
M  V30 14 1 12 15
M  V30 15 1 15 16
M  V30 16 2 16 17
M  V30 17 1 17 18
M  V30 18 1 18 19
M  V30 19 1 19 20
M  V30 20 1 20 21
M  V30 21 1 21 22
M  V30 22 1 22 23
M  V30 23 1 16 24
M  V30 24 2 24 25
M  V30 25 1 24 26
M  V30 26 1 7 27
M  V30 27 2 27 28
M  V30 28 1 28 4
M  V30 29 1 26 12
M  V30 30 1 23 18
M  V30 31 1 1 29
M  V30 32 1 1 30
M  V30 33 1 1 31
M  V30 34 1 3 32
M  V30 35 1 3 33
M  V30 36 1 3 34
M  V30 37 1 5 35
M  V30 38 1 6 36
M  V30 39 1 11 37
M  V30 40 1 11 38
M  V30 41 1 13 39
M  V30 42 1 13 40
M  V30 43 1 14 41
M  V30 44 1 15 42
M  V30 45 1 15 43
M  V30 46 1 17 44
M  V30 47 1 18 45
M  V30 48 1 19 46
M  V30 49 1 19 47
M  V30 50 1 20 48
M  V30 51 1 20 49
M  V30 52 1 21 50
M  V30 53 1 21 51
M  V30 54 1 22 52
M  V30 55 1 22 53
M  V30 56 1 23 54
M  V30 57 1 23 55
M  V30 58 1 27 56
M  V30 59 1 28 57
M  V30 END BOND
M  V30 END CTAB
M  END
>  <Dataset>  (116) 
ChEMBL_Kinases

>  <Ligand_Instance>  (116) 
nan

>  <PDB_ID>  (116) 
nan

>  <Standardized_SMILES>  (116) 
CN(C)c1ccc(C(=O)OCC2(CO)C/C(=C/C3CCCCC3)C(=O)O2)cc1

>  <Name>  (116) 
nan

>  <Pocket>  (116) 
nan

>  <ATP_Site>  (116) 
nan

>  <Peripheral>  (116) 
nan

>  <Num_H_Atoms_ProtBoundConf>  (116) 
nan

>  <Num_Resolved_Atoms>  (116) 
nan

>  <Num_Not_Resolved_Atoms>  (116) 
nan

$$$$
CHEMBL3895703
     RDKit          3D

  0  0  0  0  0  0  0  0  0  0999 V3000
M  V30 BEGIN CTAB
M  V30 COUNTS 44 47 0 0 0
M  V30 BEGIN ATOM
M  V30 1 C 3.193046 -6.377569 0.230448 0
M  V30 2 N 2.800420 -5.006446 -0.081205 0
M  V30 3 C 1.493624 -4.594895 0.344563 0
M  V30 4 N 0.573671 -5.350543 1.007875 0
M  V30 5 N -0.526445 -4.674578 1.246263 0
M  V30 6 C -0.334667 -3.441848 0.730945 0
M  V30 7 C -1.222766 -2.361235 0.734310 0
M  V30 8 C -0.786324 -1.179685 0.128856 0
M  V30 9 C 0.457106 -1.124803 -0.428519 0
M  V30 10 C 0.804888 0.160580 -1.025859 0
M  V30 11 O 1.059516 0.664903 -2.138948 0
M  V30 12 N 0.961485 1.387418 -0.296622 0
M  V30 13 C 1.319643 2.583813 -1.026740 0
M  V30 14 C 2.018255 3.486369 -0.035331 0
M  V30 15 C 1.523537 3.020510 1.299606 0
M  V30 16 C 0.838898 1.688141 1.109533 0 CFG=1
M  V30 17 C -0.544802 1.851629 1.586390 0
M  V30 18 C -0.945733 1.206277 2.735286 0
M  V30 19 C -2.196842 1.256052 3.323766 0
M  V30 20 C -3.142194 2.029350 2.701502 0
M  V30 21 Cl -4.758641 2.154647 3.376699 0
M  V30 22 C -2.811257 2.717025 1.528123 0
M  V30 23 C -1.523353 2.617821 0.991202 0
M  V30 24 C 1.351459 -2.166476 -0.447349 0
M  V30 25 C 0.920389 -3.338356 0.152269 0
M  V30 26 H 2.353523 -7.061984 -0.077498 0
M  V30 27 H 4.132142 -6.685278 -0.265724 0
M  V30 28 H 3.300235 -6.503071 1.347853 0
M  V30 29 H 3.381867 -4.310009 -0.584344 0
M  V30 30 H -1.375213 -5.027553 1.739213 0
M  V30 31 H -2.191183 -2.476640 1.197366 0
M  V30 32 H -1.541466 -0.411737 0.176737 0
M  V30 33 H 2.050446 2.349075 -1.849767 0
M  V30 34 H 0.467200 3.047489 -1.536515 0
M  V30 35 H 1.777206 4.555411 -0.165003 0
M  V30 36 H 3.133613 3.363729 -0.130497 0
M  V30 37 H 2.357902 2.921181 2.041935 0
M  V30 38 H 0.841329 3.788603 1.773624 0
M  V30 39 H 1.356411 0.930927 1.706283 0
M  V30 40 H -0.234127 0.580889 3.268828 0
M  V30 41 H -2.424913 0.707285 4.235054 0
M  V30 42 H -3.563511 3.318430 1.048059 0
M  V30 43 H -1.268350 3.147933 0.089100 0
M  V30 44 H 2.321859 -2.113602 -0.884178 0
M  V30 END ATOM
M  V30 BEGIN BOND
M  V30 1 1 1 2
M  V30 2 1 2 3
M  V30 3 2 3 4
M  V30 4 1 4 5
M  V30 5 1 5 6
M  V30 6 2 6 7
M  V30 7 1 7 8
M  V30 8 2 8 9
M  V30 9 1 9 10
M  V30 10 2 10 11
M  V30 11 1 10 12
M  V30 12 1 12 13
M  V30 13 1 13 14
M  V30 14 1 14 15
M  V30 15 1 15 16
M  V30 16 1 16 17
M  V30 17 2 17 18
M  V30 18 1 18 19
M  V30 19 2 19 20
M  V30 20 1 20 21
M  V30 21 1 20 22
M  V30 22 2 22 23
M  V30 23 1 9 24
M  V30 24 2 24 25
M  V30 25 1 25 3
M  V30 26 1 25 6
M  V30 27 1 16 12
M  V30 28 1 23 17
M  V30 29 1 1 26
M  V30 30 1 1 27
M  V30 31 1 1 28
M  V30 32 1 2 29
M  V30 33 1 5 30
M  V30 34 1 7 31
M  V30 35 1 8 32
M  V30 36 1 13 33
M  V30 37 1 13 34
M  V30 38 1 14 35
M  V30 39 1 14 36
M  V30 40 1 15 37
M  V30 41 1 15 38
M  V30 42 1 16 39 CFG=1
M  V30 43 1 18 40
M  V30 44 1 19 41
M  V30 45 1 22 42
M  V30 46 1 23 43
M  V30 47 1 24 44
M  V30 END BOND
M  V30 END CTAB
M  END
>  <Dataset>  (117) 
ChEMBL_Kinases

>  <Ligand_Instance>  (117) 
nan

>  <PDB_ID>  (117) 
nan

>  <Standardized_SMILES>  (117) 
CNc1n[nH]c2ccc(C(=O)N3CCC[C@H]3c3ccc(Cl)cc3)cc12

>  <Name>  (117) 
nan

>  <Pocket>  (117) 
nan

>  <ATP_Site>  (117) 
nan

>  <Peripheral>  (117) 
nan

>  <Num_H_Atoms_ProtBoundConf>  (117) 
nan

>  <Num_Resolved_Atoms>  (117) 
nan

>  <Num_Not_Resolved_Atoms>  (117) 
nan

$$$$
CHEMBL3895613
     RDKit          3D

  0  0  0  0  0  0  0  0  0  0999 V3000
M  V30 BEGIN CTAB
M  V30 COUNTS 56 58 0 0 0
M  V30 BEGIN ATOM
M  V30 1 C 7.765601 -2.092521 4.672994 0
M  V30 2 N 6.998285 -1.293447 3.713707 0
M  V30 3 C 5.629891 -1.612327 3.649587 0
M  V30 4 O 5.229119 -2.530276 4.409358 0
M  V30 5 C 4.668317 -0.953786 2.771177 0
M  V30 6 C 3.353623 -1.369850 2.811535 0
M  V30 7 C 2.403344 -0.760850 1.982866 0
M  V30 8 C 2.782721 0.268884 1.113442 0
M  V30 9 O 1.722883 0.732890 0.392133 0
M  V30 10 C 1.695829 1.739689 -0.564785 0
M  V30 11 C 0.828962 2.924692 -0.221230 0
M  V30 12 C -0.648874 2.622379 -0.235772 0
M  V30 13 C -1.076005 1.819549 -1.417254 0
M  V30 14 N -1.498844 0.506165 -0.983555 0
M  V30 15 C -2.815386 0.066422 -1.211520 0
M  V30 16 O -3.682267 0.753782 -1.784182 0
M  V30 17 N -3.066054 -1.256347 -0.719023 0
M  V30 18 C -4.268532 -2.014804 -0.773128 0
M  V30 19 C -5.109237 -1.832473 0.330006 0
M  V30 20 C -6.323941 -2.505601 0.424529 0
M  V30 21 C -6.646859 -3.346588 -0.610197 0
M  V30 22 O -7.839611 -4.089040 -0.647784 0
M  V30 23 C -7.764513 -5.381481 -0.055523 0
M  V30 24 F -6.824262 -6.184068 -0.670143 0
M  V30 25 F -7.345839 -5.167875 1.246753 0
M  V30 26 F -8.952288 -6.045366 -0.096905 0
M  V30 27 C -5.854405 -3.551484 -1.702909 0
M  V30 28 C -4.641397 -2.872990 -1.787204 0
M  V30 29 C 0.029684 1.774107 -2.425130 0
M  V30 30 C 1.288738 1.137354 -1.881472 0
M  V30 31 C 4.106243 0.657744 1.101100 0
M  V30 32 C 5.045662 0.060243 1.916026 0
M  V30 33 H 7.467078 -1.904342 5.716220 0
M  V30 34 H 7.639401 -3.167694 4.391489 0
M  V30 35 H 8.831953 -1.862147 4.469599 0
M  V30 36 H 7.375417 -0.537908 3.100922 0
M  V30 37 H 3.058207 -2.171799 3.488704 0
M  V30 38 H 1.390673 -1.161985 2.090036 0
M  V30 39 H 2.729585 2.144377 -0.669023 0
M  V30 40 H 1.087381 3.736027 -0.933868 0
M  V30 41 H 1.147531 3.277577 0.776693 0
M  V30 42 H -0.842342 2.053577 0.714814 0
M  V30 43 H -1.164581 3.604668 -0.217482 0
M  V30 44 H -1.930033 2.327268 -1.905836 0
M  V30 45 H -0.754783 -0.049997 -0.506751 0
M  V30 46 H -2.356512 -1.856840 -0.233699 0
M  V30 47 H -4.869846 -1.166186 1.165719 0
M  V30 48 H -7.001981 -2.393843 1.257870 0
M  V30 49 H -6.097549 -4.214467 -2.529623 0
M  V30 50 H -3.945373 -2.972650 -2.618370 0
M  V30 51 H -0.217566 1.330755 -3.388674 0
M  V30 52 H 0.310242 2.837877 -2.633731 0
M  V30 53 H 1.106008 0.034402 -1.795007 0
M  V30 54 H 2.094441 1.248262 -2.635768 0
M  V30 55 H 4.313839 1.450014 0.409413 0
M  V30 56 H 6.061725 0.406461 1.861703 0
M  V30 END ATOM
M  V30 BEGIN BOND
M  V30 1 1 1 2
M  V30 2 1 2 3
M  V30 3 2 3 4
M  V30 4 1 3 5
M  V30 5 2 5 6
M  V30 6 1 6 7
M  V30 7 2 7 8
M  V30 8 1 8 9
M  V30 9 1 9 10
M  V30 10 1 10 11
M  V30 11 1 11 12
M  V30 12 1 12 13
M  V30 13 1 13 14
M  V30 14 1 14 15
M  V30 15 2 15 16
M  V30 16 1 15 17
M  V30 17 1 17 18
M  V30 18 2 18 19
M  V30 19 1 19 20
M  V30 20 2 20 21
M  V30 21 1 21 22
M  V30 22 1 22 23
M  V30 23 1 23 24
M  V30 24 1 23 25
M  V30 25 1 23 26
M  V30 26 1 21 27
M  V30 27 2 27 28
M  V30 28 1 13 29
M  V30 29 1 29 30
M  V30 30 1 8 31
M  V30 31 2 31 32
M  V30 32 1 32 5
M  V30 33 1 30 10
M  V30 34 1 28 18
M  V30 35 1 1 33
M  V30 36 1 1 34
M  V30 37 1 1 35
M  V30 38 1 2 36
M  V30 39 1 6 37
M  V30 40 1 7 38
M  V30 41 1 10 39
M  V30 42 1 11 40
M  V30 43 1 11 41
M  V30 44 1 12 42
M  V30 45 1 12 43
M  V30 46 1 13 44
M  V30 47 1 14 45
M  V30 48 1 17 46
M  V30 49 1 19 47
M  V30 50 1 20 48
M  V30 51 1 27 49
M  V30 52 1 28 50
M  V30 53 1 29 51
M  V30 54 1 29 52
M  V30 55 1 30 53
M  V30 56 1 30 54
M  V30 57 1 31 55
M  V30 58 1 32 56
M  V30 END BOND
M  V30 END CTAB
M  END
>  <Dataset>  (118) 
ChEMBL_Kinases

>  <Ligand_Instance>  (118) 
nan

>  <PDB_ID>  (118) 
nan

>  <Standardized_SMILES>  (118) 
CNC(=O)c1ccc(OC2CCC(NC(=O)Nc3ccc(OC(F)(F)F)cc3)CC2)cc1

>  <Name>  (118) 
nan

>  <Pocket>  (118) 
nan

>  <ATP_Site>  (118) 
nan

>  <Peripheral>  (118) 
nan

>  <Num_H_Atoms_ProtBoundConf>  (118) 
nan

>  <Num_Resolved_Atoms>  (118) 
nan

>  <Num_Not_Resolved_Atoms>  (118) 
nan

$$$$
CHEMBL389560
     RDKit          3D

  0  0  0  0  0  0  0  0  0  0999 V3000
M  V30 BEGIN CTAB
M  V30 COUNTS 41 44 0 0 0
M  V30 BEGIN ATOM
M  V30 1 C 4.663820 -6.173438 0.647731 0
M  V30 2 C 3.934627 -5.013767 0.050439 0
M  V30 3 O 4.157233 -4.720197 -1.170377 0
M  V30 4 C 3.007805 -4.276934 0.888795 0
M  V30 5 C 2.785066 -4.624672 2.225654 0
M  V30 6 C 1.893315 -3.879618 2.954505 0
M  V30 7 C 1.234360 -2.825507 2.403853 0
M  V30 8 C 1.425965 -2.442215 1.071729 0
M  V30 9 C 0.729857 -1.313764 0.457188 0
M  V30 10 C 0.427321 -1.343569 -0.908845 0
M  V30 11 C -0.232560 -0.290294 -1.525950 0
M  V30 12 C -0.605321 0.817047 -0.792232 0
M  V30 13 C -0.294790 0.827230 0.567008 0
M  V30 14 C 0.368779 -0.221599 1.209486 0
M  V30 15 N -0.584025 1.866165 1.515564 0
M  V30 16 C -1.623690 2.863168 1.449328 0
M  V30 17 C -1.994241 3.306204 2.719508 0
M  V30 18 C -2.990525 4.272831 2.818606 0
M  V30 19 C -3.573913 4.756089 1.652662 0
M  V30 20 C -3.213623 4.323906 0.395113 0
M  V30 21 C -2.220453 3.360489 0.299664 0
M  V30 22 N -1.962843 3.019151 -1.078469 0
M  V30 23 C -1.294976 1.859123 -1.560250 0
M  V30 24 O -1.267619 1.659146 -2.820550 0
M  V30 25 C 2.330613 -3.201524 0.339904 0
M  V30 26 H 5.237200 -5.887123 1.558092 0
M  V30 27 H 5.385706 -6.610355 -0.066361 0
M  V30 28 H 3.893119 -6.935121 0.934068 0
M  V30 29 H 3.330015 -5.475859 2.637021 0
M  V30 30 H 1.756697 -4.188325 3.979999 0
M  V30 31 H 0.533235 -2.255117 3.010364 0
M  V30 32 H 0.727579 -2.227387 -1.482375 0
M  V30 33 H -0.468827 -0.315093 -2.595151 0
M  V30 34 H 0.578313 -0.148607 2.266019 0
M  V30 35 H 0.011584 1.927395 2.356788 0
M  V30 36 H -1.473206 2.861449 3.570909 0
M  V30 37 H -3.263681 4.604028 3.811956 0
M  V30 38 H -4.356876 5.518910 1.776579 0
M  V30 39 H -3.665599 4.699166 -0.504002 0
M  V30 40 H -2.295530 3.681957 -1.798858 0
M  V30 41 H 2.522922 -2.949418 -0.710031 0
M  V30 END ATOM
M  V30 BEGIN BOND
M  V30 1 1 1 2
M  V30 2 2 2 3
M  V30 3 1 2 4
M  V30 4 2 4 5
M  V30 5 1 5 6
M  V30 6 2 6 7
M  V30 7 1 7 8
M  V30 8 1 8 9
M  V30 9 2 9 10
M  V30 10 1 10 11
M  V30 11 2 11 12
M  V30 12 1 12 13
M  V30 13 2 13 14
M  V30 14 1 13 15
M  V30 15 1 15 16
M  V30 16 2 16 17
M  V30 17 1 17 18
M  V30 18 2 18 19
M  V30 19 1 19 20
M  V30 20 2 20 21
M  V30 21 1 21 22
M  V30 22 1 22 23
M  V30 23 2 23 24
M  V30 24 2 8 25
M  V30 25 1 25 4
M  V30 26 1 14 9
M  V30 27 1 21 16
M  V30 28 1 23 12
M  V30 29 1 1 26
M  V30 30 1 1 27
M  V30 31 1 1 28
M  V30 32 1 5 29
M  V30 33 1 6 30
M  V30 34 1 7 31
M  V30 35 1 10 32
M  V30 36 1 11 33
M  V30 37 1 14 34
M  V30 38 1 15 35
M  V30 39 1 17 36
M  V30 40 1 18 37
M  V30 41 1 19 38
M  V30 42 1 20 39
M  V30 43 1 22 40
M  V30 44 1 25 41
M  V30 END BOND
M  V30 END CTAB
M  END
>  <Dataset>  (119) 
ChEMBL_Kinases

>  <Ligand_Instance>  (119) 
nan

>  <PDB_ID>  (119) 
nan

>  <Standardized_SMILES>  (119) 
CC(=O)c1cccc(-c2ccc3c(c2)Nc2ccccc2NC3=O)c1

>  <Name>  (119) 
nan

>  <Pocket>  (119) 
nan

>  <ATP_Site>  (119) 
nan

>  <Peripheral>  (119) 
nan

>  <Num_H_Atoms_ProtBoundConf>  (119) 
nan

>  <Num_Resolved_Atoms>  (119) 
nan

>  <Num_Not_Resolved_Atoms>  (119) 
nan

$$$$
CHEMBL389552
     RDKit          3D

  0  0  0  0  0  0  0  0  0  0999 V3000
M  V30 BEGIN CTAB
M  V30 COUNTS 37 40 0 0 0
M  V30 BEGIN ATOM
M  V30 1 N 1.828334 -2.607350 6.980917 0
M  V30 2 C 1.907590 -2.866680 5.859014 0
M  V30 3 C 2.026272 -3.194380 4.467331 0
M  V30 4 C 2.467748 -4.430262 4.050679 0
M  V30 5 C 2.634957 -4.892102 2.763429 0
M  V30 6 C 2.302009 -3.953030 1.785905 0
M  V30 7 C 1.852020 -2.693163 2.119474 0
M  V30 8 C 1.524537 -1.767558 1.030572 0
M  V30 9 C 2.263968 -1.889836 -0.131332 0
M  V30 10 C 1.965291 -1.022292 -1.165678 0
M  V30 11 C 0.969363 -0.073751 -1.041422 0
M  V30 12 C 0.230318 0.041046 0.133285 0
M  V30 13 C 0.524203 -0.825707 1.175289 0
M  V30 14 N -0.835534 0.954504 0.451125 0
M  V30 15 C -1.707443 1.632998 -0.476929 0
M  V30 16 C -2.867969 1.971647 0.185074 0
M  V30 17 C -3.831412 2.642637 -0.574515 0
M  V30 18 C -3.554786 2.908213 -1.895054 0
M  V30 19 C -2.390846 2.564024 -2.543454 0
M  V30 20 C -1.415256 1.891612 -1.798278 0
M  V30 21 N -0.261553 1.589246 -2.572802 0
M  V30 22 C 0.826765 0.730161 -2.250142 0
M  V30 23 O 1.789746 0.612010 -3.048248 0
M  V30 24 C 1.709001 -2.299294 3.436802 0
M  V30 25 H 2.722152 -5.146404 4.847031 0
M  V30 26 H 2.992939 -5.894533 2.579669 0
M  V30 27 H 2.414734 -4.262044 0.747263 0
M  V30 28 H 3.051843 -2.592731 -0.318653 0
M  V30 29 H 2.500762 -1.047176 -2.123814 0
M  V30 30 H -0.047499 -0.736958 2.082824 0
M  V30 31 H -0.950289 1.109265 1.461281 0
M  V30 32 H -3.005644 1.724179 1.228714 0
M  V30 33 H -4.760672 2.935180 -0.117384 0
M  V30 34 H -4.286826 3.433928 -2.522764 0
M  V30 35 H -2.160878 2.762685 -3.567842 0
M  V30 36 H -0.187806 2.050700 -3.505272 0
M  V30 37 H 1.357506 -1.315210 3.710876 0
M  V30 END ATOM
M  V30 BEGIN BOND
M  V30 1 3 1 2
M  V30 2 1 2 3
M  V30 3 2 3 4
M  V30 4 1 4 5
M  V30 5 2 5 6
M  V30 6 1 6 7
M  V30 7 1 7 8
M  V30 8 2 8 9
M  V30 9 1 9 10
M  V30 10 2 10 11
M  V30 11 1 11 12
M  V30 12 2 12 13
M  V30 13 1 12 14
M  V30 14 1 14 15
M  V30 15 2 15 16
M  V30 16 1 16 17
M  V30 17 2 17 18
M  V30 18 1 18 19
M  V30 19 2 19 20
M  V30 20 1 20 21
M  V30 21 1 21 22
M  V30 22 2 22 23
M  V30 23 2 7 24
M  V30 24 1 24 3
M  V30 25 1 13 8
M  V30 26 1 20 15
M  V30 27 1 22 11
M  V30 28 1 4 25
M  V30 29 1 5 26
M  V30 30 1 6 27
M  V30 31 1 9 28
M  V30 32 1 10 29
M  V30 33 1 13 30
M  V30 34 1 14 31
M  V30 35 1 16 32
M  V30 36 1 17 33
M  V30 37 1 18 34
M  V30 38 1 19 35
M  V30 39 1 21 36
M  V30 40 1 24 37
M  V30 END BOND
M  V30 END CTAB
M  END
>  <Dataset>  (120) 
ChEMBL_Kinases

>  <Ligand_Instance>  (120) 
nan

>  <PDB_ID>  (120) 
nan

>  <Standardized_SMILES>  (120) 
N#Cc1cccc(-c2ccc3c(c2)Nc2ccccc2NC3=O)c1

>  <Name>  (120) 
nan

>  <Pocket>  (120) 
nan

>  <ATP_Site>  (120) 
nan

>  <Peripheral>  (120) 
nan

>  <Num_H_Atoms_ProtBoundConf>  (120) 
nan

>  <Num_Resolved_Atoms>  (120) 
nan

>  <Num_Not_Resolved_Atoms>  (120) 
nan

$$$$
CHEMBL602316
     RDKit          3D

  0  0  0  0  0  0  0  0  0  0999 V3000
M  V30 BEGIN CTAB
M  V30 COUNTS 63 68 0 0 0
M  V30 BEGIN ATOM
M  V30 1 N 1.612066 4.480640 6.657844 0
M  V30 2 C 0.425754 3.727791 6.484724 0
M  V30 3 O -0.493749 3.766872 7.340133 0
M  V30 4 C 0.388859 2.930632 5.249477 0
M  V30 5 N 1.298291 2.795341 4.251523 0
M  V30 6 N 0.840521 1.970551 3.334232 0
M  V30 7 C 1.686643 1.729434 2.221938 0
M  V30 8 C 2.647159 0.710183 2.155881 0
M  V30 9 C 3.443353 0.546287 1.039514 0
M  V30 10 C 3.315975 1.378888 -0.039140 0
M  V30 11 F 4.083092 1.245386 -1.152874 0
M  V30 12 C 2.389825 2.408988 -0.049383 0
M  V30 13 C 1.611884 2.542975 1.082373 0
M  V30 14 C -0.374382 1.531939 3.682475 0
M  V30 15 C -0.672440 2.128465 4.887659 0
M  V30 16 C -1.925697 1.896852 5.599459 0
M  V30 17 C -2.872135 0.973949 4.940401 0
M  V30 18 C -2.474032 0.388290 3.668823 0
M  V30 19 C -3.381669 -0.471889 3.083062 0
M  V30 20 C -3.044492 -1.060245 1.859327 0
M  V30 21 C -1.842637 -0.813271 1.218895 0
M  V30 22 N -1.592567 -1.472459 -0.042385 0
M  V30 23 C -0.953027 -2.720409 0.187295 0
M  V30 24 O -0.743872 -2.985856 1.387287 0
M  V30 25 C -0.574998 -3.613500 -0.902363 0
M  V30 26 N -0.792622 -3.344379 -2.209233 0
M  V30 27 C -0.434768 -4.182977 -3.190207 0
M  V30 28 N -0.731411 -3.758243 -4.513986 0
M  V30 29 C -1.385268 -2.484289 -4.741982 0
M  V30 30 C -0.516688 -1.647684 -5.662464 0
M  V30 31 O -0.387618 -2.305481 -6.862638 0
M  V30 32 C 0.224964 -3.530598 -6.754513 0
M  V30 33 C -0.463139 -4.445072 -5.735937 0
M  V30 34 C 0.184714 -5.389864 -2.952721 0
M  V30 35 C 0.408998 -5.667679 -1.609259 0
M  V30 36 C 0.042471 -4.806167 -0.585302 0
M  V30 37 Cl 0.386331 -5.282238 1.067077 0
M  V30 38 C -0.943399 0.052806 1.821204 0
M  V30 39 C -1.295272 0.620069 3.024070 0
M  V30 40 H 2.652032 4.269265 6.720674 0
M  V30 41 H 2.464444 5.034488 6.783548 0
M  V30 42 H 2.728170 0.062724 3.025214 0
M  V30 43 H 4.179880 -0.259055 1.025970 0
M  V30 44 H 2.240297 3.094315 -0.860491 0
M  V30 45 H 0.860872 3.341133 1.132035 0
M  V30 46 H -2.370205 2.905027 5.807232 0
M  V30 47 H -1.646164 1.519891 6.626630 0
M  V30 48 H -3.179759 0.175302 5.667022 0
M  V30 49 H -3.828191 1.541271 4.757647 0
M  V30 50 H -4.350407 -0.698716 3.555066 0
M  V30 51 H -3.742978 -1.745868 1.371110 0
M  V30 52 H -1.811963 -1.159084 -1.027923 0
M  V30 53 H -1.509169 -1.914061 -3.801420 0
M  V30 54 H -2.394377 -2.619426 -5.187165 0
M  V30 55 H -1.008513 -0.685034 -5.790624 0
M  V30 56 H 0.435867 -1.496218 -5.117363 0
M  V30 57 H 0.118596 -4.041505 -7.748657 0
M  V30 58 H 1.319406 -3.489172 -6.555958 0
M  V30 59 H 0.179162 -5.340509 -5.629424 0
M  V30 60 H -1.426977 -4.809972 -6.148369 0
M  V30 61 H 0.471329 -6.062968 -3.747503 0
M  V30 62 H 0.895567 -6.607336 -1.359473 0
M  V30 63 H -0.027404 0.208901 1.282229 0
M  V30 END ATOM
M  V30 BEGIN BOND
M  V30 1 1 1 2
M  V30 2 2 2 3
M  V30 3 1 2 4
M  V30 4 2 4 5
M  V30 5 1 5 6
M  V30 6 1 6 7
M  V30 7 2 7 8
M  V30 8 1 8 9
M  V30 9 2 9 10
M  V30 10 1 10 11
M  V30 11 1 10 12
M  V30 12 2 12 13
M  V30 13 1 6 14
M  V30 14 2 14 15
M  V30 15 1 15 16
M  V30 16 1 16 17
M  V30 17 1 17 18
M  V30 18 2 18 19
M  V30 19 1 19 20
M  V30 20 2 20 21
M  V30 21 1 21 22
M  V30 22 1 22 23
M  V30 23 2 23 24
M  V30 24 1 23 25
M  V30 25 2 25 26
M  V30 26 1 26 27
M  V30 27 1 27 28
M  V30 28 1 28 29
M  V30 29 1 29 30
M  V30 30 1 30 31
M  V30 31 1 31 32
M  V30 32 1 32 33
M  V30 33 2 27 34
M  V30 34 1 34 35
M  V30 35 2 35 36
M  V30 36 1 36 37
M  V30 37 1 21 38
M  V30 38 2 38 39
M  V30 39 1 15 4
M  V30 40 1 39 18
M  V30 41 1 13 7
M  V30 42 1 39 14
M  V30 43 1 36 25
M  V30 44 1 33 28
M  V30 45 1 1 40
M  V30 46 1 1 41
M  V30 47 1 8 42
M  V30 48 1 9 43
M  V30 49 1 12 44
M  V30 50 1 13 45
M  V30 51 1 16 46
M  V30 52 1 16 47
M  V30 53 1 17 48
M  V30 54 1 17 49
M  V30 55 1 19 50
M  V30 56 1 20 51
M  V30 57 1 22 52
M  V30 58 1 29 53
M  V30 59 1 29 54
M  V30 60 1 30 55
M  V30 61 1 30 56
M  V30 62 1 32 57
M  V30 63 1 32 58
M  V30 64 1 33 59
M  V30 65 1 33 60
M  V30 66 1 34 61
M  V30 67 1 35 62
M  V30 68 1 38 63
M  V30 END BOND
M  V30 END CTAB
M  END
>  <Dataset>  (121) 
ChEMBL_Kinases

>  <Ligand_Instance>  (121) 
nan

>  <PDB_ID>  (121) 
nan

>  <Standardized_SMILES>  (121) 
NC(=O)c1nn(-c2ccc(F)cc2)c2c1CCc1ccc(NC(=O)c3nc(N4CCOCC4)ccc3Cl)cc1-2

>  <Name>  (121) 
nan

>  <Pocket>  (121) 
nan

>  <ATP_Site>  (121) 
nan

>  <Peripheral>  (121) 
nan

>  <Num_H_Atoms_ProtBoundConf>  (121) 
nan

>  <Num_Resolved_Atoms>  (121) 
nan

>  <Num_Not_Resolved_Atoms>  (121) 
nan

$$$$
CHEMBL389551
     RDKit          3D

  0  0  0  0  0  0  0  0  0  0999 V3000
M  V30 BEGIN CTAB
M  V30 COUNTS 40 43 0 0 0
M  V30 BEGIN ATOM
M  V30 1 C 1.238368 -5.960394 -2.024005 0
M  V30 2 O 2.517224 -5.355474 -1.963308 0
M  V30 3 C 2.577414 -4.035216 -1.534342 0
M  V30 4 C 3.898669 -3.574412 -1.525827 0
M  V30 5 C 4.225775 -2.285202 -1.136028 0
M  V30 6 C 3.194931 -1.453843 -0.749837 0
M  V30 7 C 1.888307 -1.895901 -0.753791 0
M  V30 8 C 0.741465 -1.079691 -0.359955 0
M  V30 9 C -0.514144 -1.265242 -0.935326 0
M  V30 10 C -1.584121 -0.475288 -0.541200 0
M  V30 11 C -1.384950 0.490800 0.423857 0
M  V30 12 C -0.153349 0.700501 1.014052 0
M  V30 13 C 0.927567 -0.095563 0.617711 0
M  V30 14 N 0.221796 1.649380 2.019764 0
M  V30 15 C -0.631786 2.344912 2.943557 0
M  V30 16 C 0.076113 2.749536 4.059018 0
M  V30 17 C -0.623104 3.434495 5.036358 0
M  V30 18 C -1.955182 3.675270 4.858380 0
M  V30 19 C -2.665948 3.268771 3.737922 0
M  V30 20 C -1.978131 2.577923 2.743876 0
M  V30 21 N -2.836667 2.227979 1.660767 0
M  V30 22 C -2.631640 1.203847 0.689447 0
M  V30 23 O -3.654697 0.902834 0.000923 0
M  V30 24 C 1.571141 -3.180815 -1.143225 0
M  V30 25 H 0.675661 -5.675287 -1.120724 0
M  V30 26 H 0.704473 -5.551264 -2.918665 0
M  V30 27 H 1.300583 -7.057143 -2.166577 0
M  V30 28 H 4.784686 -4.160893 -1.815689 0
M  V30 29 H 5.235973 -1.908256 -1.121160 0
M  V30 30 H 3.347779 -0.439905 -0.431919 0
M  V30 31 H -0.598823 -2.035095 -1.680814 0
M  V30 32 H -2.567049 -0.619629 -0.990801 0
M  V30 33 H 1.894261 0.072132 1.083996 0
M  V30 34 H 1.245621 1.856279 2.083352 0
M  V30 35 H 1.135395 2.513731 4.115364 0
M  V30 36 H -0.089039 3.757501 5.912052 0
M  V30 37 H -2.501987 4.213139 5.627201 0
M  V30 38 H -3.722571 3.455116 3.588083 0
M  V30 39 H -3.706887 2.800197 1.592090 0
M  V30 40 H 0.600353 -3.638276 -1.188747 0
M  V30 END ATOM
M  V30 BEGIN BOND
M  V30 1 1 1 2
M  V30 2 1 2 3
M  V30 3 2 3 4
M  V30 4 1 4 5
M  V30 5 2 5 6
M  V30 6 1 6 7
M  V30 7 1 7 8
M  V30 8 2 8 9
M  V30 9 1 9 10
M  V30 10 2 10 11
M  V30 11 1 11 12
M  V30 12 2 12 13
M  V30 13 1 12 14
M  V30 14 1 14 15
M  V30 15 2 15 16
M  V30 16 1 16 17
M  V30 17 2 17 18
M  V30 18 1 18 19
M  V30 19 2 19 20
M  V30 20 1 20 21
M  V30 21 1 21 22
M  V30 22 2 22 23
M  V30 23 2 7 24
M  V30 24 1 24 3
M  V30 25 1 13 8
M  V30 26 1 20 15
M  V30 27 1 22 11
M  V30 28 1 1 25
M  V30 29 1 1 26
M  V30 30 1 1 27
M  V30 31 1 4 28
M  V30 32 1 5 29
M  V30 33 1 6 30
M  V30 34 1 9 31
M  V30 35 1 10 32
M  V30 36 1 13 33
M  V30 37 1 14 34
M  V30 38 1 16 35
M  V30 39 1 17 36
M  V30 40 1 18 37
M  V30 41 1 19 38
M  V30 42 1 21 39
M  V30 43 1 24 40
M  V30 END BOND
M  V30 END CTAB
M  END
>  <Dataset>  (122) 
ChEMBL_Kinases

>  <Ligand_Instance>  (122) 
nan

>  <PDB_ID>  (122) 
nan

>  <Standardized_SMILES>  (122) 
COc1cccc(-c2ccc3c(c2)Nc2ccccc2NC3=O)c1

>  <Name>  (122) 
nan

>  <Pocket>  (122) 
nan

>  <ATP_Site>  (122) 
nan

>  <Peripheral>  (122) 
nan

>  <Num_H_Atoms_ProtBoundConf>  (122) 
nan

>  <Num_Resolved_Atoms>  (122) 
nan

>  <Num_Not_Resolved_Atoms>  (122) 
nan

$$$$
CHEMBL3895505
     RDKit          3D

  0  0  0  0  0  0  0  0  0  0999 V3000
M  V30 BEGIN CTAB
M  V30 COUNTS 52 53 0 0 0
M  V30 BEGIN ATOM
M  V30 1 C -4.290905 2.242388 2.761125 0
M  V30 2 N -3.718003 0.981164 3.178731 0
M  V30 3 C -2.559163 0.527208 2.517772 0
M  V30 4 C -1.976768 -0.666044 2.878244 0
M  V30 5 C -0.843157 -1.136284 2.249246 0
M  V30 6 O -0.140042 -2.308335 2.502100 0
M  V30 7 C -0.232622 -0.448467 1.231094 0
M  V30 8 C -0.803350 0.772490 0.844913 0
M  V30 9 C -1.921163 1.193298 1.496480 0
M  V30 10 C -0.364440 1.747005 -0.171979 0
M  V30 11 C -0.003579 1.692526 -1.420615 0
M  V30 12 C 0.451585 2.101891 -2.762698 0
M  V30 13 C -0.503525 1.794130 -3.884966 0 CFG=2
M  V30 14 O -1.577239 2.735861 -3.647979 0
M  V30 15 C -1.170428 0.474515 -3.767420 0 CFG=1
M  V30 16 O -2.196098 0.358676 -4.701048 0
M  V30 17 C -0.356485 -0.737265 -3.662109 0
M  V30 18 O -1.416367 -0.757222 -4.416224 0
M  V30 19 C -0.158584 -2.134944 -4.046339 0
M  V30 20 C 0.947937 -2.642537 -3.430136 0
M  V30 21 C 1.948228 -2.111674 -2.525400 0 CFG=1
M  V30 22 C 2.403437 -0.703691 -2.725670 0
M  V30 23 C 1.875800 -2.580460 -1.100262 0 CFG=2
M  V30 24 C 1.888621 -4.041714 -0.881340 0
M  V30 25 O 0.790299 -1.972949 -0.439334 0
M  V30 26 C 0.950218 -1.085675 0.609570 0
M  V30 27 O 1.704564 -0.476616 1.387263 0
M  V30 28 H -3.504243 3.042574 2.746798 0
M  V30 29 H -5.014045 2.595854 3.546696 0
M  V30 30 H -4.818092 2.188210 1.793539 0
M  V30 31 H -4.137680 0.420671 3.938554 0
M  V30 32 H -2.353080 -1.307655 3.658521 0
M  V30 33 H -0.064646 -3.060029 1.808104 0
M  V30 34 H -2.438539 2.132789 1.263942 0
M  V30 35 H -0.314271 2.802783 0.183323 0
M  V30 36 H -0.084702 0.613415 -1.661282 0
M  V30 37 H 1.482158 1.892181 -3.013504 0
M  V30 38 H 0.474069 3.263019 -2.657154 0
M  V30 39 H -0.079255 2.083820 -4.828930 0
M  V30 40 H -1.922021 2.597071 -2.740648 0
M  V30 41 H -1.783569 0.615482 -2.768511 0
M  V30 42 H -2.099311 1.017927 -5.444254 0
M  V30 43 H -0.613907 -2.914723 -4.676258 0
M  V30 44 H 1.114097 -3.715639 -3.667989 0
M  V30 45 H 2.912442 -2.687841 -2.858154 0
M  V30 46 H 3.533570 -0.616256 -2.835078 0
M  V30 47 H 2.161180 -0.124577 -1.830545 0
M  V30 48 H 2.047474 -0.274207 -3.685288 0
M  V30 49 H 2.786476 -2.169467 -0.584460 0
M  V30 50 H 1.037795 -4.584102 -1.342127 0
M  V30 51 H 2.799376 -4.472215 -1.393173 0
M  V30 52 H 2.027645 -4.288669 0.180751 0
M  V30 END ATOM
M  V30 BEGIN BOND
M  V30 1 1 1 2
M  V30 2 1 2 3
M  V30 3 2 3 4
M  V30 4 1 4 5
M  V30 5 1 5 6
M  V30 6 2 5 7
M  V30 7 1 7 8
M  V30 8 2 8 9
M  V30 9 1 8 10
M  V30 10 2 10 11
M  V30 11 1 11 12
M  V30 12 1 12 13
M  V30 13 1 13 14
M  V30 14 1 13 15
M  V30 15 1 15 16
M  V30 16 1 15 17
M  V30 17 2 17 18
M  V30 18 1 17 19
M  V30 19 2 19 20
M  V30 20 1 20 21
M  V30 21 1 21 22
M  V30 22 1 21 23
M  V30 23 1 23 24
M  V30 24 1 23 25
M  V30 25 1 25 26
M  V30 26 2 26 27
M  V30 27 1 9 3
M  V30 28 1 26 7
M  V30 29 1 1 28
M  V30 30 1 1 29
M  V30 31 1 1 30
M  V30 32 1 2 31
M  V30 33 1 4 32
M  V30 34 1 6 33
M  V30 35 1 9 34
M  V30 36 1 10 35
M  V30 37 1 11 36
M  V30 38 1 12 37
M  V30 39 1 12 38
M  V30 40 1 13 39 CFG=3
M  V30 41 1 14 40
M  V30 42 1 15 41 CFG=1
M  V30 43 1 16 42
M  V30 44 1 19 43
M  V30 45 1 20 44
M  V30 46 1 21 45 CFG=3
M  V30 47 1 22 46
M  V30 48 1 22 47
M  V30 49 1 22 48
M  V30 50 1 23 49 CFG=1
M  V30 51 1 24 50
M  V30 52 1 24 51
M  V30 53 1 24 52
M  V30 END BOND
M  V30 END CTAB
M  END
>  <Dataset>  (123) 
ChEMBL_Kinases

>  <Ligand_Instance>  (123) 
nan

>  <PDB_ID>  (123) 
nan

>  <Standardized_SMILES>  (123) 
CNc1cc(O)c2c(c1)/C=C/C[C@H](O)[C@@H](O)C(=O)/C=C\[C@@H](C)[C@H](C)OC2=O

>  <Name>  (123) 
nan

>  <Pocket>  (123) 
nan

>  <ATP_Site>  (123) 
nan

>  <Peripheral>  (123) 
nan

>  <Num_H_Atoms_ProtBoundConf>  (123) 
nan

>  <Num_Resolved_Atoms>  (123) 
nan

>  <Num_Not_Resolved_Atoms>  (123) 
nan

$$$$
CHEMBL3895497
     RDKit          3D

  0  0  0  0  0  0  0  0  0  0999 V3000
M  V30 BEGIN CTAB
M  V30 COUNTS 50 53 0 0 0
M  V30 BEGIN ATOM
M  V30 1 C 4.164079 -0.004939 4.877162 0
M  V30 2 C 3.038337 -0.834767 5.351890 0
M  V30 3 C 2.934361 -1.283802 6.664835 0
M  V30 4 C 1.866337 -2.062977 7.087653 0
M  V30 5 C 0.875188 -2.398147 6.158029 0
M  V30 6 C 0.953903 -1.963093 4.839925 0
M  V30 7 C -0.087266 -2.306232 3.833288 0
M  V30 8 N 0.204647 -3.528834 3.143215 0
M  V30 9 S -0.997000 -3.929662 1.977869 0
M  V30 10 O -0.802668 -5.296274 1.416780 0
M  V30 11 O -2.313805 -3.965662 2.729019 0
M  V30 12 C -1.114475 -2.701991 0.738937 0
M  V30 13 C -0.275603 -2.918738 -0.356654 0
M  V30 14 C -0.245161 -2.030752 -1.438058 0
M  V30 15 C -1.089686 -0.931969 -1.358961 0
M  V30 16 C -1.070978 0.005634 -2.479035 0
M  V30 17 N -1.761360 1.131952 -2.679640 0
M  V30 18 C -1.447469 1.709237 -3.854884 0
M  V30 19 C -1.911343 2.867682 -4.456578 0
M  V30 20 C -1.379642 3.206333 -5.704176 0
M  V30 21 C -1.803280 4.405808 -6.418202 0
M  V30 22 N -2.774306 5.299017 -5.897591 0
M  V30 23 O -1.341210 4.734187 -7.541588 0
M  V30 24 C -0.432214 2.396796 -6.284672 0
M  V30 25 C 0.004944 1.256453 -5.661117 0
M  V30 26 C -0.493990 0.883685 -4.426487 0
M  V30 27 N -0.283549 -0.141828 -3.572267 0
M  V30 28 C -1.934628 -0.689794 -0.283178 0
M  V30 29 C -1.936133 -1.597160 0.774268 0
M  V30 30 C 2.033495 -1.190992 4.465382 0
M  V30 31 H 4.450436 -0.323162 3.846672 0
M  V30 32 H 5.074094 -0.120617 5.492006 0
M  V30 33 H 3.885109 1.071560 4.807492 0
M  V30 34 H 3.718709 -1.003195 7.348113 0
M  V30 35 H 1.787727 -2.411996 8.112756 0
M  V30 36 H 0.010051 -3.008139 6.428365 0
M  V30 37 H -1.045772 -2.403500 4.376616 0
M  V30 38 H -0.109879 -1.489139 3.071319 0
M  V30 39 H 1.172367 -3.634161 2.827956 0
M  V30 40 H 0.392062 -3.765818 -0.444301 0
M  V30 41 H 0.404969 -2.208322 -2.276005 0
M  V30 42 H -2.657767 3.509531 -4.003937 0
M  V30 43 H -2.793005 5.493832 -4.880262 0
M  V30 44 H -3.487926 5.785838 -6.476876 0
M  V30 45 H 0.002277 2.623611 -7.246110 0
M  V30 46 H 0.760553 0.624309 -6.139775 0
M  V30 47 H 0.410296 -0.879631 -3.828923 0
M  V30 48 H -2.583741 0.169199 -0.239209 0
M  V30 49 H -2.557471 -1.493923 1.652398 0
M  V30 50 H 2.086338 -0.855701 3.433164 0
M  V30 END ATOM
M  V30 BEGIN BOND
M  V30 1 1 1 2
M  V30 2 2 2 3
M  V30 3 1 3 4
M  V30 4 2 4 5
M  V30 5 1 5 6
M  V30 6 1 6 7
M  V30 7 1 7 8
M  V30 8 1 8 9
M  V30 9 2 9 10
M  V30 10 2 9 11
M  V30 11 1 9 12
M  V30 12 2 12 13
M  V30 13 1 13 14
M  V30 14 2 14 15
M  V30 15 1 15 16
M  V30 16 2 16 17
M  V30 17 1 17 18
M  V30 18 2 18 19
M  V30 19 1 19 20
M  V30 20 1 20 21
M  V30 21 1 21 22
M  V30 22 2 21 23
M  V30 23 2 20 24
M  V30 24 1 24 25
M  V30 25 2 25 26
M  V30 26 1 26 27
M  V30 27 1 15 28
M  V30 28 2 28 29
M  V30 29 2 6 30
M  V30 30 1 30 2
M  V30 31 1 29 12
M  V30 32 1 27 16
M  V30 33 1 26 18
M  V30 34 1 1 31
M  V30 35 1 1 32
M  V30 36 1 1 33
M  V30 37 1 3 34
M  V30 38 1 4 35
M  V30 39 1 5 36
M  V30 40 1 7 37
M  V30 41 1 7 38
M  V30 42 1 8 39
M  V30 43 1 13 40
M  V30 44 1 14 41
M  V30 45 1 19 42
M  V30 46 1 22 43
M  V30 47 1 22 44
M  V30 48 1 24 45
M  V30 49 1 25 46
M  V30 50 1 27 47
M  V30 51 1 28 48
M  V30 52 1 29 49
M  V30 53 1 30 50
M  V30 END BOND
M  V30 END CTAB
M  END
>  <Dataset>  (124) 
ChEMBL_Kinases

>  <Ligand_Instance>  (124) 
nan

>  <PDB_ID>  (124) 
nan

>  <Standardized_SMILES>  (124) 
Cc1cccc(CNS(=O)(=O)c2ccc(-c3nc4cc(C(N)=O)ccc4[nH]3)cc2)c1

>  <Name>  (124) 
nan

>  <Pocket>  (124) 
nan

>  <ATP_Site>  (124) 
nan

>  <Peripheral>  (124) 
nan

>  <Num_H_Atoms_ProtBoundConf>  (124) 
nan

>  <Num_Resolved_Atoms>  (124) 
nan

>  <Num_Not_Resolved_Atoms>  (124) 
nan

$$$$
CHEMBL3895785
     RDKit          3D

  0  0  0  0  0  0  0  0  0  0999 V3000
M  V30 BEGIN CTAB
M  V30 COUNTS 44 46 0 0 0
M  V30 BEGIN ATOM
M  V30 1 C 0.603749 -3.609617 0.752603 0
M  V30 2 O 0.494164 -2.756343 -0.333817 0
M  V30 3 C -0.091588 -2.944231 -1.546169 0
M  V30 4 C -0.731715 -4.132502 -1.931133 0
M  V30 5 C -1.325238 -4.327760 -3.147370 0
M  V30 6 C -1.279501 -3.290441 -4.023553 0
M  V30 7 C -0.665462 -2.118816 -3.684680 0
M  V30 8 C -0.052500 -1.904085 -2.441102 0
M  V30 9 C 0.535679 -0.587351 -2.265549 0
M  V30 10 C 1.262212 -0.107976 -1.203742 0
M  V30 11 C 1.803446 1.142318 -1.065495 0
M  V30 12 N 2.556517 1.501290 0.076082 0
M  V30 13 C 2.128926 1.635836 1.413772 0
M  V30 14 C 3.002463 2.014535 2.405072 0
M  V30 15 C 2.692828 2.172012 3.765386 0
M  V30 16 C 1.335471 1.876435 3.924163 0
M  V30 17 F 0.970229 2.012864 5.246120 0
M  V30 18 C 0.360093 1.496468 3.065866 0
M  V30 19 N -0.983963 1.250761 3.412960 0
M  V30 20 S -1.623696 1.182762 4.989475 0
M  V30 21 C -0.931440 -0.091667 6.004548 0
M  V30 22 O -3.130289 0.940171 4.930264 0
M  V30 23 O -1.505309 2.503043 5.730857 0
M  V30 24 C 0.827429 1.385713 1.773676 0
M  V30 25 N 1.600721 2.004954 -2.092096 0
M  V30 26 C 0.887239 1.582459 -3.170951 0
M  V30 27 N 0.390052 0.348970 -3.233617 0
M  V30 28 H 1.447965 -4.320488 0.559650 0
M  V30 29 H -0.300398 -4.208016 0.970933 0
M  V30 30 H 0.936646 -3.068070 1.688292 0
M  V30 31 H -0.762865 -4.957157 -1.215151 0
M  V30 32 H -1.786200 -5.284401 -3.333693 0
M  V30 33 H -1.738657 -3.418732 -4.986206 0
M  V30 34 H -0.685172 -1.355097 -4.466631 0
M  V30 35 H 1.437964 -0.774215 -0.382109 0
M  V30 36 H 3.525083 1.667283 -0.237687 0
M  V30 37 H 4.036853 2.212631 2.089051 0
M  V30 38 H 3.375801 2.461598 4.536610 0
M  V30 39 H -1.641028 1.100008 2.597203 0
M  V30 40 H -0.827683 0.266422 7.067291 0
M  V30 41 H -1.615506 -0.970394 6.076950 0
M  V30 42 H 0.033882 -0.477001 5.643985 0
M  V30 43 H 0.165434 1.084323 0.976434 0
M  V30 44 H 0.665251 2.190685 -4.058903 0
M  V30 END ATOM
M  V30 BEGIN BOND
M  V30 1 1 1 2
M  V30 2 1 2 3
M  V30 3 2 3 4
M  V30 4 1 4 5
M  V30 5 2 5 6
M  V30 6 1 6 7
M  V30 7 2 7 8
M  V30 8 1 8 9
M  V30 9 2 9 10
M  V30 10 1 10 11
M  V30 11 1 11 12
M  V30 12 1 12 13
M  V30 13 2 13 14
M  V30 14 1 14 15
M  V30 15 2 15 16
M  V30 16 1 16 17
M  V30 17 1 16 18
M  V30 18 1 18 19
M  V30 19 1 19 20
M  V30 20 1 20 21
M  V30 21 2 20 22
M  V30 22 2 20 23
M  V30 23 2 18 24
M  V30 24 2 11 25
M  V30 25 1 25 26
M  V30 26 2 26 27
M  V30 27 1 8 3
M  V30 28 1 27 9
M  V30 29 1 24 13
M  V30 30 1 1 28
M  V30 31 1 1 29
M  V30 32 1 1 30
M  V30 33 1 4 31
M  V30 34 1 5 32
M  V30 35 1 6 33
M  V30 36 1 7 34
M  V30 37 1 10 35
M  V30 38 1 12 36
M  V30 39 1 14 37
M  V30 40 1 15 38
M  V30 41 1 19 39
M  V30 42 1 21 40
M  V30 43 1 21 41
M  V30 44 1 21 42
M  V30 45 1 24 43
M  V30 46 1 26 44
M  V30 END BOND
M  V30 END CTAB
M  END
>  <Dataset>  (125) 
ChEMBL_Kinases

>  <Ligand_Instance>  (125) 
nan

>  <PDB_ID>  (125) 
nan

>  <Standardized_SMILES>  (125) 
COc1ccccc1-c1cc(Nc2ccc(F)c(NS(C)(=O)=O)c2)ncn1

>  <Name>  (125) 
nan

>  <Pocket>  (125) 
nan

>  <ATP_Site>  (125) 
nan

>  <Peripheral>  (125) 
nan

>  <Num_H_Atoms_ProtBoundConf>  (125) 
nan

>  <Num_Resolved_Atoms>  (125) 
nan

>  <Num_Not_Resolved_Atoms>  (125) 
nan

$$$$
CHEMBL3907976
     RDKit          3D

  0  0  0  0  0  0  0  0  0  0999 V3000
M  V30 BEGIN CTAB
M  V30 COUNTS 43 46 0 0 0
M  V30 BEGIN ATOM
M  V30 1 N 2.018015 -4.813297 7.358664 0
M  V30 2 C 3.227581 -4.221585 6.914688 0
M  V30 3 O 4.243111 -4.357985 7.640401 0
M  V30 4 C 3.279807 -3.483582 5.659523 0
M  V30 5 C 4.465135 -2.914726 5.242361 0
M  V30 6 C 4.524722 -2.204136 4.039066 0
M  V30 7 C 3.401649 -2.060460 3.250861 0
M  V30 8 N 3.084380 -1.470012 2.075331 0
M  V30 9 C 1.784729 -1.660495 1.781919 0
M  V30 10 C 1.068073 -1.178066 0.602709 0
M  V30 11 C 1.735599 -0.440327 -0.354389 0
M  V30 12 C 1.017089 0.005327 -1.470096 0
M  V30 13 C -0.337141 -0.317020 -1.561095 0
M  V30 14 O -1.113882 0.096846 -2.649610 0
M  V30 15 C -1.779402 1.333628 -2.583425 0
M  V30 16 C -1.700492 2.164923 -1.483627 0
M  V30 17 C -2.371685 3.366973 -1.468212 0
M  V30 18 C -3.132010 3.791285 -2.512442 0
M  V30 19 C -3.195142 2.941539 -3.601496 0
M  V30 20 C -3.989348 3.267831 -4.824780 0
M  V30 21 F -4.576400 4.485821 -4.622924 0
M  V30 22 F -4.947097 2.263196 -4.960826 0
M  V30 23 F -3.142357 3.283831 -5.921694 0
M  V30 24 C -2.537889 1.722897 -3.663648 0
M  V30 25 F -2.608913 0.900204 -4.737855 0
M  V30 26 C -1.017021 -1.054902 -0.609700 0
M  V30 27 C -0.274802 -1.476127 0.475086 0
M  V30 28 N 1.295539 -2.378160 2.790964 0
M  V30 29 C 2.238839 -2.650307 3.715209 0
M  V30 30 C 2.137205 -3.361116 4.898672 0
M  V30 31 H 1.056767 -4.633046 7.013302 0
M  V30 32 H 1.995220 -5.525838 8.120140 0
M  V30 33 H 5.377118 -2.982797 5.798187 0
M  V30 34 H 5.421200 -1.729180 3.645993 0
M  V30 35 H 3.801733 -0.948077 1.514904 0
M  V30 36 H 2.778040 -0.195223 -0.279142 0
M  V30 37 H 1.476844 0.592546 -2.266188 0
M  V30 38 H -1.101593 1.863336 -0.624174 0
M  V30 39 H -2.311618 4.028993 -0.598012 0
M  V30 40 H -3.689626 4.706957 -2.593585 0
M  V30 41 H -2.060968 -1.292121 -0.699348 0
M  V30 42 H -0.744127 -2.066142 1.271409 0
M  V30 43 H 1.178087 -3.780789 5.165671 0
M  V30 END ATOM
M  V30 BEGIN BOND
M  V30 1 1 1 2
M  V30 2 2 2 3
M  V30 3 1 2 4
M  V30 4 2 4 5
M  V30 5 1 5 6
M  V30 6 2 6 7
M  V30 7 1 7 8
M  V30 8 1 8 9
M  V30 9 1 9 10
M  V30 10 2 10 11
M  V30 11 1 11 12
M  V30 12 2 12 13
M  V30 13 1 13 14
M  V30 14 1 14 15
M  V30 15 2 15 16
M  V30 16 1 16 17
M  V30 17 2 17 18
M  V30 18 1 18 19
M  V30 19 1 19 20
M  V30 20 1 20 21
M  V30 21 1 20 22
M  V30 22 1 20 23
M  V30 23 2 19 24
M  V30 24 1 24 25
M  V30 25 1 13 26
M  V30 26 2 26 27
M  V30 27 2 9 28
M  V30 28 1 28 29
M  V30 29 2 29 30
M  V30 30 1 30 4
M  V30 31 1 29 7
M  V30 32 1 27 10
M  V30 33 1 24 15
M  V30 34 1 1 31
M  V30 35 1 1 32
M  V30 36 1 5 33
M  V30 37 1 6 34
M  V30 38 1 8 35
M  V30 39 1 11 36
M  V30 40 1 12 37
M  V30 41 1 16 38
M  V30 42 1 17 39
M  V30 43 1 18 40
M  V30 44 1 26 41
M  V30 45 1 27 42
M  V30 46 1 30 43
M  V30 END BOND
M  V30 END CTAB
M  END
>  <Dataset>  (126) 
ChEMBL_Kinases

>  <Ligand_Instance>  (126) 
nan

>  <PDB_ID>  (126) 
nan

>  <Standardized_SMILES>  (126) 
NC(=O)c1ccc2[nH]c(-c3ccc(Oc4cccc(C(F)(F)F)c4F)cc3)nc2c1

>  <Name>  (126) 
nan

>  <Pocket>  (126) 
nan

>  <ATP_Site>  (126) 
nan

>  <Peripheral>  (126) 
nan

>  <Num_H_Atoms_ProtBoundConf>  (126) 
nan

>  <Num_Resolved_Atoms>  (126) 
nan

>  <Num_Not_Resolved_Atoms>  (126) 
nan

$$$$
CHEMBL3897289
     RDKit          3D

  0  0  0  0  0  0  0  0  0  0999 V3000
M  V30 BEGIN CTAB
M  V30 COUNTS 63 67 0 0 0
M  V30 BEGIN ATOM
M  V30 1 C 6.717409 0.220081 7.671373 0
M  V30 2 N 5.720130 0.175400 6.623388 0
M  V30 3 C 5.902807 0.705754 5.329248 0
M  V30 4 N 7.047164 1.307799 4.967657 0
M  V30 5 C 7.143363 1.791514 3.701563 0
M  V30 6 C 6.100451 1.671859 2.806615 0
M  V30 7 C 4.928660 1.052404 3.185264 0
M  V30 8 C 3.767541 0.876118 2.322065 0
M  V30 9 C 3.604496 1.269446 1.011183 0
M  V30 10 C 2.329975 0.892632 0.591295 0
M  V30 11 C 1.617615 1.019382 -0.599352 0
M  V30 12 C 0.336631 0.513474 -0.653923 0
M  V30 13 C -0.374133 0.663805 -1.915464 0
M  V30 14 O 0.223150 1.196065 -2.879682 0
M  V30 15 N -1.713334 0.199003 -1.991891 0
M  V30 16 C -2.705437 0.182536 -3.062629 0 CFG=1
M  V30 17 C -2.982449 -1.237572 -3.420628 0
M  V30 18 N -3.496120 -2.058791 -2.351681 0
M  V30 19 C -4.866319 -2.024539 -1.989502 0
M  V30 20 C -5.478775 -2.605772 -0.905341 0
M  V30 21 C -6.818168 -2.619464 -0.606824 0
M  V30 22 C -7.670835 -1.982056 -1.480369 0
M  V30 23 C -7.149873 -1.366853 -2.601268 0
M  V30 24 C -5.788874 -1.411656 -2.809465 0
M  V30 25 C -2.594963 -2.942205 -1.655048 0
M  V30 26 C -1.244273 -2.963294 -1.880208 0
M  V30 27 C -0.327553 -3.777663 -1.286052 0
M  V30 28 C -0.761541 -4.684284 -0.360639 0
M  V30 29 C -2.112306 -4.691409 -0.108885 0
M  V30 30 N -2.912853 -3.858143 -0.741794 0
M  V30 31 C -3.868853 1.007562 -2.735878 0
M  V30 32 O -3.478917 1.425093 -1.592361 0
M  V30 33 O -4.975027 1.797282 -2.415654 0
M  V30 34 C -0.179952 -0.093143 0.468128 0
M  V30 35 C 0.501037 -0.232825 1.658280 0
M  V30 36 C 1.789749 0.280449 1.701471 0
M  V30 37 N 2.647820 0.269520 2.737154 0
M  V30 38 N 4.893347 0.595598 4.446964 0
M  V30 39 H 6.326897 0.744461 8.581949 0
M  V30 40 H 7.699386 0.615961 7.329654 0
M  V30 41 H 6.947243 -0.827586 8.027261 0
M  V30 42 H 4.836299 -0.292628 6.914569 0
M  V30 43 H 8.061033 2.283876 3.385130 0
M  V30 44 H 6.147489 2.051769 1.778472 0
M  V30 45 H 4.343835 1.791208 0.390813 0
M  V30 46 H 2.094132 1.505504 -1.425042 0
M  V30 47 H -2.264209 -0.246201 -1.227627 0
M  V30 48 H -2.255565 0.639534 -3.995356 0
M  V30 49 H -2.035402 -1.677980 -3.778353 0
M  V30 50 H -3.737373 -1.236406 -4.256938 0
M  V30 51 H -4.884946 -3.111008 -0.167591 0
M  V30 52 H -7.221824 -3.100359 0.268668 0
M  V30 53 H -8.726705 -1.990269 -1.247944 0
M  V30 54 H -7.903229 -0.898940 -3.216855 0
M  V30 55 H -5.580102 -0.905340 -3.735682 0
M  V30 56 H -0.754507 -2.304797 -2.577363 0
M  V30 57 H 0.743737 -3.780718 -1.477539 0
M  V30 58 H -0.170987 -5.389388 0.189745 0
M  V30 59 H -2.526644 -5.398520 0.626883 0
M  V30 60 H -5.875132 1.398147 -2.195434 0
M  V30 61 H -1.180779 -0.496100 0.448145 0
M  V30 62 H 0.043406 -0.720914 2.511337 0
M  V30 63 H 2.447692 -0.148979 3.692281 0
M  V30 END ATOM
M  V30 BEGIN BOND
M  V30 1 1 1 2
M  V30 2 1 2 3
M  V30 3 2 3 4
M  V30 4 1 4 5
M  V30 5 2 5 6
M  V30 6 1 6 7
M  V30 7 1 7 8
M  V30 8 2 8 9
M  V30 9 1 9 10
M  V30 10 2 10 11
M  V30 11 1 11 12
M  V30 12 1 12 13
M  V30 13 2 13 14
M  V30 14 1 13 15
M  V30 15 1 15 16
M  V30 16 1 16 17
M  V30 17 1 17 18
M  V30 18 1 18 19
M  V30 19 2 19 20
M  V30 20 1 20 21
M  V30 21 2 21 22
M  V30 22 1 22 23
M  V30 23 2 23 24
M  V30 24 1 18 25
M  V30 25 2 25 26
M  V30 26 1 26 27
M  V30 27 2 27 28
M  V30 28 1 28 29
M  V30 29 2 29 30
M  V30 30 1 16 31
M  V30 31 2 31 32
M  V30 32 1 31 33
M  V30 33 2 12 34
M  V30 34 1 34 35
M  V30 35 2 35 36
M  V30 36 1 36 37
M  V30 37 2 7 38
M  V30 38 1 38 3
M  V30 39 1 37 8
M  V30 40 1 36 10
M  V30 41 1 24 19
M  V30 42 1 30 25
M  V30 43 1 1 39
M  V30 44 1 1 40
M  V30 45 1 1 41
M  V30 46 1 2 42
M  V30 47 1 5 43
M  V30 48 1 6 44
M  V30 49 1 9 45
M  V30 50 1 11 46
M  V30 51 1 15 47
M  V30 52 1 16 48 CFG=3
M  V30 53 1 17 49
M  V30 54 1 17 50
M  V30 55 1 20 51
M  V30 56 1 21 52
M  V30 57 1 22 53
M  V30 58 1 23 54
M  V30 59 1 24 55
M  V30 60 1 26 56
M  V30 61 1 27 57
M  V30 62 1 28 58
M  V30 63 1 29 59
M  V30 64 1 33 60
M  V30 65 1 34 61
M  V30 66 1 35 62
M  V30 67 1 37 63
M  V30 END BOND
M  V30 END CTAB
M  END
>  <Dataset>  (127) 
ChEMBL_Kinases

>  <Ligand_Instance>  (127) 
nan

>  <PDB_ID>  (127) 
nan

>  <Standardized_SMILES>  (127) 
CNc1nccc(-c2cc3cc(C(=O)N[C@@H](CN(c4ccccc4)c4ccccn4)C(=O)O)ccc3[nH]2)n1

>  <Name>  (127) 
nan

>  <Pocket>  (127) 
nan

>  <ATP_Site>  (127) 
nan

>  <Peripheral>  (127) 
nan

>  <Num_H_Atoms_ProtBoundConf>  (127) 
nan

>  <Num_Resolved_Atoms>  (127) 
nan

>  <Num_Not_Resolved_Atoms>  (127) 
nan

$$$$
CHEMBL3897209
     RDKit          3D

  0  0  0  0  0  0  0  0  0  0999 V3000
M  V30 BEGIN CTAB
M  V30 COUNTS 48 52 0 0 0
M  V30 BEGIN ATOM
M  V30 1 N 3.608107 -7.661321 1.415875 0
M  V30 2 C 4.713202 -6.784221 1.276030 0
M  V30 3 O 5.863692 -7.276482 1.370765 0
M  V30 4 C 4.519212 -5.362567 1.031206 0
M  V30 5 C 5.627938 -4.544761 0.922685 0
M  V30 6 C 5.464706 -3.188906 0.687753 0
M  V30 7 C 4.199085 -2.651441 0.561792 0
M  V30 8 N 3.723118 -1.393594 0.334881 0
M  V30 9 C 2.400694 -1.460264 0.309689 0
M  V30 10 C 1.492897 -0.340398 0.092493 0
M  V30 11 C 2.001668 0.930463 -0.113012 0
M  V30 12 C 1.131880 1.984609 -0.318213 0
M  V30 13 C -0.238036 1.770658 -0.318124 0
M  V30 14 C -1.115214 2.962581 -0.548569 0
M  V30 15 O -0.653612 4.022355 0.210917 0
M  V30 16 C -2.527703 2.625236 -0.205859 0
M  V30 17 C -3.505632 2.376878 -1.143877 0
M  V30 18 N -4.781645 2.074089 -0.774328 0
M  V30 19 C -5.097811 2.014863 0.525438 0
M  V30 20 C -6.374643 1.713566 0.998478 0
M  V30 21 C -6.690710 1.655244 2.340615 0
M  V30 22 C -5.684750 1.909593 3.251614 0
M  V30 23 C -4.400233 2.213892 2.859710 0
M  V30 24 C -4.117268 2.263782 1.491126 0
M  V30 25 C -2.820882 2.572040 1.140575 0
M  V30 26 C -0.798689 0.516163 -0.116673 0
M  V30 27 C 0.121315 -0.502289 0.083685 0
M  V30 28 N 2.021895 -2.730540 0.515313 0
M  V30 29 C 3.107643 -3.514715 0.678770 0
M  V30 30 C 3.230497 -4.865967 0.911622 0
M  V30 31 H 2.869735 -8.174610 1.941009 0
M  V30 32 H 3.402236 -7.999219 0.428167 0
M  V30 33 H 6.582312 -5.026838 1.031800 0
M  V30 34 H 6.354555 -2.548497 0.603428 0
M  V30 35 H 4.340178 -0.538106 0.206351 0
M  V30 36 H 3.070760 1.069353 -0.108091 0
M  V30 37 H 1.577757 2.961370 -0.474765 0
M  V30 38 H -1.006412 3.284724 -1.617327 0
M  V30 39 H -1.324912 4.706103 0.414863 0
M  V30 40 H -3.229882 2.429536 -2.197384 0
M  V30 41 H -7.168055 1.513956 0.263849 0
M  V30 42 H -7.713597 1.412332 2.601044 0
M  V30 43 H -5.928732 1.865421 4.325214 0
M  V30 44 H -3.638224 2.408495 3.595928 0
M  V30 45 H -2.077751 2.761615 1.889945 0
M  V30 46 H -1.861325 0.375976 -0.121498 0
M  V30 47 H -0.260751 -1.521199 0.249057 0
M  V30 48 H 2.335411 -5.476169 0.990760 0
M  V30 END ATOM
M  V30 BEGIN BOND
M  V30 1 1 1 2
M  V30 2 2 2 3
M  V30 3 1 2 4
M  V30 4 2 4 5
M  V30 5 1 5 6
M  V30 6 2 6 7
M  V30 7 1 7 8
M  V30 8 1 8 9
M  V30 9 1 9 10
M  V30 10 2 10 11
M  V30 11 1 11 12
M  V30 12 2 12 13
M  V30 13 1 13 14
M  V30 14 1 14 15
M  V30 15 1 14 16
M  V30 16 2 16 17
M  V30 17 1 17 18
M  V30 18 2 18 19
M  V30 19 1 19 20
M  V30 20 2 20 21
M  V30 21 1 21 22
M  V30 22 2 22 23
M  V30 23 1 23 24
M  V30 24 2 24 25
M  V30 25 1 13 26
M  V30 26 2 26 27
M  V30 27 2 9 28
M  V30 28 1 28 29
M  V30 29 2 29 30
M  V30 30 1 30 4
M  V30 31 1 29 7
M  V30 32 1 27 10
M  V30 33 1 25 16
M  V30 34 1 24 19
M  V30 35 1 1 31
M  V30 36 1 1 32
M  V30 37 1 5 33
M  V30 38 1 6 34
M  V30 39 1 8 35
M  V30 40 1 11 36
M  V30 41 1 12 37
M  V30 42 1 14 38
M  V30 43 1 15 39
M  V30 44 1 17 40
M  V30 45 1 20 41
M  V30 46 1 21 42
M  V30 47 1 22 43
M  V30 48 1 23 44
M  V30 49 1 25 45
M  V30 50 1 26 46
M  V30 51 1 27 47
M  V30 52 1 30 48
M  V30 END BOND
M  V30 END CTAB
M  END
>  <Dataset>  (128) 
ChEMBL_Kinases

>  <Ligand_Instance>  (128) 
nan

>  <PDB_ID>  (128) 
nan

>  <Standardized_SMILES>  (128) 
NC(=O)c1ccc2[nH]c(-c3ccc(C(O)c4cnc5ccccc5c4)cc3)nc2c1

>  <Name>  (128) 
nan

>  <Pocket>  (128) 
nan

>  <ATP_Site>  (128) 
nan

>  <Peripheral>  (128) 
nan

>  <Num_H_Atoms_ProtBoundConf>  (128) 
nan

>  <Num_Resolved_Atoms>  (128) 
nan

>  <Num_Not_Resolved_Atoms>  (128) 
nan

$$$$
CHEMBL3897107
     RDKit          3D

  0  0  0  0  0  0  0  0  0  0999 V3000
M  V30 BEGIN CTAB
M  V30 COUNTS 56 60 0 0 0
M  V30 BEGIN ATOM
M  V30 1 O -0.550972 1.774710 -4.631256 0
M  V30 2 C -0.738628 1.106119 -3.592346 0
M  V30 3 N -1.935278 0.977629 -2.989064 0
M  V30 4 N -1.713241 0.210334 -1.948647 0
M  V30 5 C -0.401384 -0.141945 -1.891790 0
M  V30 6 C 0.231159 -1.007636 -0.849808 0 CFG=2
M  V30 7 C -0.887587 -1.390991 0.086558 0
M  V30 8 C -1.484169 -0.191214 0.670632 0
M  V30 9 C -2.502547 -0.535873 1.550964 0
M  V30 10 C -3.249972 0.390041 2.264677 0
M  V30 11 C -2.995023 1.736933 2.115860 0
M  V30 12 C -1.972103 2.063249 1.229961 0
M  V30 13 N -1.443091 3.353049 0.859466 0
M  V30 14 C -0.233934 3.736712 1.546645 0
M  V30 15 C 0.491458 4.923752 1.412663 0
M  V30 16 C 1.584173 4.881753 2.239807 0
M  V30 17 N 1.528843 3.693058 2.867442 0
M  V30 18 N 0.470323 3.039519 2.456819 0
M  V30 19 N -1.282786 1.130505 0.567443 0
M  V30 20 C 1.345154 -0.308449 -0.149803 0
M  V30 21 C 2.025829 -1.288995 0.805233 0
M  V30 22 C 2.664996 -2.420994 0.078758 0 CFG=1
M  V30 23 S 2.651119 -4.001954 0.912563 0
M  V30 24 C 1.080196 -4.735498 1.161910 0
M  V30 25 C 0.493425 -5.518860 0.185056 0
M  V30 26 C -0.736783 -6.118597 0.347771 0
M  V30 27 C -1.454313 -5.966166 1.506405 0
M  V30 28 C -0.905728 -5.192923 2.506999 0
M  V30 29 Cl -1.803932 -4.976370 4.011848 0
M  V30 30 C 0.325888 -4.601543 2.326096 0
M  V30 31 Cl 0.952621 -3.660242 3.656246 0
M  V30 32 C 2.227831 -2.460776 -1.360177 0
M  V30 33 C 0.757913 -2.244313 -1.580441 0
M  V30 34 O 0.172289 0.425582 -2.917687 0
M  V30 35 H -2.871612 1.344830 -3.197902 0
M  V30 36 H -1.648141 -1.924925 -0.552367 0
M  V30 37 H -0.557450 -2.038816 0.919554 0
M  V30 38 H -2.854411 -1.550396 1.803972 0
M  V30 39 H -4.044731 0.178453 2.955542 0
M  V30 40 H -3.433253 2.601126 2.552317 0
M  V30 41 H -1.808211 4.053052 0.164017 0
M  V30 42 H 0.225917 5.728764 0.765548 0
M  V30 43 H 2.352085 5.626518 2.383530 0
M  V30 44 H 2.193559 3.280939 3.585804 0
M  V30 45 H 2.101319 0.061696 -0.861353 0
M  V30 46 H 0.965504 0.506593 0.462615 0
M  V30 47 H 1.308850 -1.594221 1.586221 0
M  V30 48 H 2.764385 -0.640246 1.360912 0
M  V30 49 H 3.766693 -2.141531 0.017871 0
M  V30 50 H 1.027031 -5.671501 -0.762250 0
M  V30 51 H -1.159627 -6.718066 -0.426462 0
M  V30 52 H -2.420106 -6.417450 1.673908 0
M  V30 53 H 2.738802 -1.600411 -1.882857 0
M  V30 54 H 2.516129 -3.366146 -1.883491 0
M  V30 55 H 0.640775 -2.127723 -2.687292 0
M  V30 56 H 0.108252 -3.076010 -1.311794 0
M  V30 END ATOM
M  V30 BEGIN BOND
M  V30 1 2 1 2
M  V30 2 1 2 3
M  V30 3 1 3 4
M  V30 4 2 4 5
M  V30 5 1 5 6
M  V30 6 1 6 7 CFG=1
M  V30 7 1 7 8
M  V30 8 2 8 9
M  V30 9 1 9 10
M  V30 10 2 10 11
M  V30 11 1 11 12
M  V30 12 1 12 13
M  V30 13 1 13 14
M  V30 14 1 14 15
M  V30 15 2 15 16
M  V30 16 1 16 17
M  V30 17 1 17 18
M  V30 18 2 12 19
M  V30 19 1 6 20
M  V30 20 1 20 21
M  V30 21 1 21 22
M  V30 22 1 22 23
M  V30 23 1 23 24
M  V30 24 2 24 25
M  V30 25 1 25 26
M  V30 26 2 26 27
M  V30 27 1 27 28
M  V30 28 1 28 29
M  V30 29 2 28 30
M  V30 30 1 30 31
M  V30 31 1 22 32
M  V30 32 1 32 33
M  V30 33 1 5 34
M  V30 34 1 34 2
M  V30 35 1 33 6
M  V30 36 1 19 8
M  V30 37 1 30 24
M  V30 38 2 18 14
M  V30 39 1 3 35
M  V30 40 1 7 36
M  V30 41 1 7 37
M  V30 42 1 9 38
M  V30 43 1 10 39
M  V30 44 1 11 40
M  V30 45 1 13 41
M  V30 46 1 15 42
M  V30 47 1 16 43
M  V30 48 1 17 44
M  V30 49 1 20 45
M  V30 50 1 20 46
M  V30 51 1 21 47
M  V30 52 1 21 48
M  V30 53 1 22 49 CFG=3
M  V30 54 1 25 50
M  V30 55 1 26 51
M  V30 56 1 27 52
M  V30 57 1 32 53
M  V30 58 1 32 54
M  V30 59 1 33 55
M  V30 60 1 33 56
M  V30 END BOND
M  V30 END CTAB
M  END
>  <Dataset>  (129) 
ChEMBL_Kinases

>  <Ligand_Instance>  (129) 
nan

>  <PDB_ID>  (129) 
nan

>  <Standardized_SMILES>  (129) 
O=c1[nH]nc([C@]2(Cc3cccc(Nc4cc[nH]n4)n3)CC[C@@H](Sc3cccc(Cl)c3Cl)CC2)o1

>  <Name>  (129) 
nan

>  <Pocket>  (129) 
nan

>  <ATP_Site>  (129) 
nan

>  <Peripheral>  (129) 
nan

>  <Num_H_Atoms_ProtBoundConf>  (129) 
nan

>  <Num_Resolved_Atoms>  (129) 
nan

>  <Num_Not_Resolved_Atoms>  (129) 
nan

$$$$
CHEMBL3897063
     RDKit          3D

  0  0  0  0  0  0  0  0  0  0999 V3000
M  V30 BEGIN CTAB
M  V30 COUNTS 39 42 0 0 0
M  V30 BEGIN ATOM
M  V30 1 N -1.815479 -7.605246 1.195978 0
M  V30 2 C -0.655008 -7.403831 0.412443 0
M  V30 3 O -0.164584 -8.431204 -0.064892 0
M  V30 4 C -0.134267 -6.055365 0.225945 0
M  V30 5 C 0.992611 -5.996869 -0.565887 0
M  V30 6 C 1.545617 -4.730038 -0.784628 0
M  V30 7 C 0.961100 -3.609675 -0.215999 0
M  V30 8 N 1.292518 -2.288384 -0.269648 0
M  V30 9 C 0.389890 -1.604830 0.464973 0
M  V30 10 C 0.394096 -0.149707 0.662640 0
M  V30 11 C 1.393630 0.589297 0.054839 0
M  V30 12 C 1.407736 1.962597 0.234681 0
M  V30 13 C 0.418205 2.529519 1.016027 0
M  V30 14 C 0.378993 3.970081 1.242824 0
M  V30 15 C -0.107663 4.519622 2.406416 0
M  V30 16 C -0.160768 5.875506 2.655304 0
M  V30 17 C 0.300161 6.761734 1.685758 0
M  V30 18 F 0.262841 8.090862 1.895660 0
M  V30 19 C 0.787478 6.209829 0.520339 0
M  V30 20 C 0.840284 4.847442 0.271440 0
M  V30 21 C -0.589273 1.799462 1.630691 0
M  V30 22 C -0.587794 0.432078 1.440463 0
M  V30 23 N -0.492831 -2.484734 0.970633 0
M  V30 24 C -0.183175 -3.739602 0.578393 0
M  V30 25 C -0.759061 -4.979846 0.817054 0
M  V30 26 H -1.679847 -7.192755 2.149568 0
M  V30 27 H -2.730074 -7.836083 1.620022 0
M  V30 28 H 1.411548 -6.900271 -0.987729 0
M  V30 29 H 2.432555 -4.627672 -1.400424 0
M  V30 30 H 2.099080 -1.856720 -0.782577 0
M  V30 31 H 2.180854 0.181047 -0.560834 0
M  V30 32 H 2.130547 2.639696 -0.185123 0
M  V30 33 H -0.476362 3.881835 3.188753 0
M  V30 34 H -0.545033 6.312213 3.574555 0
M  V30 35 H 1.148522 6.911647 -0.238233 0
M  V30 36 H 1.227009 4.436389 -0.650742 0
M  V30 37 H -1.358359 2.236023 2.237617 0
M  V30 38 H -1.338110 -0.242044 1.879735 0
M  V30 39 H -1.630620 -5.092807 1.420082 0
M  V30 END ATOM
M  V30 BEGIN BOND
M  V30 1 1 1 2
M  V30 2 2 2 3
M  V30 3 1 2 4
M  V30 4 2 4 5
M  V30 5 1 5 6
M  V30 6 2 6 7
M  V30 7 1 7 8
M  V30 8 1 8 9
M  V30 9 1 9 10
M  V30 10 2 10 11
M  V30 11 1 11 12
M  V30 12 2 12 13
M  V30 13 1 13 14
M  V30 14 2 14 15
M  V30 15 1 15 16
M  V30 16 2 16 17
M  V30 17 1 17 18
M  V30 18 1 17 19
M  V30 19 2 19 20
M  V30 20 1 13 21
M  V30 21 2 21 22
M  V30 22 2 9 23
M  V30 23 1 23 24
M  V30 24 2 24 25
M  V30 25 1 25 4
M  V30 26 1 24 7
M  V30 27 1 22 10
M  V30 28 1 20 14
M  V30 29 1 1 26
M  V30 30 1 1 27
M  V30 31 1 5 28
M  V30 32 1 6 29
M  V30 33 1 8 30
M  V30 34 1 11 31
M  V30 35 1 12 32
M  V30 36 1 15 33
M  V30 37 1 16 34
M  V30 38 1 19 35
M  V30 39 1 20 36
M  V30 40 1 21 37
M  V30 41 1 22 38
M  V30 42 1 25 39
M  V30 END BOND
M  V30 END CTAB
M  END
>  <Dataset>  (130) 
ChEMBL_Kinases

>  <Ligand_Instance>  (130) 
nan

>  <PDB_ID>  (130) 
nan

>  <Standardized_SMILES>  (130) 
NC(=O)c1ccc2[nH]c(-c3ccc(-c4ccc(F)cc4)cc3)nc2c1

>  <Name>  (130) 
nan

>  <Pocket>  (130) 
nan

>  <ATP_Site>  (130) 
nan

>  <Peripheral>  (130) 
nan

>  <Num_H_Atoms_ProtBoundConf>  (130) 
nan

>  <Num_Resolved_Atoms>  (130) 
nan

>  <Num_Not_Resolved_Atoms>  (130) 
nan

$$$$
CHEMBL3908184
     RDKit          3D

  0  0  0  0  0  0  0  0  0  0999 V3000
M  V30 BEGIN CTAB
M  V30 COUNTS 48 52 0 0 0
M  V30 BEGIN ATOM
M  V30 1 C 0.169181 -4.923562 -1.343243 0
M  V30 2 O 1.502159 -4.897625 -0.934916 0
M  V30 3 C 2.168093 -3.775299 -0.486145 0
M  V30 4 C 3.490273 -3.849858 -0.103275 0
M  V30 5 C 4.089993 -2.687192 0.334481 0
M  V30 6 C 3.369464 -1.492217 0.380558 0
M  V30 7 C 2.024267 -1.441395 -0.014375 0
M  V30 8 N 1.566142 -0.107883 0.137823 0
M  V30 9 C 1.742098 0.674254 -1.065464 0
M  V30 10 O 2.191736 0.444795 -2.241763 0
M  V30 11 C 1.283865 2.045949 -0.836062 0
M  V30 12 C 1.185873 3.236250 -1.526821 0
M  V30 13 C 0.691604 4.394137 -0.984857 0
M  V30 14 C 0.268263 4.384216 0.311559 0
M  V30 15 C 0.336766 3.236119 1.056364 0
M  V30 16 C 0.842276 2.091609 0.468540 0
M  V30 17 C 0.984726 0.751985 1.113120 0
M  V30 18 O 1.904629 0.968335 2.170988 0
M  V30 19 C -0.299817 0.342576 1.676046 0
M  V30 20 C -0.592840 0.815145 2.962966 0
M  V30 21 C -1.778793 0.498040 3.593288 0
M  V30 22 C -2.732389 -0.296662 2.992391 0
M  V30 23 C -2.467786 -0.780652 1.712542 0
M  V30 24 C -1.274656 -0.446447 1.109198 0
M  V30 25 N -3.412520 -1.606155 1.042000 0
M  V30 26 C -4.654544 -1.947798 1.686900 0
M  V30 27 O -5.657662 -2.289293 1.019232 0
M  V30 28 C -4.624799 -1.856082 3.185140 0
M  V30 29 O -3.941504 -0.652888 3.567747 0
M  V30 30 C 1.437523 -2.609112 -0.449425 0
M  V30 31 H -0.038150 -4.033943 -1.956124 0
M  V30 32 H -0.005655 -5.851810 -1.947242 0
M  V30 33 H -0.554003 -4.937250 -0.494766 0
M  V30 34 H 4.004509 -4.804306 -0.158618 0
M  V30 35 H 5.125137 -2.795882 0.623284 0
M  V30 36 H 4.007492 -0.680825 0.752552 0
M  V30 37 H 1.522524 3.236061 -2.551151 0
M  V30 38 H 0.650475 5.291927 -1.604976 0
M  V30 39 H -0.116172 5.322206 0.702937 0
M  V30 40 H -0.018838 3.311842 2.075031 0
M  V30 41 H 1.894458 0.101938 2.672125 0
M  V30 42 H 0.038548 1.452364 3.589323 0
M  V30 43 H -2.056126 0.834267 4.583060 0
M  V30 44 H -1.070276 -0.807761 0.135078 0
M  V30 45 H -3.210005 -1.966890 0.082238 0
M  V30 46 H -4.046710 -2.739868 3.534366 0
M  V30 47 H -5.610120 -1.878988 3.646754 0
M  V30 48 H 0.415316 -2.443586 -0.723683 0
M  V30 END ATOM
M  V30 BEGIN BOND
M  V30 1 1 1 2
M  V30 2 1 2 3
M  V30 3 2 3 4
M  V30 4 1 4 5
M  V30 5 2 5 6
M  V30 6 1 6 7
M  V30 7 1 7 8
M  V30 8 1 8 9
M  V30 9 2 9 10
M  V30 10 1 9 11
M  V30 11 2 11 12
M  V30 12 1 12 13
M  V30 13 2 13 14
M  V30 14 1 14 15
M  V30 15 2 15 16
M  V30 16 1 16 17
M  V30 17 1 17 18
M  V30 18 1 17 19
M  V30 19 2 19 20
M  V30 20 1 20 21
M  V30 21 2 21 22
M  V30 22 1 22 23
M  V30 23 2 23 24
M  V30 24 1 23 25
M  V30 25 1 25 26
M  V30 26 2 26 27
M  V30 27 1 26 28
M  V30 28 1 28 29
M  V30 29 2 7 30
M  V30 30 1 30 3
M  V30 31 1 17 8
M  V30 32 1 24 19
M  V30 33 1 16 11
M  V30 34 1 29 22
M  V30 35 1 1 31
M  V30 36 1 1 32
M  V30 37 1 1 33
M  V30 38 1 4 34
M  V30 39 1 5 35
M  V30 40 1 6 36
M  V30 41 1 12 37
M  V30 42 1 13 38
M  V30 43 1 14 39
M  V30 44 1 15 40
M  V30 45 1 18 41
M  V30 46 1 20 42
M  V30 47 1 21 43
M  V30 48 1 24 44
M  V30 49 1 25 45
M  V30 50 1 28 46
M  V30 51 1 28 47
M  V30 52 1 30 48
M  V30 END BOND
M  V30 END CTAB
M  END
>  <Dataset>  (131) 
ChEMBL_Kinases

>  <Ligand_Instance>  (131) 
nan

>  <PDB_ID>  (131) 
nan

>  <Standardized_SMILES>  (131) 
COc1cccc(N2C(=O)c3ccccc3C2(O)c2ccc3c(c2)NC(=O)CO3)c1

>  <Name>  (131) 
nan

>  <Pocket>  (131) 
nan

>  <ATP_Site>  (131) 
nan

>  <Peripheral>  (131) 
nan

>  <Num_H_Atoms_ProtBoundConf>  (131) 
nan

>  <Num_Resolved_Atoms>  (131) 
nan

>  <Num_Not_Resolved_Atoms>  (131) 
nan

$$$$
CHEMBL389704
     RDKit          3D

  0  0  0  0  0  0  0  0  0  0999 V3000
M  V30 BEGIN CTAB
M  V30 COUNTS 43 46 0 0 0
M  V30 BEGIN ATOM
M  V30 1 C 1.685570 -2.589250 2.565537 0
M  V30 2 C 0.286233 -2.278892 2.145613 0 CFG=2
M  V30 3 C -0.062712 -2.708453 0.770668 0
M  V30 4 C 0.351392 -1.770589 -0.309284 0
M  V30 5 C -0.079013 -0.345431 -0.041332 0 CFG=2
M  V30 6 C 0.291879 0.542948 -1.135951 0
M  V30 7 C 0.121344 0.168663 -2.441125 0
M  V30 8 C 0.464638 0.992057 -3.511300 0
M  V30 9 C 1.002525 2.245582 -3.252543 0
M  V30 10 O 1.333308 3.040110 -4.342999 0
M  V30 11 C 1.180088 2.635952 -1.928875 0
M  V30 12 C 0.833788 1.805794 -0.873106 0
M  V30 13 C 1.043201 2.269641 0.510530 0
M  V30 14 O 1.744989 3.282268 0.666022 0
M  V30 15 C 0.400069 1.490202 1.596807 0
M  V30 16 C 0.594039 0.045800 1.277663 0 CFG=1
M  V30 17 C -0.073656 -0.803270 2.286025 0 CFG=2
M  V30 18 C 0.254399 -0.590967 3.713017 0
M  V30 19 C -0.427077 -1.808106 4.353593 0
M  V30 20 C -0.638137 -2.814271 3.214965 0 CFG=2
M  V30 21 O -0.258612 -4.055128 3.704708 0
M  V30 22 H 2.442416 -1.835394 2.323831 0
M  V30 23 H 1.741606 -2.710382 3.686169 0
M  V30 24 H 1.939779 -3.587539 2.158318 0
M  V30 25 H 0.474173 -3.679748 0.571865 0
M  V30 26 H -1.141070 -2.988197 0.706815 0
M  V30 27 H 1.465080 -1.813756 -0.424861 0
M  V30 28 H -0.064213 -2.165099 -1.259436 0
M  V30 29 H -1.171111 -0.363871 0.172791 0
M  V30 30 H -0.288649 -0.784727 -2.744117 0
M  V30 31 H 0.323101 0.680629 -4.557233 0
M  V30 32 H 0.645882 3.393939 -4.994262 0
M  V30 33 H 1.607673 3.633427 -1.774860 0
M  V30 34 H -0.667628 1.701652 1.731423 0
M  V30 35 H 0.968125 1.707487 2.511354 0
M  V30 36 H 1.668965 -0.148376 1.120427 0
M  V30 37 H -1.173880 -0.760793 2.091534 0
M  V30 38 H -0.129476 0.347088 4.154773 0
M  V30 39 H 1.363833 -0.705573 3.825172 0
M  V30 40 H 0.170686 -2.216115 5.173105 0
M  V30 41 H -1.440277 -1.467317 4.677832 0
M  V30 42 H -1.705685 -2.799350 2.877504 0
M  V30 43 H -1.102619 -4.572030 3.892015 0
M  V30 END ATOM
M  V30 BEGIN BOND
M  V30 1 1 2 1 CFG=1
M  V30 2 1 2 3
M  V30 3 1 3 4
M  V30 4 1 4 5
M  V30 5 1 5 6
M  V30 6 2 6 7
M  V30 7 1 7 8
M  V30 8 2 8 9
M  V30 9 1 9 10
M  V30 10 1 9 11
M  V30 11 2 11 12
M  V30 12 1 12 13
M  V30 13 2 13 14
M  V30 14 1 13 15
M  V30 15 1 15 16
M  V30 16 1 16 17
M  V30 17 1 17 18
M  V30 18 1 18 19
M  V30 19 1 19 20
M  V30 20 1 20 21
M  V30 21 1 17 2
M  V30 22 1 20 2
M  V30 23 1 16 5
M  V30 24 1 12 6
M  V30 25 1 1 22
M  V30 26 1 1 23
M  V30 27 1 1 24
M  V30 28 1 3 25
M  V30 29 1 3 26
M  V30 30 1 4 27
M  V30 31 1 4 28
M  V30 32 1 5 29 CFG=1
M  V30 33 1 7 30
M  V30 34 1 8 31
M  V30 35 1 10 32
M  V30 36 1 11 33
M  V30 37 1 15 34
M  V30 38 1 15 35
M  V30 39 1 16 36 CFG=3
M  V30 40 1 17 37 CFG=1
M  V30 41 1 18 38
M  V30 42 1 18 39
M  V30 43 1 19 40
M  V30 44 1 19 41
M  V30 45 1 20 42 CFG=3
M  V30 46 1 21 43
M  V30 END BOND
M  V30 END CTAB
M  END
>  <Dataset>  (132) 
ChEMBL_Kinases

>  <Ligand_Instance>  (132) 
nan

>  <PDB_ID>  (132) 
nan

>  <Standardized_SMILES>  (132) 
C[C@]12CC[C@@H]3c4ccc(O)cc4C(=O)C[C@H]3[C@@H]1CC[C@@H]2O

>  <Name>  (132) 
nan

>  <Pocket>  (132) 
nan

>  <ATP_Site>  (132) 
nan

>  <Peripheral>  (132) 
nan

>  <Num_H_Atoms_ProtBoundConf>  (132) 
nan

>  <Num_Resolved_Atoms>  (132) 
nan

>  <Num_Not_Resolved_Atoms>  (132) 
nan

$$$$
CHEMBL3896803
     RDKit          3D

  0  0  0  0  0  0  0  0  0  0999 V3000
M  V30 BEGIN CTAB
M  V30 COUNTS 40 43 0 0 0
M  V30 BEGIN ATOM
M  V30 1 C -1.355154 -5.905419 2.842755 0
M  V30 2 O -0.763318 -5.239314 3.941012 0
M  V30 3 C -0.226709 -3.986343 3.780018 0
M  V30 4 C -0.142619 -3.178645 2.665333 0
M  V30 5 C 0.449029 -1.934654 2.733224 0
M  V30 6 C 0.497041 -1.142502 1.508383 0
M  V30 7 C 0.448124 0.251743 1.622046 0
M  V30 8 C 0.486006 1.109815 0.536583 0
M  V30 9 C 0.576236 0.585145 -0.726729 0
M  V30 10 C 0.632955 1.167328 -1.990613 0
M  V30 11 C 0.608624 2.609005 -2.311382 0
M  V30 12 C -0.236451 2.937078 -3.359226 0
M  V30 13 C -0.375819 4.258331 -3.789492 0
M  V30 14 C 0.384452 5.183290 -3.094699 0
M  V30 15 C 1.236624 4.898729 -2.047455 0
M  V30 16 C 1.340496 3.579573 -1.658812 0
M  V30 17 N 0.715145 0.137481 -2.858182 0
M  V30 18 N 0.710137 -1.008181 -2.182723 0
M  V30 19 C 0.625743 -0.778145 -0.866251 0
M  V30 20 C 0.587566 -1.624909 0.218719 0
M  V30 21 C 0.983971 -1.430899 3.901138 0
M  V30 22 C 0.900523 -2.237831 5.016958 0
M  V30 23 C 0.306791 -3.504057 4.980768 0
M  V30 24 O 0.302685 -4.200179 6.205402 0
M  V30 25 H -2.170805 -6.537783 3.300440 0
M  V30 26 H -1.797718 -5.240896 2.098301 0
M  V30 27 H -0.597639 -6.557804 2.342278 0
M  V30 28 H -0.580320 -3.635107 1.789067 0
M  V30 29 H 0.376054 0.722734 2.605292 0
M  V30 30 H 0.445607 2.174799 0.674765 0
M  V30 31 H -0.828688 2.192778 -3.895474 0
M  V30 32 H -1.019997 4.564128 -4.599611 0
M  V30 33 H 0.334153 6.237182 -3.367338 0
M  V30 34 H 1.806817 5.631796 -1.534337 0
M  V30 35 H 1.977596 3.222498 -0.846506 0
M  V30 36 H 0.764233 -1.941171 -2.621748 0
M  V30 37 H 0.624786 -2.698271 0.134862 0
M  V30 38 H 1.437492 -0.454455 3.912110 0
M  V30 39 H 1.318576 -1.842749 5.926807 0
M  V30 40 H -0.578746 -4.232562 6.720145 0
M  V30 END ATOM
M  V30 BEGIN BOND
M  V30 1 1 1 2
M  V30 2 1 2 3
M  V30 3 2 3 4
M  V30 4 1 4 5
M  V30 5 1 5 6
M  V30 6 2 6 7
M  V30 7 1 7 8
M  V30 8 2 8 9
M  V30 9 1 9 10
M  V30 10 1 10 11
M  V30 11 2 11 12
M  V30 12 1 12 13
M  V30 13 2 13 14
M  V30 14 1 14 15
M  V30 15 2 15 16
M  V30 16 2 10 17
M  V30 17 1 17 18
M  V30 18 1 18 19
M  V30 19 2 19 20
M  V30 20 2 5 21
M  V30 21 1 21 22
M  V30 22 2 22 23
M  V30 23 1 23 24
M  V30 24 1 23 3
M  V30 25 1 20 6
M  V30 26 1 19 9
M  V30 27 1 16 11
M  V30 28 1 1 25
M  V30 29 1 1 26
M  V30 30 1 1 27
M  V30 31 1 4 28
M  V30 32 1 7 29
M  V30 33 1 8 30
M  V30 34 1 12 31
M  V30 35 1 13 32
M  V30 36 1 14 33
M  V30 37 1 15 34
M  V30 38 1 16 35
M  V30 39 1 18 36
M  V30 40 1 20 37
M  V30 41 1 21 38
M  V30 42 1 22 39
M  V30 43 1 24 40
M  V30 END BOND
M  V30 END CTAB
M  END
>  <Dataset>  (133) 
ChEMBL_Kinases

>  <Ligand_Instance>  (133) 
nan

>  <PDB_ID>  (133) 
nan

>  <Standardized_SMILES>  (133) 
COc1cc(-c2ccc3c(-c4ccccc4)n[nH]c3c2)ccc1O

>  <Name>  (133) 
nan

>  <Pocket>  (133) 
nan

>  <ATP_Site>  (133) 
nan

>  <Peripheral>  (133) 
nan

>  <Num_H_Atoms_ProtBoundConf>  (133) 
nan

>  <Num_Resolved_Atoms>  (133) 
nan

>  <Num_Not_Resolved_Atoms>  (133) 
nan

$$$$
CHEMBL3896223
     RDKit          3D

  0  0  0  0  0  0  0  0  0  0999 V3000
M  V30 BEGIN CTAB
M  V30 COUNTS 64 68 0 0 0
M  V30 BEGIN ATOM
M  V30 1 C 3.483886 2.398093 1.336236 0
M  V30 2 C 3.469837 1.187583 0.492036 0 CFG=1
M  V30 3 C 3.914154 -0.024311 1.328050 0
M  V30 4 N 2.783927 -0.890387 1.593939 0
M  V30 5 C 3.009514 -1.789257 2.674944 0
M  V30 6 C 3.084350 -1.004643 3.962800 0
M  V30 7 C 3.321121 -1.797487 5.240069 0
M  V30 8 C 4.427089 -0.909358 4.694922 0
M  V30 9 C 2.354613 -1.518374 0.357270 0
M  V30 10 C 2.416240 -0.495796 -0.747525 0
M  V30 11 N 2.202840 0.808561 -0.094721 0
M  V30 12 C 1.033318 1.568236 -0.009652 0
M  V30 13 O 1.208342 2.670250 0.609504 0
M  V30 14 N -0.310775 1.341404 -0.482832 0
M  V30 15 C -1.066549 0.319681 -1.198954 0
M  V30 16 C -2.212536 0.129933 -0.234485 0
M  V30 17 C -3.140984 -0.701092 0.357800 0
M  V30 18 N -3.228155 -2.103223 0.042363 0
M  V30 19 C -4.087241 -2.493798 -1.019680 0
M  V30 20 O -4.635567 -1.440004 -1.498344 0
M  V30 21 C -4.343756 -3.824649 -1.522850 0
M  V30 22 C -5.249713 -3.881227 -2.582779 0
M  V30 23 C -5.594129 -5.078415 -3.167350 0
M  V30 24 C -5.079833 -6.280052 -2.756244 0
M  V30 25 F -5.443545 -7.429434 -3.356383 0
M  V30 26 C -4.172406 -6.233519 -1.695924 0
M  V30 27 C -3.843486 -5.042305 -1.130349 0
M  V30 28 F -2.969261 -4.983296 -0.106627 0
M  V30 29 N -3.895475 0.000006 1.224060 0
M  V30 30 N -3.466050 1.247838 1.191728 0
M  V30 31 C -2.443281 1.366751 0.316593 0
M  V30 32 C -1.429880 2.251979 -0.334681 0
M  V30 33 C -2.019465 2.675779 -1.674674 0
M  V30 34 C -1.140283 3.461454 0.512255 0
M  V30 35 H 2.841932 2.404728 2.214882 0
M  V30 36 H 4.537844 2.473146 1.757211 0
M  V30 37 H 3.414923 3.331588 0.713226 0
M  V30 38 H 4.196355 1.315332 -0.344419 0
M  V30 39 H 4.654585 -0.641154 0.742681 0
M  V30 40 H 4.424394 0.308619 2.234303 0
M  V30 41 H 2.244571 -2.585753 2.741394 0
M  V30 42 H 4.026639 -2.253904 2.547499 0
M  V30 43 H 2.386374 -0.153840 4.086849 0
M  V30 44 H 2.791632 -1.496809 6.147085 0
M  V30 45 H 3.446386 -2.892681 5.123464 0
M  V30 46 H 5.318315 -1.374027 4.235282 0
M  V30 47 H 4.615757 0.030945 5.263203 0
M  V30 48 H 3.071241 -2.361849 0.184719 0
M  V30 49 H 1.347650 -1.978570 0.459405 0
M  V30 50 H 1.773549 -0.671814 -1.600947 0
M  V30 51 H 3.462695 -0.576332 -1.165400 0
M  V30 52 H -0.527383 -0.629103 -1.342989 0
M  V30 53 H -1.505089 0.719727 -2.122643 0
M  V30 54 H -2.705426 -2.856160 0.537925 0
M  V30 55 H -5.731355 -2.985595 -3.003266 0
M  V30 56 H -6.289943 -5.105780 -3.979355 0
M  V30 57 H -3.741610 -7.144328 -1.337379 0
M  V30 58 H -3.762665 2.128826 1.701705 0
M  V30 59 H -1.293776 2.695763 -2.492119 0
M  V30 60 H -2.355950 3.748699 -1.550212 0
M  V30 61 H -2.940228 2.127034 -1.932178 0
M  V30 62 H -0.847421 3.178491 1.518660 0
M  V30 63 H -0.459940 4.118986 -0.044194 0
M  V30 64 H -2.120455 4.033514 0.518802 0
M  V30 END ATOM
M  V30 BEGIN BOND
M  V30 1 1 1 2
M  V30 2 1 2 3
M  V30 3 1 3 4
M  V30 4 1 4 5
M  V30 5 1 5 6
M  V30 6 1 6 7
M  V30 7 1 7 8
M  V30 8 1 4 9
M  V30 9 1 9 10
M  V30 10 1 10 11
M  V30 11 1 11 12
M  V30 12 2 12 13
M  V30 13 1 12 14
M  V30 14 1 14 15
M  V30 15 1 15 16
M  V30 16 1 16 17
M  V30 17 1 17 18
M  V30 18 1 18 19
M  V30 19 2 19 20
M  V30 20 1 19 21
M  V30 21 2 21 22
M  V30 22 1 22 23
M  V30 23 2 23 24
M  V30 24 1 24 25
M  V30 25 1 24 26
M  V30 26 2 26 27
M  V30 27 1 27 28
M  V30 28 2 17 29
M  V30 29 1 29 30
M  V30 30 1 30 31
M  V30 31 1 31 32
M  V30 32 1 32 33
M  V30 33 1 32 34
M  V30 34 1 11 2
M  V30 35 1 32 14
M  V30 36 1 8 6
M  V30 37 2 31 16
M  V30 38 1 27 21
M  V30 39 1 1 35
M  V30 40 1 1 36
M  V30 41 1 1 37
M  V30 42 1 2 38 CFG=3
M  V30 43 1 3 39
M  V30 44 1 3 40
M  V30 45 1 5 41
M  V30 46 1 5 42
M  V30 47 1 6 43
M  V30 48 1 7 44
M  V30 49 1 7 45
M  V30 50 1 8 46
M  V30 51 1 8 47
M  V30 52 1 9 48
M  V30 53 1 9 49
M  V30 54 1 10 50
M  V30 55 1 10 51
M  V30 56 1 15 52
M  V30 57 1 15 53
M  V30 58 1 18 54
M  V30 59 1 22 55
M  V30 60 1 23 56
M  V30 61 1 26 57
M  V30 62 1 30 58
M  V30 63 1 33 59
M  V30 64 1 33 60
M  V30 65 1 33 61
M  V30 66 1 34 62
M  V30 67 1 34 63
M  V30 68 1 34 64
M  V30 END BOND
M  V30 END CTAB
M  END
>  <Dataset>  (134) 
ChEMBL_Kinases

>  <Ligand_Instance>  (134) 
nan

>  <PDB_ID>  (134) 
nan

>  <Standardized_SMILES>  (134) 
C[C@H]1CN(CC2CC2)CCN1C(=O)N1Cc2c(NC(=O)c3ccc(F)cc3F)n[nH]c2C1(C)C

>  <Name>  (134) 
nan

>  <Pocket>  (134) 
nan

>  <ATP_Site>  (134) 
nan

>  <Peripheral>  (134) 
nan

>  <Num_H_Atoms_ProtBoundConf>  (134) 
nan

>  <Num_Resolved_Atoms>  (134) 
nan

>  <Num_Not_Resolved_Atoms>  (134) 
nan

$$$$
CHEMBL3896597
     RDKit          3D

  0  0  0  0  0  0  0  0  0  0999 V3000
M  V30 BEGIN CTAB
M  V30 COUNTS 56 59 0 0 0
M  V30 BEGIN ATOM
M  V30 1 C 6.447684 -1.894300 6.482339 0
M  V30 2 C 5.888462 -0.680999 5.775286 0
M  V30 3 C 4.613788 -1.093858 5.128660 0
M  V30 4 C 4.577117 -1.591740 3.841930 0
M  V30 5 C 3.398092 -1.981288 3.222486 0
M  V30 6 C 2.208052 -1.881425 3.883573 0
M  V30 7 N 0.927323 -2.240435 3.376690 0
M  V30 8 C 0.380295 -1.648427 2.375073 0
M  V30 9 S 1.249178 -0.287584 1.542139 0
M  V30 10 C -0.284578 0.394370 0.772265 0
M  V30 11 C 0.024660 1.200322 -0.433285 0
M  V30 12 C -1.239879 1.727106 -0.999001 0
M  V30 13 C -1.591726 2.935555 -0.389275 0
M  V30 14 C -2.732734 3.630634 -0.754963 0
M  V30 15 N -3.545477 3.148190 -1.725802 0
M  V30 16 C -3.208371 1.995021 -2.306920 0
M  V30 17 N -4.002059 1.418466 -3.331016 0
M  V30 18 C -3.807981 0.211545 -4.061031 0
M  V30 19 C -4.382150 -0.914101 -3.507566 0
M  V30 20 C -4.209423 -2.111963 -4.198721 0
M  V30 21 C -3.483092 -2.072783 -5.371905 0
M  V30 22 C -3.325604 -3.345745 -6.063667 0
M  V30 23 O -3.819510 -4.395213 -5.613043 0
M  V30 24 O -2.612139 -3.447226 -7.266912 0
M  V30 25 C -2.910231 -0.938450 -5.920361 0
M  V30 26 N -3.103351 0.211136 -5.212270 0
M  V30 27 C -2.086669 1.265351 -1.981563 0
M  V30 28 C -0.939949 -0.906838 0.504824 0
M  V30 29 O -1.567056 -1.507997 -0.439850 0
M  V30 30 N -0.851235 -1.754115 1.636615 0
M  V30 31 C -1.785686 -2.737466 2.212156 0
M  V30 32 C 2.236092 -1.377935 5.187961 0
M  V30 33 C 3.413895 -0.991319 5.800362 0
M  V30 34 H 6.871847 -1.658872 7.469281 0
M  V30 35 H 5.663551 -2.686572 6.630829 0
M  V30 36 H 7.251919 -2.381472 5.906667 0
M  V30 37 H 5.618160 0.052334 6.583594 0
M  V30 38 H 6.590138 -0.211715 5.074348 0
M  V30 39 H 5.481790 -1.697771 3.260833 0
M  V30 40 H 3.362117 -2.375928 2.205655 0
M  V30 41 H -0.759686 0.964744 1.569961 0
M  V30 42 H 0.771540 1.998739 -0.264603 0
M  V30 43 H 0.453375 0.557334 -1.261907 0
M  V30 44 H -1.040999 3.448021 0.404467 0
M  V30 45 H -3.040901 4.564294 -0.311309 0
M  V30 46 H -4.870182 1.913296 -3.631983 0
M  V30 47 H -4.941269 -0.883239 -2.584234 0
M  V30 48 H -4.630669 -3.035270 -3.825277 0
M  V30 49 H -2.528612 -4.324026 -7.727204 0
M  V30 50 H -2.356746 -1.005341 -6.847249 0
M  V30 51 H -1.739755 0.335304 -2.404693 0
M  V30 52 H -1.302372 -3.702457 2.363534 0
M  V30 53 H -2.112452 -2.334322 3.186460 0
M  V30 54 H -2.697327 -2.798123 1.580366 0
M  V30 55 H 1.316775 -1.275759 5.764083 0
M  V30 56 H 3.387527 -0.605551 6.816019 0
M  V30 END ATOM
M  V30 BEGIN BOND
M  V30 1 1 1 2
M  V30 2 1 2 3
M  V30 3 2 3 4
M  V30 4 1 4 5
M  V30 5 2 5 6
M  V30 6 1 6 7
M  V30 7 2 7 8
M  V30 8 1 8 9
M  V30 9 1 9 10
M  V30 10 1 10 11
M  V30 11 1 11 12
M  V30 12 2 12 13
M  V30 13 1 13 14
M  V30 14 2 14 15
M  V30 15 1 15 16
M  V30 16 1 16 17
M  V30 17 1 17 18
M  V30 18 2 18 19
M  V30 19 1 19 20
M  V30 20 2 20 21
M  V30 21 1 21 22
M  V30 22 2 22 23
M  V30 23 1 22 24
M  V30 24 1 21 25
M  V30 25 2 25 26
M  V30 26 2 16 27
M  V30 27 1 10 28
M  V30 28 2 28 29
M  V30 29 1 28 30
M  V30 30 1 30 31
M  V30 31 1 6 32
M  V30 32 2 32 33
M  V30 33 1 33 3
M  V30 34 1 30 8
M  V30 35 1 27 12
M  V30 36 1 26 18
M  V30 37 1 1 34
M  V30 38 1 1 35
M  V30 39 1 1 36
M  V30 40 1 2 37
M  V30 41 1 2 38
M  V30 42 1 4 39
M  V30 43 1 5 40
M  V30 44 1 10 41
M  V30 45 1 11 42
M  V30 46 1 11 43
M  V30 47 1 13 44
M  V30 48 1 14 45
M  V30 49 1 17 46
M  V30 50 1 19 47
M  V30 51 1 20 48
M  V30 52 1 24 49
M  V30 53 1 25 50
M  V30 54 1 27 51
M  V30 55 1 31 52
M  V30 56 1 31 53
M  V30 57 1 31 54
M  V30 58 1 32 55
M  V30 59 1 33 56
M  V30 END BOND
M  V30 END CTAB
M  END
>  <Dataset>  (135) 
ChEMBL_Kinases

>  <Ligand_Instance>  (135) 
nan

>  <PDB_ID>  (135) 
nan

>  <Standardized_SMILES>  (135) 
CCc1ccc(/N=C2\SC(Cc3ccnc(Nc4ccc(C(=O)O)cn4)c3)C(=O)N2C)cc1

>  <Name>  (135) 
nan

>  <Pocket>  (135) 
nan

>  <ATP_Site>  (135) 
nan

>  <Peripheral>  (135) 
nan

>  <Num_H_Atoms_ProtBoundConf>  (135) 
nan

>  <Num_Resolved_Atoms>  (135) 
nan

>  <Num_Not_Resolved_Atoms>  (135) 
nan

$$$$
CHEMBL3908343
     RDKit          3D

  0  0  0  0  0  0  0  0  0  0999 V3000
M  V30 BEGIN CTAB
M  V30 COUNTS 28 28 0 0 0
M  V30 BEGIN ATOM
M  V30 1 C -2.205520 -3.561724 2.001327 0
M  V30 2 C -0.818322 -3.646083 2.514033 0
M  V30 3 O -0.146490 -4.419742 3.252071 0
M  V30 4 N 0.080523 -2.594715 2.104764 0
M  V30 5 C 1.426357 -2.609286 2.554825 0
M  V30 6 S 2.122801 -3.699447 3.511149 0
M  V30 7 N 2.322224 -1.582811 2.157965 0
M  V30 8 C 1.808005 -0.568519 1.303730 0
M  V30 9 C 1.989122 -0.751031 -0.063638 0
M  V30 10 C 1.482876 0.240191 -0.887299 0
M  V30 11 C 0.832549 1.349491 -0.364745 0
M  V30 12 S 0.266264 2.500120 -1.560275 0
M  V30 13 N -1.279084 2.111395 -2.136484 0
M  V30 14 O 1.224119 2.626312 -2.707979 0
M  V30 15 O 0.183657 3.891521 -0.940640 0
M  V30 16 C 0.664065 1.508468 1.009117 0
M  V30 17 C 1.164266 0.527314 1.840557 0
M  V30 18 H -2.287397 -3.722034 0.909257 0
M  V30 19 H -2.884317 -4.274928 2.528024 0
M  V30 20 H -2.596504 -2.523464 2.189998 0
M  V30 21 H -0.221807 -1.798616 1.472563 0
M  V30 22 H 3.322693 -1.436115 2.389305 0
M  V30 23 H 2.502312 -1.633298 -0.421761 0
M  V30 24 H 1.630638 0.087096 -1.947020 0
M  V30 25 H -2.062432 2.587680 -1.639163 0
M  V30 26 H -1.513844 1.118459 -2.224453 0
M  V30 27 H 0.152159 2.391480 1.344504 0
M  V30 28 H 1.046692 0.629302 2.912877 0
M  V30 END ATOM
M  V30 BEGIN BOND
M  V30 1 1 1 2
M  V30 2 2 2 3
M  V30 3 1 2 4
M  V30 4 1 4 5
M  V30 5 2 5 6
M  V30 6 1 5 7
M  V30 7 1 7 8
M  V30 8 2 8 9
M  V30 9 1 9 10
M  V30 10 2 10 11
M  V30 11 1 11 12
M  V30 12 1 12 13
M  V30 13 2 12 14
M  V30 14 2 12 15
M  V30 15 1 11 16
M  V30 16 2 16 17
M  V30 17 1 17 8
M  V30 18 1 1 18
M  V30 19 1 1 19
M  V30 20 1 1 20
M  V30 21 1 4 21
M  V30 22 1 7 22
M  V30 23 1 9 23
M  V30 24 1 10 24
M  V30 25 1 13 25
M  V30 26 1 13 26
M  V30 27 1 16 27
M  V30 28 1 17 28
M  V30 END BOND
M  V30 END CTAB
M  END
>  <Dataset>  (136) 
ChEMBL_Kinases

>  <Ligand_Instance>  (136) 
nan

>  <PDB_ID>  (136) 
nan

>  <Standardized_SMILES>  (136) 
CC(=O)NC(=S)Nc1ccc(S(N)(=O)=O)cc1

>  <Name>  (136) 
nan

>  <Pocket>  (136) 
nan

>  <ATP_Site>  (136) 
nan

>  <Peripheral>  (136) 
nan

>  <Num_H_Atoms_ProtBoundConf>  (136) 
nan

>  <Num_Resolved_Atoms>  (136) 
nan

>  <Num_Not_Resolved_Atoms>  (136) 
nan

$$$$
CHEMBL389658
     RDKit          3D

  0  0  0  0  0  0  0  0  0  0999 V3000
M  V30 BEGIN CTAB
M  V30 COUNTS 40 43 0 0 0
M  V30 BEGIN ATOM
M  V30 1 O 1.009750 -6.826684 5.280318 0
M  V30 2 C 0.848814 -6.497854 4.087254 0
M  V30 3 O 0.775711 -7.542248 3.179104 0
M  V30 4 C 0.748149 -5.099841 3.706773 0
M  V30 5 C 0.837175 -4.162245 4.709887 0
M  V30 6 C 0.741373 -2.812574 4.353653 0
M  V30 7 C 0.566006 -2.430611 3.061168 0
M  V30 8 C 0.473810 -1.007588 2.756514 0
M  V30 9 C 0.297672 -0.483031 1.501462 0
M  V30 10 C 0.221000 0.881137 1.303574 0
M  V30 11 C 0.032904 1.395831 -0.050423 0
M  V30 12 C -0.082419 0.648879 -1.205802 0
M  V30 13 C -0.245393 1.539110 -2.242820 0
M  V30 14 C -0.232482 2.825868 -1.745122 0
M  V30 15 N -0.061620 2.688178 -0.414292 0
M  V30 16 C -0.385921 4.018050 -2.613087 0
M  V30 17 C 0.126202 3.705927 -3.997963 0
M  V30 18 N -0.562312 2.514387 -4.491070 0
M  V30 19 C -0.417161 1.334958 -3.685688 0
M  V30 20 O -0.438260 0.180428 -4.208706 0
M  V30 21 C 0.317589 1.773132 2.353669 0
M  V30 22 C 0.494961 1.195459 3.602352 0
M  V30 23 N 0.568716 -0.145930 3.783779 0
M  V30 24 C 0.483125 -3.411321 2.094262 0
M  V30 25 C 0.570623 -4.760152 2.383950 0
M  V30 26 H 1.386568 -8.368214 3.231701 0
M  V30 27 H 0.977674 -4.468546 5.745250 0
M  V30 28 H 0.815783 -2.098614 5.170676 0
M  V30 29 H 0.220488 -1.148081 0.676926 0
M  V30 30 H -0.048392 -0.418602 -1.259194 0
M  V30 31 H -0.003936 3.476683 0.290569 0
M  V30 32 H -1.494098 4.162275 -2.735164 0
M  V30 33 H 0.068497 4.914989 -2.198559 0
M  V30 34 H 1.219838 3.541577 -4.039551 0
M  V30 35 H -0.159926 4.533972 -4.655475 0
M  V30 36 H -1.150011 2.438899 -5.373639 0
M  V30 37 H 0.259091 2.847693 2.213141 0
M  V30 38 H 0.578131 1.858970 4.474480 0
M  V30 39 H 0.345110 -3.146453 1.066065 0
M  V30 40 H 0.500653 -5.496256 1.595853 0
M  V30 END ATOM
M  V30 BEGIN BOND
M  V30 1 2 1 2
M  V30 2 1 2 3
M  V30 3 1 2 4
M  V30 4 2 4 5
M  V30 5 1 5 6
M  V30 6 2 6 7
M  V30 7 1 7 8
M  V30 8 2 8 9
M  V30 9 1 9 10
M  V30 10 1 10 11
M  V30 11 2 11 12
M  V30 12 1 12 13
M  V30 13 2 13 14
M  V30 14 1 14 15
M  V30 15 1 14 16
M  V30 16 1 16 17
M  V30 17 1 17 18
M  V30 18 1 18 19
M  V30 19 2 19 20
M  V30 20 2 10 21
M  V30 21 1 21 22
M  V30 22 2 22 23
M  V30 23 1 7 24
M  V30 24 2 24 25
M  V30 25 1 25 4
M  V30 26 1 23 8
M  V30 27 1 15 11
M  V30 28 1 19 13
M  V30 29 1 3 26
M  V30 30 1 5 27
M  V30 31 1 6 28
M  V30 32 1 9 29
M  V30 33 1 12 30
M  V30 34 1 15 31
M  V30 35 1 16 32
M  V30 36 1 16 33
M  V30 37 1 17 34
M  V30 38 1 17 35
M  V30 39 1 18 36
M  V30 40 1 21 37
M  V30 41 1 22 38
M  V30 42 1 24 39
M  V30 43 1 25 40
M  V30 END BOND
M  V30 END CTAB
M  END
>  <Dataset>  (137) 
ChEMBL_Kinases

>  <Ligand_Instance>  (137) 
nan

>  <PDB_ID>  (137) 
nan

>  <Standardized_SMILES>  (137) 
O=C(O)c1ccc(-c2cc(-c3cc4c([nH]3)CCNC4=O)ccn2)cc1

>  <Name>  (137) 
nan

>  <Pocket>  (137) 
nan

>  <ATP_Site>  (137) 
nan

>  <Peripheral>  (137) 
nan

>  <Num_H_Atoms_ProtBoundConf>  (137) 
nan

>  <Num_Resolved_Atoms>  (137) 
nan

>  <Num_Not_Resolved_Atoms>  (137) 
nan

$$$$
CHEMBL389657
     RDKit          3D

  0  0  0  0  0  0  0  0  0  0999 V3000
M  V30 BEGIN CTAB
M  V30 COUNTS 38 41 0 0 0
M  V30 BEGIN ATOM
M  V30 1 N 1.279655 -4.596881 7.903390 0
M  V30 2 C 1.396031 -4.166848 6.831306 0
M  V30 3 C 1.534127 -3.624706 5.507573 0
M  V30 4 C 0.554653 -2.790824 5.013912 0
M  V30 5 C 0.656695 -2.254347 3.748760 0
M  V30 6 C 1.729337 -2.520499 2.922743 0
M  V30 7 C 1.899994 -1.986293 1.573611 0
M  V30 8 C 1.001386 -1.155832 0.982682 0
M  V30 9 C 1.183538 -0.662638 -0.294626 0
M  V30 10 C 0.180373 0.228365 -0.877974 0
M  V30 11 C 0.230430 0.792804 -2.135147 0
M  V30 12 C -0.913383 1.558709 -2.272186 0
M  V30 13 C -1.634796 1.444504 -1.096881 0
M  V30 14 N -0.949625 0.634712 -0.273321 0
M  V30 15 C -2.943085 2.163441 -0.921710 0
M  V30 16 C -3.018474 3.348742 -1.836391 0
M  V30 17 N -2.639480 3.047945 -3.183403 0
M  V30 18 C -1.396955 2.387495 -3.396926 0
M  V30 19 O -0.745541 2.496263 -4.470091 0
M  V30 20 C 2.303656 -1.002668 -1.026103 0
M  V30 21 C 3.191198 -1.847205 -0.391126 0
M  V30 22 N 2.989847 -2.313678 0.854599 0
M  V30 23 C 2.687465 -3.358991 3.453779 0
M  V30 24 C 2.622678 -3.915043 4.712057 0
M  V30 25 H -0.341471 -2.513682 5.588264 0
M  V30 26 H -0.118677 -1.601275 3.372825 0
M  V30 27 H 0.119839 -0.856508 1.491373 0
M  V30 28 H 1.030865 0.646011 -2.861404 0
M  V30 29 H -1.299661 0.390840 0.695046 0
M  V30 30 H -3.098260 2.483037 0.113502 0
M  V30 31 H -3.722379 1.444418 -1.239079 0
M  V30 32 H -4.098918 3.674088 -1.858432 0
M  V30 33 H -2.461028 4.240035 -1.464781 0
M  V30 34 H -3.223337 3.284209 -4.039065 0
M  V30 35 H 2.445460 -0.612755 -2.033073 0
M  V30 36 H 4.099155 -2.154112 -0.917960 0
M  V30 37 H 3.546908 -3.589574 2.828548 0
M  V30 38 H 3.396497 -4.562392 5.077887 0
M  V30 END ATOM
M  V30 BEGIN BOND
M  V30 1 3 1 2
M  V30 2 1 2 3
M  V30 3 2 3 4
M  V30 4 1 4 5
M  V30 5 2 5 6
M  V30 6 1 6 7
M  V30 7 2 7 8
M  V30 8 1 8 9
M  V30 9 1 9 10
M  V30 10 2 10 11
M  V30 11 1 11 12
M  V30 12 2 12 13
M  V30 13 1 13 14
M  V30 14 1 13 15
M  V30 15 1 15 16
M  V30 16 1 16 17
M  V30 17 1 17 18
M  V30 18 2 18 19
M  V30 19 2 9 20
M  V30 20 1 20 21
M  V30 21 2 21 22
M  V30 22 1 6 23
M  V30 23 2 23 24
M  V30 24 1 24 3
M  V30 25 1 22 7
M  V30 26 1 14 10
M  V30 27 1 18 12
M  V30 28 1 4 25
M  V30 29 1 5 26
M  V30 30 1 8 27
M  V30 31 1 11 28
M  V30 32 1 14 29
M  V30 33 1 15 30
M  V30 34 1 15 31
M  V30 35 1 16 32
M  V30 36 1 16 33
M  V30 37 1 17 34
M  V30 38 1 20 35
M  V30 39 1 21 36
M  V30 40 1 23 37
M  V30 41 1 24 38
M  V30 END BOND
M  V30 END CTAB
M  END
>  <Dataset>  (138) 
ChEMBL_Kinases

>  <Ligand_Instance>  (138) 
nan

>  <PDB_ID>  (138) 
nan

>  <Standardized_SMILES>  (138) 
N#Cc1ccc(-c2cc(-c3cc4c([nH]3)CCNC4=O)ccn2)cc1

>  <Name>  (138) 
nan

>  <Pocket>  (138) 
nan

>  <ATP_Site>  (138) 
nan

>  <Peripheral>  (138) 
nan

>  <Num_H_Atoms_ProtBoundConf>  (138) 
nan

>  <Num_Resolved_Atoms>  (138) 
nan

>  <Num_Not_Resolved_Atoms>  (138) 
nan

$$$$
CHEMBL3896516
     RDKit          3D

  0  0  0  0  0  0  0  0  0  0999 V3000
M  V30 BEGIN CTAB
M  V30 COUNTS 46 49 0 0 0
M  V30 BEGIN ATOM
M  V30 1 C 3.210033 -4.004894 2.664950 0
M  V30 2 C 4.060991 -2.904105 2.163548 0
M  V30 3 C 3.657083 -1.587670 2.166592 0
M  V30 4 C 4.694594 -0.831683 1.630156 0
M  V30 5 C 4.567601 0.662790 1.493066 0 CFG=1
M  V30 6 C 5.092069 1.259072 2.776992 0
M  V30 7 O 5.263726 1.116128 0.368801 0
M  V30 8 C 3.139868 1.022060 1.301961 0
M  V30 9 C 1.971297 1.301044 1.161275 0
M  V30 10 C 0.576583 1.611670 1.006017 0
M  V30 11 C 0.077563 2.864254 1.304591 0
M  V30 12 C -1.283621 3.049360 1.116454 0
M  V30 13 C -2.083861 2.025603 0.654474 0
M  V30 14 C -1.567467 0.764875 0.356507 0
M  V30 15 C -0.228415 0.584288 0.542054 0
M  V30 16 C -2.246377 -0.428398 -0.136169 0
M  V30 17 N -1.591766 -1.512213 -0.643740 0
M  V30 18 C -2.522893 -2.424295 -1.000838 0
M  V30 19 C -2.195826 -3.714957 -1.583912 0
M  V30 20 N -3.177247 -4.657418 -1.952008 0
M  V30 21 O -0.983132 -3.984498 -1.759764 0
M  V30 22 C -3.740670 -1.858093 -0.694280 0
M  V30 23 N -3.578772 -0.623068 -0.158802 0
M  V30 24 C -4.628812 0.245989 0.273029 0
M  V30 25 C -4.487205 1.677044 -0.147609 0
M  V30 26 O -3.432212 2.356290 0.513814 0
M  V30 27 N 5.655113 -1.699165 1.333778 0
M  V30 28 O 5.247728 -2.876858 1.656953 0
M  V30 29 H 2.527610 -3.639329 3.463582 0
M  V30 30 H 3.807781 -4.804273 3.131983 0
M  V30 31 H 2.537756 -4.425008 1.886664 0
M  V30 32 H 2.689250 -1.209348 2.528574 0
M  V30 33 H 4.336757 1.960376 3.164299 0
M  V30 34 H 5.355125 0.499860 3.544584 0
M  V30 35 H 6.055849 1.758223 2.532042 0
M  V30 36 H 5.162080 0.496820 -0.373761 0
M  V30 37 H 0.722960 3.649557 1.664660 0
M  V30 38 H -1.739628 4.007933 1.331581 0
M  V30 39 H 0.169422 -0.404990 0.306905 0
M  V30 40 H -3.410873 -4.657692 -2.988243 0
M  V30 41 H -3.899985 -5.409588 -1.977048 0
M  V30 42 H -4.684385 -2.369431 -0.874556 0
M  V30 43 H -4.803714 0.200797 1.370366 0
M  V30 44 H -5.584076 -0.113503 -0.177410 0
M  V30 45 H -4.399061 1.787658 -1.228107 0
M  V30 46 H -5.420546 2.192318 0.173899 0
M  V30 END ATOM
M  V30 BEGIN BOND
M  V30 1 1 1 2
M  V30 2 2 2 3
M  V30 3 1 3 4
M  V30 4 1 4 5
M  V30 5 1 5 6
M  V30 6 1 5 7
M  V30 7 1 5 8 CFG=3
M  V30 8 3 8 9
M  V30 9 1 9 10
M  V30 10 2 10 11
M  V30 11 1 11 12
M  V30 12 2 12 13
M  V30 13 1 13 14
M  V30 14 2 14 15
M  V30 15 1 14 16
M  V30 16 2 16 17
M  V30 17 1 17 18
M  V30 18 1 18 19
M  V30 19 1 19 20
M  V30 20 2 19 21
M  V30 21 2 18 22
M  V30 22 1 22 23
M  V30 23 1 23 24
M  V30 24 1 24 25
M  V30 25 1 25 26
M  V30 26 2 4 27
M  V30 27 1 27 28
M  V30 28 1 28 2
M  V30 29 1 15 10
M  V30 30 1 23 16
M  V30 31 1 26 13
M  V30 32 1 1 29
M  V30 33 1 1 30
M  V30 34 1 1 31
M  V30 35 1 3 32
M  V30 36 1 6 33
M  V30 37 1 6 34
M  V30 38 1 6 35
M  V30 39 1 7 36
M  V30 40 1 11 37
M  V30 41 1 12 38
M  V30 42 1 15 39
M  V30 43 1 20 40
M  V30 44 1 20 41
M  V30 45 1 22 42
M  V30 46 1 24 43
M  V30 47 1 24 44
M  V30 48 1 25 45
M  V30 49 1 25 46
M  V30 END BOND
M  V30 END CTAB
M  END
>  <Dataset>  (139) 
ChEMBL_Kinases

>  <Ligand_Instance>  (139) 
nan

>  <PDB_ID>  (139) 
nan

>  <Standardized_SMILES>  (139) 
Cc1cc([C@@](C)(O)C#Cc2ccc3c(c2)-c2nc(C(N)=O)cn2CCO3)no1

>  <Name>  (139) 
nan

>  <Pocket>  (139) 
nan

>  <ATP_Site>  (139) 
nan

>  <Peripheral>  (139) 
nan

>  <Num_H_Atoms_ProtBoundConf>  (139) 
nan

>  <Num_Resolved_Atoms>  (139) 
nan

>  <Num_Not_Resolved_Atoms>  (139) 
nan

$$$$
CHEMBL3896405
     RDKit          3D

  0  0  0  0  0  0  0  0  0  0999 V3000
M  V30 BEGIN CTAB
M  V30 COUNTS 41 44 0 0 0
M  V30 BEGIN ATOM
M  V30 1 N 3.517565 -8.217230 -0.008407 0
M  V30 2 C 3.685384 -6.885600 -0.539081 0
M  V30 3 O 4.690419 -7.024614 -1.276287 0
M  V30 4 C 2.754389 -5.847152 -0.129325 0
M  V30 5 C 1.701588 -6.145990 0.702841 0
M  V30 6 C 0.881195 -5.099566 1.045416 0
M  V30 7 C 1.085151 -3.791123 0.585252 0
M  V30 8 N 0.418322 -2.636069 0.787913 0
M  V30 9 C 1.043844 -1.663175 0.100962 0
M  V30 10 C 0.591395 -0.274991 0.091701 0
M  V30 11 C -0.509854 0.063934 0.848758 0
M  V30 12 C -0.969555 1.364964 0.850167 0
M  V30 13 C -0.385887 2.384114 0.124375 0
M  V30 14 C -0.823598 3.771387 0.128873 0
M  V30 15 O -0.635879 4.551117 -0.848398 0
M  V30 16 C -1.513881 4.383885 1.255502 0
M  V30 17 C -1.359301 3.912767 2.564497 0
M  V30 18 C -1.967708 4.392028 3.689722 0
M  V30 19 C -2.838905 5.462156 3.551994 0
M  V30 20 C -3.015054 5.955055 2.264161 0
M  V30 21 C -2.396996 5.462546 1.150446 0
M  V30 22 C 0.734616 2.034745 -0.644953 0
M  V30 23 C 1.204837 0.724080 -0.652009 0
M  V30 24 N 2.098746 -2.220153 -0.526596 0
M  V30 25 C 2.152998 -3.540407 -0.247008 0
M  V30 26 C 2.983864 -4.575681 -0.599870 0
M  V30 27 H 4.063605 -8.686063 0.774988 0
M  V30 28 H 2.986031 -9.108634 -0.067877 0
M  V30 29 H 1.544118 -7.159812 1.055739 0
M  V30 30 H 0.046177 -5.329586 1.702830 0
M  V30 31 H -0.434010 -2.622112 1.399462 0
M  V30 32 H -1.046144 -0.671605 1.464168 0
M  V30 33 H -1.855736 1.577692 1.451983 0
M  V30 34 H -0.670527 3.077407 2.755153 0
M  V30 35 H -1.775114 3.944374 4.675613 0
M  V30 36 H -3.309141 5.827286 4.446955 0
M  V30 37 H -3.714493 6.804607 2.204601 0
M  V30 38 H -2.559729 5.874844 0.163252 0
M  V30 39 H 1.238868 2.804576 -1.240980 0
M  V30 40 H 2.078425 0.431541 -1.245024 0
M  V30 41 H 3.832809 -4.401591 -1.256427 0
M  V30 END ATOM
M  V30 BEGIN BOND
M  V30 1 1 1 2
M  V30 2 2 2 3
M  V30 3 1 2 4
M  V30 4 2 4 5
M  V30 5 1 5 6
M  V30 6 2 6 7
M  V30 7 1 7 8
M  V30 8 1 8 9
M  V30 9 1 9 10
M  V30 10 2 10 11
M  V30 11 1 11 12
M  V30 12 2 12 13
M  V30 13 1 13 14
M  V30 14 2 14 15
M  V30 15 1 14 16
M  V30 16 2 16 17
M  V30 17 1 17 18
M  V30 18 2 18 19
M  V30 19 1 19 20
M  V30 20 2 20 21
M  V30 21 1 13 22
M  V30 22 2 22 23
M  V30 23 2 9 24
M  V30 24 1 24 25
M  V30 25 2 25 26
M  V30 26 1 26 4
M  V30 27 1 25 7
M  V30 28 1 23 10
M  V30 29 1 21 16
M  V30 30 1 1 27
M  V30 31 1 1 28
M  V30 32 1 5 29
M  V30 33 1 6 30
M  V30 34 1 8 31
M  V30 35 1 11 32
M  V30 36 1 12 33
M  V30 37 1 17 34
M  V30 38 1 18 35
M  V30 39 1 19 36
M  V30 40 1 20 37
M  V30 41 1 21 38
M  V30 42 1 22 39
M  V30 43 1 23 40
M  V30 44 1 26 41
M  V30 END BOND
M  V30 END CTAB
M  END
>  <Dataset>  (140) 
ChEMBL_Kinases

>  <Ligand_Instance>  (140) 
nan

>  <PDB_ID>  (140) 
nan

>  <Standardized_SMILES>  (140) 
NC(=O)c1ccc2[nH]c(-c3ccc(C(=O)c4ccccc4)cc3)nc2c1

>  <Name>  (140) 
nan

>  <Pocket>  (140) 
nan

>  <ATP_Site>  (140) 
nan

>  <Peripheral>  (140) 
nan

>  <Num_H_Atoms_ProtBoundConf>  (140) 
nan

>  <Num_Resolved_Atoms>  (140) 
nan

>  <Num_Not_Resolved_Atoms>  (140) 
nan

$$$$
CHEMBL3908369
     RDKit          3D

  0  0  0  0  0  0  0  0  0  0999 V3000
M  V30 BEGIN CTAB
M  V30 COUNTS 46 50 0 0 0
M  V30 BEGIN ATOM
M  V30 1 N 4.231632 -7.300908 1.837999 0
M  V30 2 C 5.018077 -6.423963 2.624593 0
M  V30 3 O 6.000872 -6.784548 3.351755 0
M  V30 4 C 4.715193 -4.979464 2.634417 0
M  V30 5 C 5.486353 -4.123630 3.386571 0
M  V30 6 C 5.239438 -2.752577 3.426601 0
M  V30 7 C 4.178403 -2.218717 2.684009 0
M  V30 8 N 3.650173 -0.985107 2.479039 0
M  V30 9 C 2.607607 -1.095726 1.640845 0
M  V30 10 C 1.743353 -0.029700 1.141593 0
M  V30 11 C 1.962110 1.281159 1.527371 0
M  V30 12 C 1.107832 2.248145 1.021308 0
M  V30 13 C 0.064051 1.967322 0.162761 0
M  V30 14 C -0.781322 3.049188 -0.325991 0
M  V30 15 O -0.348498 4.225667 -0.421718 0
M  V30 16 C -2.170037 2.934705 -0.750711 0
M  V30 17 C -2.709111 3.808220 -1.669841 0
M  V30 18 N -4.006877 3.727596 -2.080571 0
M  V30 19 C -4.826857 2.755804 -1.579626 0
M  V30 20 C -6.150323 2.654434 -1.982394 0
M  V30 21 C -6.994232 1.669502 -1.479548 0
M  V30 22 C -6.450460 0.807053 -0.567648 0
M  V30 23 C -5.148852 0.837612 -0.114301 0
M  V30 24 C -4.347252 1.850705 -0.656141 0
M  V30 25 C -3.019519 1.964575 -0.262054 0
M  V30 26 C -0.125868 0.649031 -0.201948 0
M  V30 27 C 0.707367 -0.339869 0.284073 0
M  V30 28 N 2.507023 -2.402248 1.339310 0
M  V30 29 C 3.462130 -3.127665 1.966108 0
M  V30 30 C 3.650375 -4.505255 1.878724 0
M  V30 31 H 4.050655 -7.300278 0.811365 0
M  V30 32 H 3.854841 -7.982356 2.553204 0
M  V30 33 H 6.322526 -4.506119 3.978677 0
M  V30 34 H 5.829405 -2.052241 4.010113 0
M  V30 35 H 4.027650 -0.139726 2.919235 0
M  V30 36 H 2.766567 1.568101 2.200673 0
M  V30 37 H 1.285699 3.274704 1.328591 0
M  V30 38 H -2.124545 4.611255 -2.117877 0
M  V30 39 H -6.567429 3.342445 -2.703859 0
M  V30 40 H -8.016135 1.551057 -1.757821 0
M  V30 41 H -7.024624 -0.011353 -0.103245 0
M  V30 42 H -4.740801 0.142531 0.609507 0
M  V30 43 H -2.687842 1.241625 0.461325 0
M  V30 44 H -0.924403 0.366581 -0.874442 0
M  V30 45 H 0.551188 -1.378736 -0.008201 0
M  V30 46 H 3.032766 -5.135299 1.286072 0
M  V30 END ATOM
M  V30 BEGIN BOND
M  V30 1 1 1 2
M  V30 2 2 2 3
M  V30 3 1 2 4
M  V30 4 2 4 5
M  V30 5 1 5 6
M  V30 6 2 6 7
M  V30 7 1 7 8
M  V30 8 1 8 9
M  V30 9 1 9 10
M  V30 10 2 10 11
M  V30 11 1 11 12
M  V30 12 2 12 13
M  V30 13 1 13 14
M  V30 14 2 14 15
M  V30 15 1 14 16
M  V30 16 2 16 17
M  V30 17 1 17 18
M  V30 18 2 18 19
M  V30 19 1 19 20
M  V30 20 2 20 21
M  V30 21 1 21 22
M  V30 22 2 22 23
M  V30 23 1 23 24
M  V30 24 2 24 25
M  V30 25 1 13 26
M  V30 26 2 26 27
M  V30 27 2 9 28
M  V30 28 1 28 29
M  V30 29 2 29 30
M  V30 30 1 30 4
M  V30 31 1 29 7
M  V30 32 1 27 10
M  V30 33 1 25 16
M  V30 34 1 24 19
M  V30 35 1 1 31
M  V30 36 1 1 32
M  V30 37 1 5 33
M  V30 38 1 6 34
M  V30 39 1 8 35
M  V30 40 1 11 36
M  V30 41 1 12 37
M  V30 42 1 17 38
M  V30 43 1 20 39
M  V30 44 1 21 40
M  V30 45 1 22 41
M  V30 46 1 23 42
M  V30 47 1 25 43
M  V30 48 1 26 44
M  V30 49 1 27 45
M  V30 50 1 30 46
M  V30 END BOND
M  V30 END CTAB
M  END
>  <Dataset>  (141) 
ChEMBL_Kinases

>  <Ligand_Instance>  (141) 
nan

>  <PDB_ID>  (141) 
nan

>  <Standardized_SMILES>  (141) 
NC(=O)c1ccc2[nH]c(-c3ccc(C(=O)c4cnc5ccccc5c4)cc3)nc2c1

>  <Name>  (141) 
nan

>  <Pocket>  (141) 
nan

>  <ATP_Site>  (141) 
nan

>  <Peripheral>  (141) 
nan

>  <Num_H_Atoms_ProtBoundConf>  (141) 
nan

>  <Num_Resolved_Atoms>  (141) 
nan

>  <Num_Not_Resolved_Atoms>  (141) 
nan

$$$$
CHEMBL4878410
     RDKit          3D

  0  0  0  0  0  0  0  0  0  0999 V3000
M  V30 BEGIN CTAB
M  V30 COUNTS 51 55 0 0 0
M  V30 BEGIN ATOM
M  V30 1 C 2.056792 0.095331 3.491881 0
M  V30 2 C 3.119727 -0.769317 2.854253 0
M  V30 3 C 3.413177 -1.909413 3.806156 0
M  V30 4 N 4.363933 -0.059836 2.630812 0
M  V30 5 C 5.430117 -0.015937 3.449901 0
M  V30 6 N 6.399301 0.745568 2.901688 0
M  V30 7 N 5.915721 1.157796 1.755990 0
M  V30 8 C 4.673758 0.680815 1.564780 0
M  V30 9 C 3.853250 0.945587 0.399547 0
M  V30 10 C 4.393408 1.503266 -0.742431 0
M  V30 11 C 3.624176 1.759552 -1.855859 0
M  V30 12 C 2.273071 1.471134 -1.885275 0
M  V30 13 C 1.751923 0.908075 -0.718264 0
M  V30 14 N 0.398807 0.543805 -0.551081 0
M  V30 15 C -0.723353 1.286413 -0.061450 0
M  V30 16 O -0.659062 2.482602 0.326679 0
M  V30 17 C -2.026281 0.614490 -0.008378 0
M  V30 18 C -3.173943 1.206082 0.436053 0
M  V30 19 C -4.145375 0.225185 0.314355 0
M  V30 20 C -5.502167 0.208443 0.599138 0
M  V30 21 C -6.335085 -0.874529 0.413502 0
M  V30 22 C -5.720959 -2.017612 -0.102058 0
M  V30 23 C -4.378475 -2.065162 -0.405379 0
M  V30 24 C -3.790999 -3.287758 -0.941919 0
M  V30 25 C -4.158129 -4.209429 -1.926614 0
M  V30 26 N -3.188474 -5.163226 -1.978876 0
M  V30 27 N -2.246915 -4.879661 -1.082363 0
M  V30 28 C -2.580810 -3.750185 -0.437120 0
M  V30 29 C -3.599736 -0.945650 -0.195871 0
M  V30 30 N -2.307366 -0.649780 -0.373055 0
M  V30 31 N 2.536951 0.667606 0.363045 0
M  V30 32 H 2.159339 1.162196 3.200114 0
M  V30 33 H 2.193025 0.029383 4.591326 0
M  V30 34 H 1.071813 -0.327581 3.217195 0
M  V30 35 H 2.750171 -1.250771 1.918765 0
M  V30 36 H 4.155318 -2.625769 3.379061 0
M  V30 37 H 3.842723 -1.535055 4.759822 0
M  V30 38 H 2.479857 -2.458552 4.084621 0
M  V30 39 H 5.561143 -0.489932 4.409400 0
M  V30 40 H 5.453442 1.762864 -0.806221 0
M  V30 41 H 4.003649 2.198358 -2.780773 0
M  V30 42 H 1.596467 1.639908 -2.716859 0
M  V30 43 H 0.323656 -0.448598 -0.868411 0
M  V30 44 H -3.298900 2.218159 0.802894 0
M  V30 45 H -5.964522 1.111981 1.001729 0
M  V30 46 H -7.385039 -0.807234 0.660847 0
M  V30 47 H -6.374087 -2.887552 -0.254598 0
M  V30 48 H -5.085553 -4.016462 -2.439873 0
M  V30 49 H -1.446417 -5.562393 -1.043541 0
M  V30 50 H -1.871201 -3.437900 0.315745 0
M  V30 51 H -1.584161 -1.306013 -0.748370 0
M  V30 END ATOM
M  V30 BEGIN BOND
M  V30 1 1 1 2
M  V30 2 1 2 3
M  V30 3 1 2 4
M  V30 4 1 4 5
M  V30 5 2 5 6
M  V30 6 1 6 7
M  V30 7 2 7 8
M  V30 8 1 8 9
M  V30 9 2 9 10
M  V30 10 1 10 11
M  V30 11 2 11 12
M  V30 12 1 12 13
M  V30 13 1 13 14
M  V30 14 1 14 15
M  V30 15 2 15 16
M  V30 16 1 15 17
M  V30 17 2 17 18
M  V30 18 1 18 19
M  V30 19 2 19 20
M  V30 20 1 20 21
M  V30 21 2 21 22
M  V30 22 1 22 23
M  V30 23 1 23 24
M  V30 24 1 24 25
M  V30 25 2 25 26
M  V30 26 1 26 27
M  V30 27 1 27 28
M  V30 28 2 23 29
M  V30 29 1 29 30
M  V30 30 2 13 31
M  V30 31 1 8 4
M  V30 32 1 31 9
M  V30 33 1 30 17
M  V30 34 1 29 19
M  V30 35 2 28 24
M  V30 36 1 1 32
M  V30 37 1 1 33
M  V30 38 1 1 34
M  V30 39 1 2 35
M  V30 40 1 3 36
M  V30 41 1 3 37
M  V30 42 1 3 38
M  V30 43 1 5 39
M  V30 44 1 10 40
M  V30 45 1 11 41
M  V30 46 1 12 42
M  V30 47 1 14 43
M  V30 48 1 18 44
M  V30 49 1 20 45
M  V30 50 1 21 46
M  V30 51 1 22 47
M  V30 52 1 25 48
M  V30 53 1 27 49
M  V30 54 1 28 50
M  V30 55 1 30 51
M  V30 END BOND
M  V30 END CTAB
M  END
>  <Dataset>  (142) 
ChEMBL_Kinases

>  <Ligand_Instance>  (142) 
nan

>  <PDB_ID>  (142) 
nan

>  <Standardized_SMILES>  (142) 
CC(C)n1cnnc1-c1cccc(NC(=O)c2cc3cccc(-c4cn[nH]c4)c3[nH]2)n1

>  <Name>  (142) 
nan

>  <Pocket>  (142) 
nan

>  <ATP_Site>  (142) 
nan

>  <Peripheral>  (142) 
nan

>  <Num_H_Atoms_ProtBoundConf>  (142) 
nan

>  <Num_Resolved_Atoms>  (142) 
nan

>  <Num_Not_Resolved_Atoms>  (142) 
nan

$$$$
CHEMBL3896232
     RDKit          3D

  0  0  0  0  0  0  0  0  0  0999 V3000
M  V30 BEGIN CTAB
M  V30 COUNTS 73 76 0 0 0
M  V30 BEGIN ATOM
M  V30 1 C 4.466107 0.944337 4.047924 0
M  V30 2 C 4.799537 -0.400672 3.488747 0
M  V30 3 S 4.597563 -0.476923 1.704259 0
M  V30 4 O 5.094979 -1.796321 1.266943 0
M  V30 5 O 5.517820 0.578267 1.117028 0
M  V30 6 C 2.944712 -0.144592 1.346904 0
M  V30 7 C 1.969446 0.123823 2.281523 0
M  V30 8 C 0.662792 0.384488 1.959827 0
M  V30 9 N -0.280325 0.643664 2.992890 0
M  V30 10 C -1.641602 0.960184 2.733286 0
M  V30 11 N -2.155413 2.199357 2.623689 0
M  V30 12 C -3.462407 2.380623 2.371260 0
M  V30 13 C -4.348828 1.315684 2.210541 0
M  V30 14 F -5.665285 1.507130 1.956614 0
M  V30 15 C -3.802231 0.054715 2.326486 0
M  V30 16 N -4.671505 -1.060453 2.164868 0
M  V30 17 C -5.822610 -1.305375 3.024592 0
M  V30 18 C -4.156324 -1.794715 1.041015 0
M  V30 19 C -4.061475 -1.164201 -0.205157 0
M  V30 20 C -3.587942 -1.746807 -1.364410 0
M  V30 21 C -3.535962 -0.971010 -2.619489 0
M  V30 22 O -4.540078 -1.304539 -3.509457 0
M  V30 23 C -3.177543 -3.053513 -1.281150 0
M  V30 24 C -2.656254 -3.762382 -2.473069 0
M  V30 25 C -3.254192 -3.702081 -0.084884 0
M  V30 26 C -3.736594 -3.089293 1.069767 0
M  V30 27 C -3.806367 -3.819058 2.350524 0
M  V30 28 N -2.482627 -0.078230 2.581015 0
M  V30 29 C 0.284167 0.382416 0.633322 0
M  V30 30 C 1.252381 0.113461 -0.325818 0
M  V30 31 C 2.575084 -0.149449 0.018474 0
M  V30 32 N 3.387985 -0.406439 -1.119197 0
M  V30 33 C 4.557448 0.200081 -1.731302 0
M  V30 34 C 4.525865 0.185959 -3.230200 0
M  V30 35 N 3.253896 -0.064057 -3.820049 0
M  V30 36 C 2.408852 1.064281 -4.021596 0
M  V30 37 C 2.507489 -1.154413 -3.283845 0
M  V30 38 C 2.985665 -1.578687 -1.912855 0
M  V30 39 H 3.786738 0.906658 4.944209 0
M  V30 40 H 4.055077 1.645087 3.317315 0
M  V30 41 H 5.426736 1.390615 4.403893 0
M  V30 42 H 4.101590 -1.127479 3.955274 0
M  V30 43 H 5.827674 -0.741648 3.770658 0
M  V30 44 H 2.229116 0.127468 3.322050 0
M  V30 45 H 0.005768 0.608271 3.988437 0
M  V30 46 H -3.896509 3.366731 2.279411 0
M  V30 47 H -6.610851 -1.865407 2.519579 0
M  V30 48 H -6.229306 -0.299636 3.292486 0
M  V30 49 H -5.444179 -1.750775 3.967184 0
M  V30 50 H -4.394255 -0.125562 -0.244857 0
M  V30 51 H -2.545336 -1.127727 -3.093911 0
M  V30 52 H -3.666027 0.125915 -2.385845 0
M  V30 53 H -5.223666 -1.817033 -3.026148 0
M  V30 54 H -2.088085 -3.110485 -3.163272 0
M  V30 55 H -2.036810 -4.627151 -2.125269 0
M  V30 56 H -3.539117 -4.241542 -2.968633 0
M  V30 57 H -2.920258 -4.742121 -0.047445 0
M  V30 58 H -3.618145 -3.174506 3.208069 0
M  V30 59 H -3.044571 -4.639609 2.380969 0
M  V30 60 H -4.793704 -4.326834 2.456896 0
M  V30 61 H -0.756405 0.593869 0.433665 0
M  V30 62 H 0.815151 0.144839 -1.318346 0
M  V30 63 H 4.587747 1.266490 -1.363986 0
M  V30 64 H 5.489908 -0.334081 -1.433715 0
M  V30 65 H 4.849157 1.199653 -3.581211 0
M  V30 66 H 5.326732 -0.500142 -3.633531 0
M  V30 67 H 2.108254 1.071491 -5.111235 0
M  V30 68 H 1.448976 0.934292 -3.483169 0
M  V30 69 H 2.883068 2.034522 -3.767861 0
M  V30 70 H 1.407633 -0.979286 -3.332918 0
M  V30 71 H 2.694741 -2.037212 -3.967850 0
M  V30 72 H 2.165549 -2.140634 -1.460528 0
M  V30 73 H 3.892117 -2.227917 -2.096258 0
M  V30 END ATOM
M  V30 BEGIN BOND
M  V30 1 1 1 2
M  V30 2 1 2 3
M  V30 3 2 3 4
M  V30 4 2 3 5
M  V30 5 1 3 6
M  V30 6 2 6 7
M  V30 7 1 7 8
M  V30 8 1 8 9
M  V30 9 1 9 10
M  V30 10 2 10 11
M  V30 11 1 11 12
M  V30 12 2 12 13
M  V30 13 1 13 14
M  V30 14 1 13 15
M  V30 15 1 15 16
M  V30 16 1 16 17
M  V30 17 1 16 18
M  V30 18 2 18 19
M  V30 19 1 19 20
M  V30 20 1 20 21
M  V30 21 1 21 22
M  V30 22 2 20 23
M  V30 23 1 23 24
M  V30 24 1 23 25
M  V30 25 2 25 26
M  V30 26 1 26 27
M  V30 27 2 15 28
M  V30 28 2 8 29
M  V30 29 1 29 30
M  V30 30 2 30 31
M  V30 31 1 31 32
M  V30 32 1 32 33
M  V30 33 1 33 34
M  V30 34 1 34 35
M  V30 35 1 35 36
M  V30 36 1 35 37
M  V30 37 1 37 38
M  V30 38 1 31 6
M  V30 39 1 38 32
M  V30 40 1 28 10
M  V30 41 1 26 18
M  V30 42 1 1 39
M  V30 43 1 1 40
M  V30 44 1 1 41
M  V30 45 1 2 42
M  V30 46 1 2 43
M  V30 47 1 7 44
M  V30 48 1 9 45
M  V30 49 1 12 46
M  V30 50 1 17 47
M  V30 51 1 17 48
M  V30 52 1 17 49
M  V30 53 1 19 50
M  V30 54 1 21 51
M  V30 55 1 21 52
M  V30 56 1 22 53
M  V30 57 1 24 54
M  V30 58 1 24 55
M  V30 59 1 24 56
M  V30 60 1 25 57
M  V30 61 1 27 58
M  V30 62 1 27 59
M  V30 63 1 27 60
M  V30 64 1 29 61
M  V30 65 1 30 62
M  V30 66 1 33 63
M  V30 67 1 33 64
M  V30 68 1 34 65
M  V30 69 1 34 66
M  V30 70 1 36 67
M  V30 71 1 36 68
M  V30 72 1 36 69
M  V30 73 1 37 70
M  V30 74 1 37 71
M  V30 75 1 38 72
M  V30 76 1 38 73
M  V30 END BOND
M  V30 END CTAB
M  END
>  <Dataset>  (143) 
ChEMBL_Kinases

>  <Ligand_Instance>  (143) 
nan

>  <PDB_ID>  (143) 
nan

>  <Standardized_SMILES>  (143) 
CCS(=O)(=O)c1cc(Nc2ncc(F)c(N(C)c3cc(CO)c(C)cc3C)n2)ccc1N1CCN(C)CC1

>  <Name>  (143) 
nan

>  <Pocket>  (143) 
nan

>  <ATP_Site>  (143) 
nan

>  <Peripheral>  (143) 
nan

>  <Num_H_Atoms_ProtBoundConf>  (143) 
nan

>  <Num_Resolved_Atoms>  (143) 
nan

>  <Num_Not_Resolved_Atoms>  (143) 
nan

$$$$
CHEMBL3896690
     RDKit          3D

  0  0  0  0  0  0  0  0  0  0999 V3000
M  V30 BEGIN CTAB
M  V30 COUNTS 40 43 0 0 0
M  V30 BEGIN ATOM
M  V30 1 N -0.528503 -8.715533 0.824398 0
M  V30 2 C -0.010135 -7.462200 0.540095 0
M  V30 3 O 1.150090 -7.549251 0.001300 0
M  V30 4 C -0.629182 -6.159643 0.787113 0
M  V30 5 C -1.901670 -5.950516 1.325945 0
M  V30 6 C -2.384622 -4.668183 1.524565 0
M  V30 7 C -1.648721 -3.548905 1.207490 0
M  V30 8 N -1.790996 -2.204262 1.265241 0
M  V30 9 C -0.672402 -1.620160 0.788666 0
M  V30 10 C -0.353049 -0.204592 0.648785 0
M  V30 11 C 0.866936 0.171934 0.132254 0
M  V30 12 C 1.143265 1.508180 0.015228 0
M  V30 13 C 0.290960 2.523486 0.374806 0
M  V30 14 C 0.529737 3.947016 0.312533 0
M  V30 15 O -0.524680 4.676208 0.208804 0
M  V30 16 C 1.663051 4.836160 0.338861 0
M  V30 17 C 1.504317 6.128364 0.821609 0
M  V30 18 C 2.570195 7.034100 0.883013 0
M  V30 19 N 3.797550 6.680104 0.471988 0
M  V30 20 C 4.012184 5.436535 -0.007167 0
M  V30 21 C 2.947345 4.572599 -0.054554 0
M  V30 22 C -0.963605 2.153832 0.903735 0
M  V30 23 C -1.231712 0.780314 1.019131 0
M  V30 24 N 0.175850 -2.629498 0.430805 0
M  V30 25 C -0.403358 -3.813009 0.679868 0
M  V30 26 C 0.127549 -5.064110 0.459681 0
M  V30 27 H -0.266084 -8.709681 1.846465 0
M  V30 28 H -0.917754 -9.644447 1.015096 0
M  V30 29 H -2.466740 -6.845210 1.570801 0
M  V30 30 H -3.369300 -4.522200 1.943075 0
M  V30 31 H -2.635899 -1.732582 1.621777 0
M  V30 32 H 1.573414 -0.599974 -0.165841 0
M  V30 33 H 2.106886 1.718408 -0.402139 0
M  V30 34 H 0.570371 6.525061 1.178098 0
M  V30 35 H 2.421812 8.028034 1.260200 0
M  V30 36 H 5.013125 5.243863 -0.310096 0
M  V30 37 H 3.254044 3.637757 -0.454715 0
M  V30 38 H -1.721797 2.880828 1.221792 0
M  V30 39 H -2.215648 0.510135 1.436516 0
M  V30 40 H 1.120653 -5.197408 0.040605 0
M  V30 END ATOM
M  V30 BEGIN BOND
M  V30 1 1 1 2
M  V30 2 2 2 3
M  V30 3 1 2 4
M  V30 4 2 4 5
M  V30 5 1 5 6
M  V30 6 2 6 7
M  V30 7 1 7 8
M  V30 8 1 8 9
M  V30 9 1 9 10
M  V30 10 2 10 11
M  V30 11 1 11 12
M  V30 12 2 12 13
M  V30 13 1 13 14
M  V30 14 2 14 15
M  V30 15 1 14 16
M  V30 16 2 16 17
M  V30 17 1 17 18
M  V30 18 2 18 19
M  V30 19 1 19 20
M  V30 20 2 20 21
M  V30 21 1 13 22
M  V30 22 2 22 23
M  V30 23 2 9 24
M  V30 24 1 24 25
M  V30 25 2 25 26
M  V30 26 1 26 4
M  V30 27 1 25 7
M  V30 28 1 23 10
M  V30 29 1 21 16
M  V30 30 1 1 27
M  V30 31 1 1 28
M  V30 32 1 5 29
M  V30 33 1 6 30
M  V30 34 1 8 31
M  V30 35 1 11 32
M  V30 36 1 12 33
M  V30 37 1 17 34
M  V30 38 1 18 35
M  V30 39 1 20 36
M  V30 40 1 21 37
M  V30 41 1 22 38
M  V30 42 1 23 39
M  V30 43 1 26 40
M  V30 END BOND
M  V30 END CTAB
M  END
>  <Dataset>  (144) 
ChEMBL_Kinases

>  <Ligand_Instance>  (144) 
nan

>  <PDB_ID>  (144) 
nan

>  <Standardized_SMILES>  (144) 
NC(=O)c1ccc2[nH]c(-c3ccc(C(=O)c4ccncc4)cc3)nc2c1

>  <Name>  (144) 
nan

>  <Pocket>  (144) 
nan

>  <ATP_Site>  (144) 
nan

>  <Peripheral>  (144) 
nan

>  <Num_H_Atoms_ProtBoundConf>  (144) 
nan

>  <Num_Resolved_Atoms>  (144) 
nan

>  <Num_Not_Resolved_Atoms>  (144) 
nan

$$$$
CHEMBL3904091
     RDKit          3D

  0  0  0  0  0  0  0  0  0  0999 V3000
M  V30 BEGIN CTAB
M  V30 COUNTS 51 55 0 0 0
M  V30 BEGIN ATOM
M  V30 1 N 4.012049 -7.967370 2.695882 0
M  V30 2 C 4.472946 -6.808770 3.377659 0
M  V30 3 O 5.086287 -7.610009 4.100961 0
M  V30 4 C 4.120059 -5.445281 3.032321 0
M  V30 5 C 4.663626 -4.445477 3.806259 0
M  V30 6 C 4.309768 -3.137843 3.453893 0
M  V30 7 C 3.462299 -2.948515 2.382316 0
M  V30 8 N 3.016213 -1.774191 1.900500 0
M  V30 9 C 2.227279 -2.086192 0.865201 0
M  V30 10 C 1.525556 -1.108041 0.038237 0
M  V30 11 C 1.690978 0.228177 0.345376 0
M  V30 12 C 1.048883 1.217588 -0.404403 0
M  V30 13 C 0.230402 0.858260 -1.476378 0
M  V30 14 S -0.622552 1.979306 -2.490245 0
M  V30 15 O -0.771750 1.367634 -3.876830 0
M  V30 16 O 0.156125 3.265602 -2.698451 0
M  V30 17 N -2.183463 2.381071 -1.948821 0
M  V30 18 C -2.239037 3.019475 -0.674078 0 CFG=1
M  V30 19 C -3.011290 4.311471 -0.678266 0
M  V30 20 C -4.439950 3.840046 -0.679024 0
M  V30 21 C -4.359023 2.636880 0.210518 0
M  V30 22 C -5.375299 2.054547 0.937143 0
M  V30 23 C -4.965510 0.937866 1.671229 0
M  V30 24 C -3.690914 0.408829 1.716892 0
M  V30 25 C -2.728259 1.048399 0.961600 0
M  V30 26 C -3.067114 2.157383 0.213581 0
M  V30 27 C 0.097755 -0.507132 -1.743583 0
M  V30 28 C 0.722804 -1.500883 -1.015857 0
M  V30 29 N 2.184427 -3.440202 0.706396 0
M  V30 30 C 2.955415 -4.008319 1.650895 0
M  V30 31 C 3.273119 -5.314684 1.957090 0
M  V30 32 H 4.175213 -8.641882 1.922885 0
M  V30 33 H 3.284195 -8.711729 2.632953 0
M  V30 34 H 5.320602 -4.699921 4.628892 0
M  V30 35 H 4.716058 -2.328754 4.037034 0
M  V30 36 H 3.246100 -0.804856 2.269125 0
M  V30 37 H 2.298882 0.617154 1.149812 0
M  V30 38 H 1.147467 2.289950 -0.201987 0
M  V30 39 H -2.670592 2.889064 -2.691997 0
M  V30 40 H -1.239471 3.149507 -0.243165 0
M  V30 41 H -2.784573 4.844806 0.275947 0
M  V30 42 H -2.780048 4.954572 -1.533944 0
M  V30 43 H -5.133195 4.600269 -0.251884 0
M  V30 44 H -4.724795 3.601246 -1.710954 0
M  V30 45 H -6.403634 2.368731 0.985646 0
M  V30 46 H -5.746895 0.442141 2.266808 0
M  V30 47 H -3.497078 -0.458911 2.322344 0
M  V30 48 H -1.711518 0.680133 0.957319 0
M  V30 49 H -0.527053 -0.823394 -2.564017 0
M  V30 50 H 0.587798 -2.550111 -1.263364 0
M  V30 51 H 2.888409 -6.154346 1.399193 0
M  V30 END ATOM
M  V30 BEGIN BOND
M  V30 1 1 1 2
M  V30 2 2 2 3
M  V30 3 1 2 4
M  V30 4 2 4 5
M  V30 5 1 5 6
M  V30 6 2 6 7
M  V30 7 1 7 8
M  V30 8 1 8 9
M  V30 9 1 9 10
M  V30 10 2 10 11
M  V30 11 1 11 12
M  V30 12 2 12 13
M  V30 13 1 13 14
M  V30 14 2 14 15
M  V30 15 2 14 16
M  V30 16 1 14 17
M  V30 17 1 17 18
M  V30 18 1 18 19
M  V30 19 1 19 20
M  V30 20 1 20 21
M  V30 21 2 21 22
M  V30 22 1 22 23
M  V30 23 2 23 24
M  V30 24 1 24 25
M  V30 25 2 25 26
M  V30 26 1 13 27
M  V30 27 2 27 28
M  V30 28 2 9 29
M  V30 29 1 29 30
M  V30 30 2 30 31
M  V30 31 1 31 4
M  V30 32 1 30 7
M  V30 33 1 28 10
M  V30 34 1 26 18
M  V30 35 1 26 21
M  V30 36 1 1 32
M  V30 37 1 1 33
M  V30 38 1 5 34
M  V30 39 1 6 35
M  V30 40 1 8 36
M  V30 41 1 11 37
M  V30 42 1 12 38
M  V30 43 1 17 39
M  V30 44 1 18 40 CFG=1
M  V30 45 1 19 41
M  V30 46 1 19 42
M  V30 47 1 20 43
M  V30 48 1 20 44
M  V30 49 1 22 45
M  V30 50 1 23 46
M  V30 51 1 24 47
M  V30 52 1 25 48
M  V30 53 1 27 49
M  V30 54 1 28 50
M  V30 55 1 31 51
M  V30 END BOND
M  V30 END CTAB
M  END
>  <Dataset>  (145) 
ChEMBL_Kinases

>  <Ligand_Instance>  (145) 
nan

>  <PDB_ID>  (145) 
nan

>  <Standardized_SMILES>  (145) 
NC(=O)c1ccc2[nH]c(-c3ccc(S(=O)(=O)N[C@H]4CCc5ccccc54)cc3)nc2c1

>  <Name>  (145) 
nan

>  <Pocket>  (145) 
nan

>  <ATP_Site>  (145) 
nan

>  <Peripheral>  (145) 
nan

>  <Num_H_Atoms_ProtBoundConf>  (145) 
nan

>  <Num_Resolved_Atoms>  (145) 
nan

>  <Num_Not_Resolved_Atoms>  (145) 
nan

$$$$
CHEMBL3905664
     RDKit          3D

  0  0  0  0  0  0  0  0  0  0999 V3000
M  V30 BEGIN CTAB
M  V30 COUNTS 29 32 0 0 0
M  V30 BEGIN ATOM
M  V30 1 O -2.102422 0.058977 3.047853 0
M  V30 2 C -1.084932 -0.650667 3.179258 0
M  V30 3 N -0.571239 -1.372998 4.191236 0
M  V30 4 C 0.566972 -1.940923 3.751427 0
M  V30 5 C 1.455860 -2.768925 4.406659 0
M  V30 6 C 2.580096 -3.250085 3.765002 0
M  V30 7 C 2.739944 -2.848932 2.454075 0
M  V30 8 C 1.893356 -2.024705 1.737480 0
M  V30 9 C 0.774363 -1.570004 2.439041 0
M  V30 10 N -0.267932 -0.760988 2.091237 0
M  V30 11 C -0.353915 -0.199570 0.777575 0
M  V30 12 N -0.007326 1.077729 0.441924 0
M  V30 13 C -0.222567 1.254579 -0.892414 0
M  V30 14 C -0.021144 2.369364 -1.679826 0
M  V30 15 C -0.325095 2.285814 -3.034092 0
M  V30 16 Br -0.059124 3.806727 -4.151661 0
M  V30 17 C -0.819331 1.086776 -3.545325 0
M  V30 18 C -1.007790 -0.017418 -2.711302 0
M  V30 19 C -0.708264 0.047134 -1.348482 0
M  V30 20 N -0.791067 -0.841269 -0.340716 0
M  V30 21 H -1.053121 -1.422409 5.130261 0
M  V30 22 H 1.304142 -3.069508 5.442707 0
M  V30 23 H 3.331063 -3.903052 4.197603 0
M  V30 24 H 3.606927 -3.203402 1.916224 0
M  V30 25 H 2.063047 -1.745681 0.727173 0
M  V30 26 H 0.367177 3.269948 -1.212075 0
M  V30 27 H -1.046405 1.053387 -4.603312 0
M  V30 28 H -1.392676 -0.938229 -3.129860 0
M  V30 29 H -1.125698 -1.834069 -0.398978 0
M  V30 END ATOM
M  V30 BEGIN BOND
M  V30 1 2 1 2
M  V30 2 1 2 3
M  V30 3 1 3 4
M  V30 4 2 4 5
M  V30 5 1 5 6
M  V30 6 2 6 7
M  V30 7 1 7 8
M  V30 8 2 8 9
M  V30 9 1 9 10
M  V30 10 1 10 11
M  V30 11 2 11 12
M  V30 12 1 12 13
M  V30 13 2 13 14
M  V30 14 1 14 15
M  V30 15 1 15 16
M  V30 16 2 15 17
M  V30 17 1 17 18
M  V30 18 2 18 19
M  V30 19 1 19 20
M  V30 20 1 10 2
M  V30 21 1 20 11
M  V30 22 1 9 4
M  V30 23 1 19 13
M  V30 24 1 3 21
M  V30 25 1 5 22
M  V30 26 1 6 23
M  V30 27 1 7 24
M  V30 28 1 8 25
M  V30 29 1 14 26
M  V30 30 1 17 27
M  V30 31 1 18 28
M  V30 32 1 20 29
M  V30 END BOND
M  V30 END CTAB
M  END
>  <Dataset>  (146) 
ChEMBL_Kinases

>  <Ligand_Instance>  (146) 
nan

>  <PDB_ID>  (146) 
nan

>  <Standardized_SMILES>  (146) 
O=c1[nH]c2ccccc2n1-c1nc2cc(Br)ccc2[nH]1

>  <Name>  (146) 
nan

>  <Pocket>  (146) 
nan

>  <ATP_Site>  (146) 
nan

>  <Peripheral>  (146) 
nan

>  <Num_H_Atoms_ProtBoundConf>  (146) 
nan

>  <Num_Resolved_Atoms>  (146) 
nan

>  <Num_Not_Resolved_Atoms>  (146) 
nan

$$$$
CHEMBL3903968
     RDKit          3D

  0  0  0  0  0  0  0  0  0  0999 V3000
M  V30 BEGIN CTAB
M  V30 COUNTS 44 48 0 0 0
M  V30 BEGIN ATOM
M  V30 1 O 1.990077 -3.293109 5.625717 0
M  V30 2 C 2.132629 -3.051298 4.382689 0
M  V30 3 C 3.108938 -3.926445 3.680086 0
M  V30 4 O 3.315296 -3.534726 2.348919 0
M  V30 5 C 2.604118 -2.528598 1.719310 0
M  V30 6 C 2.908588 -2.339943 0.384298 0
M  V30 7 C 2.234146 -1.349681 -0.307220 0
M  V30 8 C 1.287332 -0.573689 0.313619 0
M  V30 9 C 0.580040 0.480128 -0.440546 0
M  V30 10 O 0.939417 0.503926 -1.782246 0
M  V30 11 C 0.886954 1.824220 0.098342 0
M  V30 12 C 2.103677 2.428694 0.125148 0
M  V30 13 C 2.220929 3.696581 0.672346 0
M  V30 14 C 1.097767 4.338844 1.188011 0
M  V30 15 C -0.135683 3.708258 1.152826 0
M  V30 16 C -0.252366 2.439248 0.604866 0
M  V30 17 C -1.349680 1.486488 0.392905 0
M  V30 18 O -2.521966 1.811324 0.775049 0
M  V30 19 N -0.836565 0.305664 -0.245077 0
M  V30 20 C -1.781739 -0.715256 -0.530874 0
M  V30 21 C -2.166499 -1.770096 0.271652 0
M  V30 22 C -3.102883 -2.686587 -0.153466 0
M  V30 23 C -3.673828 -2.549150 -1.415504 0
M  V30 24 C -3.291669 -1.490081 -2.228970 0
M  V30 25 C -2.340848 -0.564066 -1.790885 0
M  V30 26 Cl -2.027522 0.667222 -2.980003 0
M  V30 27 C 0.979810 -0.757616 1.645103 0
M  V30 28 C 1.652866 -1.752306 2.352009 0
M  V30 29 N 1.410738 -2.022181 3.723341 0
M  V30 30 H 4.046736 -3.936645 4.289307 0
M  V30 31 H 2.673490 -4.946741 3.682788 0
M  V30 32 H 3.650203 -2.919428 -0.174819 0
M  V30 33 H 2.440134 -1.166595 -1.353822 0
M  V30 34 H 0.745801 1.410652 -2.123459 0
M  V30 35 H 3.038433 2.018813 -0.248108 0
M  V30 36 H 3.119458 4.295710 0.760777 0
M  V30 37 H 1.081628 5.326330 1.635826 0
M  V30 38 H -1.048079 4.177245 1.548172 0
M  V30 39 H -1.681013 -1.808374 1.234351 0
M  V30 40 H -3.370020 -3.494134 0.512239 0
M  V30 41 H -4.406318 -3.299065 -1.700838 0
M  V30 42 H -3.802516 -1.486781 -3.185980 0
M  V30 43 H 0.232487 -0.160100 2.173235 0
M  V30 44 H 0.705389 -1.467478 4.246473 0
M  V30 END ATOM
M  V30 BEGIN BOND
M  V30 1 2 1 2
M  V30 2 1 2 3
M  V30 3 1 3 4
M  V30 4 1 4 5
M  V30 5 2 5 6
M  V30 6 1 6 7
M  V30 7 2 7 8
M  V30 8 1 8 9
M  V30 9 1 9 10
M  V30 10 1 9 11
M  V30 11 2 11 12
M  V30 12 1 12 13
M  V30 13 2 13 14
M  V30 14 1 14 15
M  V30 15 2 15 16
M  V30 16 1 16 17
M  V30 17 2 17 18
M  V30 18 1 17 19
M  V30 19 1 19 20
M  V30 20 2 20 21
M  V30 21 1 21 22
M  V30 22 2 22 23
M  V30 23 1 23 24
M  V30 24 2 24 25
M  V30 25 1 25 26
M  V30 26 1 8 27
M  V30 27 2 27 28
M  V30 28 1 28 29
M  V30 29 1 29 2
M  V30 30 1 28 5
M  V30 31 1 19 9
M  V30 32 1 25 20
M  V30 33 1 16 11
M  V30 34 1 3 30
M  V30 35 1 3 31
M  V30 36 1 6 32
M  V30 37 1 7 33
M  V30 38 1 10 34
M  V30 39 1 12 35
M  V30 40 1 13 36
M  V30 41 1 14 37
M  V30 42 1 15 38
M  V30 43 1 21 39
M  V30 44 1 22 40
M  V30 45 1 23 41
M  V30 46 1 24 42
M  V30 47 1 27 43
M  V30 48 1 29 44
M  V30 END BOND
M  V30 END CTAB
M  END
>  <Dataset>  (147) 
ChEMBL_Kinases

>  <Ligand_Instance>  (147) 
nan

>  <PDB_ID>  (147) 
nan

>  <Standardized_SMILES>  (147) 
O=C1COc2ccc(C3(O)c4ccccc4C(=O)N3c3ccccc3Cl)cc2N1

>  <Name>  (147) 
nan

>  <Pocket>  (147) 
nan

>  <ATP_Site>  (147) 
nan

>  <Peripheral>  (147) 
nan

>  <Num_H_Atoms_ProtBoundConf>  (147) 
nan

>  <Num_Resolved_Atoms>  (147) 
nan

>  <Num_Not_Resolved_Atoms>  (147) 
nan

$$$$
CHEMBL603642
     RDKit          3D

  0  0  0  0  0  0  0  0  0  0999 V3000
M  V30 BEGIN CTAB
M  V30 COUNTS 43 47 0 0 0
M  V30 BEGIN ATOM
M  V30 1 C 3.831015 -1.472365 2.230378 0
M  V30 2 N 2.419991 -1.804911 2.188071 0
M  V30 3 C 1.555291 -1.355367 1.258144 0
M  V30 4 C 1.761945 -0.481678 0.121149 0
M  V30 5 C 2.638114 -0.780054 -0.905866 0
M  V30 6 C 2.760734 0.121857 -1.951527 0
M  V30 7 C 2.020699 1.288244 -1.958060 0
M  V30 8 N 2.125214 2.189948 -2.977473 0
M  V30 9 C 1.380953 3.329429 -2.953349 0
M  V30 10 C 0.510192 3.611208 -1.918648 0
M  V30 11 N 0.406569 2.711474 -0.902234 0
M  V30 12 C 1.148566 1.565857 -0.917397 0
M  V30 13 C 1.009363 0.678218 0.139554 0
M  V30 14 C 0.307756 -1.891317 1.554333 0
M  V30 15 C -0.932465 -1.678901 0.818125 0
M  V30 16 C -0.923300 -2.156224 -0.528591 0
M  V30 17 S -2.647073 -1.721825 -1.158207 0
M  V30 18 C -3.165799 -0.994831 0.347665 0
M  V30 19 C -4.371395 -0.418450 0.682695 0
M  V30 20 C -4.593238 0.107353 1.937866 0
M  V30 21 C -3.508473 -0.013839 2.766313 0
M  V30 22 C -2.291889 -0.581515 2.468090 0
M  V30 23 C -2.119332 -1.100964 1.177564 0
M  V30 24 C 0.466198 -2.675552 2.695136 0
M  V30 25 O -0.420733 -3.333069 3.287958 0
M  V30 26 N 1.776124 -2.596363 3.052740 0
M  V30 27 C 2.331652 -3.293279 4.213224 0
M  V30 28 H 4.476579 -2.319829 1.949069 0
M  V30 29 H 4.042007 -0.594338 1.610608 0
M  V30 30 H 4.087805 -1.177538 3.282499 0
M  V30 31 H 3.203174 -1.711120 -0.861843 0
M  V30 32 H 3.438129 -0.107446 -2.746840 0
M  V30 33 H 1.478051 4.033673 -3.773438 0
M  V30 34 H -0.092007 4.512489 -1.879630 0
M  V30 35 H 0.327229 0.924378 0.925292 0
M  V30 36 H -0.024580 -2.687284 -1.066304 0
M  V30 37 H -5.124237 -0.405511 -0.092329 0
M  V30 38 H -5.524551 0.555632 2.204394 0
M  V30 39 H -3.666123 0.401270 3.777360 0
M  V30 40 H -1.552129 -0.575556 3.285238 0
M  V30 41 H 1.974583 -2.847765 5.165872 0
M  V30 42 H 3.436812 -3.276773 4.117594 0
M  V30 43 H 2.017547 -4.356748 4.223595 0
M  V30 END ATOM
M  V30 BEGIN BOND
M  V30 1 1 1 2
M  V30 2 1 2 3
M  V30 3 1 3 4
M  V30 4 2 4 5
M  V30 5 1 5 6
M  V30 6 2 6 7
M  V30 7 1 7 8
M  V30 8 2 8 9
M  V30 9 1 9 10
M  V30 10 2 10 11
M  V30 11 1 11 12
M  V30 12 2 12 13
M  V30 13 2 3 14
M  V30 14 1 14 15
M  V30 15 2 15 16
M  V30 16 1 16 17
M  V30 17 1 17 18
M  V30 18 2 18 19
M  V30 19 1 19 20
M  V30 20 2 20 21
M  V30 21 1 21 22
M  V30 22 2 22 23
M  V30 23 1 14 24
M  V30 24 2 24 25
M  V30 25 1 24 26
M  V30 26 1 26 27
M  V30 27 1 26 2
M  V30 28 1 13 4
M  V30 29 1 23 15
M  V30 30 1 12 7
M  V30 31 1 23 18
M  V30 32 1 1 28
M  V30 33 1 1 29
M  V30 34 1 1 30
M  V30 35 1 5 31
M  V30 36 1 6 32
M  V30 37 1 9 33
M  V30 38 1 10 34
M  V30 39 1 13 35
M  V30 40 1 16 36
M  V30 41 1 19 37
M  V30 42 1 20 38
M  V30 43 1 21 39
M  V30 44 1 22 40
M  V30 45 1 27 41
M  V30 46 1 27 42
M  V30 47 1 27 43
M  V30 END BOND
M  V30 END CTAB
M  END
>  <Dataset>  (148) 
ChEMBL_Kinases

>  <Ligand_Instance>  (148) 
nan

>  <PDB_ID>  (148) 
nan

>  <Standardized_SMILES>  (148) 
Cn1c(-c2ccc3nccnc3c2)c(-c2csc3ccccc23)c(=O)n1C

>  <Name>  (148) 
nan

>  <Pocket>  (148) 
nan

>  <ATP_Site>  (148) 
nan

>  <Peripheral>  (148) 
nan

>  <Num_H_Atoms_ProtBoundConf>  (148) 
nan

>  <Num_Resolved_Atoms>  (148) 
nan

>  <Num_Not_Resolved_Atoms>  (148) 
nan

$$$$
CHEMBL3903885
     RDKit          3D

  0  0  0  0  0  0  0  0  0  0999 V3000
M  V30 BEGIN CTAB
M  V30 COUNTS 49 52 0 0 0
M  V30 BEGIN ATOM
M  V30 1 C 2.758962 -0.392115 5.594175 0
M  V30 2 O 1.712145 -1.122944 5.077614 0
M  V30 3 C 1.498540 -0.925046 3.720957 0
M  V30 4 C 2.665751 -1.295595 2.849483 0
M  V30 5 O 2.270595 -1.028151 1.490899 0
M  V30 6 C 3.156821 -1.291744 0.441299 0
M  V30 7 O 4.249056 -1.764352 0.911163 0
M  V30 8 C 2.681368 -0.986080 -0.958346 0
M  V30 9 C 2.389376 0.484095 -1.055704 0
M  V30 10 O 3.181349 1.272881 -1.621221 0
M  V30 11 C 1.104192 0.708186 -0.400155 0
M  V30 12 C 0.768264 1.905172 0.036880 0
M  V30 13 C -0.518218 2.101810 0.683983 0
M  V30 14 C -0.520335 2.786294 1.907660 0
M  V30 15 N -1.795907 2.880533 2.342097 0
M  V30 16 C -2.632139 2.294309 1.468609 0
M  V30 17 N -3.963326 2.085967 1.356602 0
M  V30 18 C -4.514901 1.439160 0.295147 0
M  V30 19 C -3.689446 0.963478 -0.730727 0
M  V30 20 C -2.304090 1.159952 -0.649238 0
M  V30 21 C -1.829127 1.815684 0.444720 0
M  V30 22 O 0.443080 -0.524650 -0.372398 0
M  V30 23 C 1.266365 -1.463773 -0.971322 0
M  V30 24 N 1.011196 -2.579259 -1.486330 0
M  V30 25 C -0.263301 -3.103181 -1.543976 0
M  V30 26 C -1.505462 -2.583482 -1.371148 0
M  V30 27 C -2.700261 -3.264258 -1.467558 0
M  V30 28 C -2.644358 -4.611171 -1.769893 0
M  V30 29 C -1.412562 -5.212181 -1.960438 0
M  V30 30 C -0.247866 -4.475771 -1.850346 0
M  V30 31 Cl 1.189169 -5.472185 -2.137161 0
M  V30 32 H 3.682633 -0.667825 5.084584 0
M  V30 33 H 2.822004 -0.633470 6.692020 0
M  V30 34 H 2.573856 0.704792 5.515848 0
M  V30 35 H 0.578697 -1.450117 3.388171 0
M  V30 36 H 1.336599 0.184083 3.593182 0
M  V30 37 H 2.974685 -2.343655 2.984669 0
M  V30 38 H 3.491845 -0.560324 3.078184 0
M  V30 39 H 3.311633 -1.379468 -1.737196 0
M  V30 40 H 1.441861 2.764330 -0.077729 0
M  V30 41 H 0.282459 3.218900 2.510588 0
M  V30 42 H -2.156900 3.333229 3.226506 0
M  V30 43 H -5.587110 1.287050 0.232120 0
M  V30 44 H -4.099163 0.440119 -1.600239 0
M  V30 45 H -1.672382 0.792491 -1.457676 0
M  V30 46 H -1.494591 -1.553067 -1.141554 0
M  V30 47 H -3.602823 -2.692485 -1.299168 0
M  V30 48 H -3.610370 -5.090864 -1.831667 0
M  V30 49 H -1.484965 -6.262754 -2.190369 0
M  V30 END ATOM
M  V30 BEGIN BOND
M  V30 1 1 1 2
M  V30 2 1 2 3
M  V30 3 1 3 4
M  V30 4 1 4 5
M  V30 5 1 5 6
M  V30 6 2 6 7
M  V30 7 1 6 8
M  V30 8 1 8 9
M  V30 9 2 9 10
M  V30 10 1 9 11
M  V30 11 2 11 12
M  V30 12 1 12 13
M  V30 13 2 13 14
M  V30 14 1 14 15
M  V30 15 1 15 16
M  V30 16 2 16 17
M  V30 17 1 17 18
M  V30 18 2 18 19
M  V30 19 1 19 20
M  V30 20 2 20 21
M  V30 21 1 11 22
M  V30 22 1 22 23
M  V30 23 2 23 24
M  V30 24 1 24 25
M  V30 25 2 25 26
M  V30 26 1 26 27
M  V30 27 2 27 28
M  V30 28 1 28 29
M  V30 29 2 29 30
M  V30 30 1 30 31
M  V30 31 1 23 8
M  V30 32 1 30 25
M  V30 33 1 21 13
M  V30 34 1 21 16
M  V30 35 1 1 32
M  V30 36 1 1 33
M  V30 37 1 1 34
M  V30 38 1 3 35
M  V30 39 1 3 36
M  V30 40 1 4 37
M  V30 41 1 4 38
M  V30 42 1 8 39
M  V30 43 1 12 40
M  V30 44 1 14 41
M  V30 45 1 15 42
M  V30 46 1 18 43
M  V30 47 1 19 44
M  V30 48 1 20 45
M  V30 49 1 26 46
M  V30 50 1 27 47
M  V30 51 1 28 48
M  V30 52 1 29 49
M  V30 END BOND
M  V30 END CTAB
M  END
>  <Dataset>  (149) 
ChEMBL_Kinases

>  <Ligand_Instance>  (149) 
nan

>  <PDB_ID>  (149) 
nan

>  <Standardized_SMILES>  (149) 
COCCOC(=O)C1C(=O)/C(=C/c2c[nH]c3ncccc23)O/C1=N\c1ccccc1Cl

>  <Name>  (149) 
nan

>  <Pocket>  (149) 
nan

>  <ATP_Site>  (149) 
nan

>  <Peripheral>  (149) 
nan

>  <Num_H_Atoms_ProtBoundConf>  (149) 
nan

>  <Num_Resolved_Atoms>  (149) 
nan

>  <Num_Not_Resolved_Atoms>  (149) 
nan

$$$$
CHEMBL390372
     RDKit          3D

  0  0  0  0  0  0  0  0  0  0999 V3000
M  V30 BEGIN CTAB
M  V30 COUNTS 49 52 0 0 0
M  V30 BEGIN ATOM
M  V30 1 C 2.959002 -4.207597 2.367052 0
M  V30 2 C 4.158672 -3.746152 1.637110 0
M  V30 3 N 5.424311 -4.180288 1.670667 0
M  V30 4 N 6.159466 -3.450921 0.833719 0
M  V30 5 C 5.377707 -2.525144 0.239348 0
M  V30 6 C 5.588155 -1.529769 -0.686248 0
M  V30 7 C 4.570151 -0.709153 -1.124338 0
M  V30 8 C 3.285814 -0.870739 -0.633114 0
M  V30 9 C 2.191558 -0.014378 -1.081213 0
M  V30 10 C 2.083860 0.537229 -2.339793 0
M  V30 11 N 1.013259 1.318027 -2.630296 0
M  V30 12 C 0.061542 1.543499 -1.671452 0
M  V30 13 C 0.129540 1.004692 -0.382079 0
M  V30 14 O -0.976334 1.442656 0.277286 0
M  V30 15 C -1.430837 1.219132 1.562039 0
M  V30 16 C -1.736299 -0.221477 1.883653 0 CFG=1
M  V30 17 N -2.206155 -0.363126 3.249965 0
M  V30 18 C -2.753699 -0.734232 0.892142 0
M  V30 19 C -4.021523 0.022763 0.930585 0
M  V30 20 C -4.343052 1.133653 0.180650 0
M  V30 21 C -5.547710 1.798242 0.264511 0
M  V30 22 C -6.503957 1.345449 1.142052 0
M  V30 23 C -6.252804 0.233875 1.929518 0
M  V30 24 Br -7.594348 -0.369858 3.134090 0
M  V30 25 C -5.039011 -0.385295 1.803358 0
M  V30 26 C 1.229840 0.218206 -0.123969 0
M  V30 27 C 3.101486 -1.874853 0.293005 0
M  V30 28 C 4.111643 -2.697514 0.735062 0
M  V30 29 H 2.044132 -4.139378 1.742841 0
M  V30 30 H 3.065043 -5.269807 2.672157 0
M  V30 31 H 2.874600 -3.583789 3.291294 0
M  V30 32 H 7.189566 -3.580099 0.665447 0
M  V30 33 H 6.599831 -1.379872 -1.092791 0
M  V30 34 H 4.729476 0.075971 -1.852780 0
M  V30 35 H 2.888637 0.295466 -3.018009 0
M  V30 36 H -0.678791 2.188038 -2.143468 0
M  V30 37 H -0.639243 1.549362 2.293105 0
M  V30 38 H -2.300876 1.882144 1.789363 0
M  V30 39 H -0.803901 -0.800994 1.828100 0
M  V30 40 H -2.238840 -1.386652 3.465236 0
M  V30 41 H -1.450204 0.032689 3.857616 0
M  V30 42 H -2.995188 -1.782549 1.210627 0
M  V30 43 H -2.361202 -0.806302 -0.125650 0
M  V30 44 H -3.597084 1.487713 -0.507123 0
M  V30 45 H -5.724960 2.668355 -0.361986 0
M  V30 46 H -7.440679 1.895237 1.180235 0
M  V30 47 H -4.917832 -1.253522 2.458188 0
M  V30 48 H 1.210057 -0.142718 0.870287 0
M  V30 49 H 2.100080 -1.993672 0.669599 0
M  V30 END ATOM
M  V30 BEGIN BOND
M  V30 1 1 1 2
M  V30 2 2 2 3
M  V30 3 1 3 4
M  V30 4 1 4 5
M  V30 5 2 5 6
M  V30 6 1 6 7
M  V30 7 2 7 8
M  V30 8 1 8 9
M  V30 9 2 9 10
M  V30 10 1 10 11
M  V30 11 2 11 12
M  V30 12 1 12 13
M  V30 13 1 13 14
M  V30 14 1 14 15
M  V30 15 1 15 16
M  V30 16 1 16 17
M  V30 17 1 16 18
M  V30 18 1 18 19
M  V30 19 2 19 20
M  V30 20 1 20 21
M  V30 21 2 21 22
M  V30 22 1 22 23
M  V30 23 1 23 24
M  V30 24 2 23 25
M  V30 25 2 13 26
M  V30 26 1 8 27
M  V30 27 2 27 28
M  V30 28 1 28 2
M  V30 29 1 28 5
M  V30 30 1 26 9
M  V30 31 1 25 19
M  V30 32 1 1 29
M  V30 33 1 1 30
M  V30 34 1 1 31
M  V30 35 1 4 32
M  V30 36 1 6 33
M  V30 37 1 7 34
M  V30 38 1 10 35
M  V30 39 1 12 36
M  V30 40 1 15 37
M  V30 41 1 15 38
M  V30 42 1 16 39 CFG=1
M  V30 43 1 17 40
M  V30 44 1 17 41
M  V30 45 1 18 42
M  V30 46 1 18 43
M  V30 47 1 20 44
M  V30 48 1 21 45
M  V30 49 1 22 46
M  V30 50 1 25 47
M  V30 51 1 26 48
M  V30 52 1 27 49
M  V30 END BOND
M  V30 END CTAB
M  END
>  <Dataset>  (150) 
ChEMBL_Kinases

>  <Ligand_Instance>  (150) 
nan

>  <PDB_ID>  (150) 
nan

>  <Standardized_SMILES>  (150) 
Cc1n[nH]c2ccc(-c3cncc(OC[C@@H](N)Cc4cccc(Br)c4)c3)cc12

>  <Name>  (150) 
nan

>  <Pocket>  (150) 
nan

>  <ATP_Site>  (150) 
nan

>  <Peripheral>  (150) 
nan

>  <Num_H_Atoms_ProtBoundConf>  (150) 
nan

>  <Num_Resolved_Atoms>  (150) 
nan

>  <Num_Not_Resolved_Atoms>  (150) 
nan

$$$$
CHEMBL390371
     RDKit          3D

  0  0  0  0  0  0  0  0  0  0999 V3000
M  V30 BEGIN CTAB
M  V30 COUNTS 49 52 0 0 0
M  V30 BEGIN ATOM
M  V30 1 C 2.145595 -5.046299 2.150629 0
M  V30 2 C 3.439842 -4.588344 1.563337 0
M  V30 3 N 4.643861 -5.198875 1.630031 0
M  V30 4 N 5.561067 -4.492203 0.986853 0
M  V30 5 C 4.941390 -3.389091 0.484985 0
M  V30 6 C 5.406295 -2.340750 -0.249477 0
M  V30 7 C 4.595542 -1.284440 -0.675482 0
M  V30 8 C 3.242178 -1.332262 -0.315333 0
M  V30 9 C 2.401162 -0.221314 -0.762732 0
M  V30 10 C 2.579422 0.484119 -1.931332 0
M  V30 11 N 1.718104 1.510668 -2.230535 0
M  V30 12 C 0.718691 1.766772 -1.325381 0
M  V30 13 C 0.488885 1.077552 -0.116106 0
M  V30 14 O -0.597775 1.688627 0.423228 0
M  V30 15 C -1.184500 1.303717 1.624880 0
M  V30 16 C -1.774342 -0.075440 1.653544 0 CFG=1
M  V30 17 N -2.331026 -0.292349 2.984156 0
M  V30 18 C -2.816618 -0.258671 0.559739 0
M  V30 19 C -3.951791 0.667799 0.662338 0
M  V30 20 C -3.987949 1.792642 -0.141795 0
M  V30 21 C -5.032850 2.698805 -0.062583 0
M  V30 22 C -6.078959 2.520246 0.817552 0
M  V30 23 C -6.067982 1.411045 1.627470 0
M  V30 24 C -5.009045 0.514027 1.531471 0
M  V30 25 Cl -5.078522 -0.893625 2.591393 0
M  V30 26 C 1.393211 0.069272 0.107360 0
M  V30 27 C 2.756764 -2.383350 0.425685 0
M  V30 28 C 3.610942 -3.416584 0.827445 0
M  V30 29 H 2.235842 -6.094185 2.478511 0
M  V30 30 H 1.875999 -4.442774 3.039356 0
M  V30 31 H 1.318662 -4.957487 1.434131 0
M  V30 32 H 6.567588 -4.777641 0.908440 0
M  V30 33 H 6.473182 -2.331005 -0.518229 0
M  V30 34 H 5.013439 -0.471678 -1.258020 0
M  V30 35 H 3.415266 0.163341 -2.547294 0
M  V30 36 H 0.192038 2.615382 -1.803750 0
M  V30 37 H -1.915436 2.069913 2.001827 0
M  V30 38 H -0.398411 1.299122 2.446853 0
M  V30 39 H -0.987409 -0.828257 1.535038 0
M  V30 40 H -1.816099 -1.006776 3.535644 0
M  V30 41 H -2.480548 0.563734 3.526453 0
M  V30 42 H -3.150101 -1.327065 0.596908 0
M  V30 43 H -2.265547 -0.147478 -0.398113 0
M  V30 44 H -3.213663 2.041112 -0.878884 0
M  V30 45 H -5.129541 3.608892 -0.663645 0
M  V30 46 H -6.908482 3.218024 0.894796 0
M  V30 47 H -6.885243 1.231811 2.343874 0
M  V30 48 H 1.185260 -0.401413 1.028860 0
M  V30 49 H 1.734510 -2.424721 0.701503 0
M  V30 END ATOM
M  V30 BEGIN BOND
M  V30 1 1 1 2
M  V30 2 2 2 3
M  V30 3 1 3 4
M  V30 4 1 4 5
M  V30 5 2 5 6
M  V30 6 1 6 7
M  V30 7 2 7 8
M  V30 8 1 8 9
M  V30 9 2 9 10
M  V30 10 1 10 11
M  V30 11 2 11 12
M  V30 12 1 12 13
M  V30 13 1 13 14
M  V30 14 1 14 15
M  V30 15 1 15 16
M  V30 16 1 16 17
M  V30 17 1 16 18
M  V30 18 1 18 19
M  V30 19 2 19 20
M  V30 20 1 20 21
M  V30 21 2 21 22
M  V30 22 1 22 23
M  V30 23 2 23 24
M  V30 24 1 24 25
M  V30 25 2 13 26
M  V30 26 1 8 27
M  V30 27 2 27 28
M  V30 28 1 28 2
M  V30 29 1 28 5
M  V30 30 1 26 9
M  V30 31 1 24 19
M  V30 32 1 1 29
M  V30 33 1 1 30
M  V30 34 1 1 31
M  V30 35 1 4 32
M  V30 36 1 6 33
M  V30 37 1 7 34
M  V30 38 1 10 35
M  V30 39 1 12 36
M  V30 40 1 15 37
M  V30 41 1 15 38
M  V30 42 1 16 39 CFG=3
M  V30 43 1 17 40
M  V30 44 1 17 41
M  V30 45 1 18 42
M  V30 46 1 18 43
M  V30 47 1 20 44
M  V30 48 1 21 45
M  V30 49 1 22 46
M  V30 50 1 23 47
M  V30 51 1 26 48
M  V30 52 1 27 49
M  V30 END BOND
M  V30 END CTAB
M  END
>  <Dataset>  (151) 
ChEMBL_Kinases

>  <Ligand_Instance>  (151) 
nan

>  <PDB_ID>  (151) 
nan

>  <Standardized_SMILES>  (151) 
Cc1n[nH]c2ccc(-c3cncc(OC[C@@H](N)Cc4ccccc4Cl)c3)cc12

>  <Name>  (151) 
nan

>  <Pocket>  (151) 
nan

>  <ATP_Site>  (151) 
nan

>  <Peripheral>  (151) 
nan

>  <Num_H_Atoms_ProtBoundConf>  (151) 
nan

>  <Num_Resolved_Atoms>  (151) 
nan

>  <Num_Not_Resolved_Atoms>  (151) 
nan

$$$$
CHEMBL487822
     RDKit          3D

  0  0  0  0  0  0  0  0  0  0999 V3000
M  V30 BEGIN CTAB
M  V30 COUNTS 46 48 0 0 0
M  V30 BEGIN ATOM
M  V30 1 C 0.042558 -5.375413 5.027123 0
M  V30 2 O -0.203854 -5.660849 3.687117 0
M  V30 3 C -0.031578 -4.832285 2.607164 0
M  V30 4 C 0.431877 -3.540436 2.716901 0
M  V30 5 C 0.590607 -2.736173 1.597896 0
M  V30 6 C 0.283910 -3.217475 0.326925 0
M  V30 7 C 0.451402 -2.383003 -0.883831 0
M  V30 8 O 0.139656 -2.908243 -2.006461 0
M  V30 9 O 0.942917 -1.079827 -0.679606 0
M  V30 10 C 1.106207 -0.298216 -1.820556 0
M  V30 11 C 1.643606 1.066413 -1.641905 0
M  V30 12 C 1.716171 1.688602 -3.046704 0
M  V30 13 O 0.495267 1.636928 -3.695296 0
M  V30 14 C 0.774133 2.000533 -0.846602 0
M  V30 15 C 1.257542 1.824778 0.530672 0
M  V30 16 C 0.814419 1.864604 1.756442 0
M  V30 17 C -0.588140 2.164571 1.986917 0
M  V30 18 C -1.585883 1.498747 1.310036 0
M  V30 19 C -2.937886 1.787489 1.491076 0
M  V30 20 N -3.322347 2.757076 2.359635 0
M  V30 21 C -2.357981 3.434754 3.045377 0
M  V30 22 C -1.003208 3.152278 2.871899 0
M  V30 23 C 2.684678 1.511442 0.304039 0
M  V30 24 O 3.715934 1.507648 1.032914 0
M  V30 25 O 2.907459 1.142312 -1.016141 0
M  V30 26 C -0.178814 -4.512622 0.234337 0
M  V30 27 C -0.337143 -5.313120 1.344989 0
M  V30 28 H 1.005869 -5.905220 5.284376 0
M  V30 29 H -0.797540 -5.793649 5.646478 0
M  V30 30 H 0.115303 -4.292879 5.222930 0
M  V30 31 H 0.682636 -3.116932 3.666676 0
M  V30 32 H 0.952295 -1.718773 1.646273 0
M  V30 33 H 0.063626 -0.174495 -2.249844 0
M  V30 34 H 1.653475 -0.859032 -2.612464 0
M  V30 35 H 2.005116 2.764616 -2.993682 0
M  V30 36 H 2.466205 1.160291 -3.637997 0
M  V30 37 H 0.348915 2.423326 -4.277245 0
M  V30 38 H 1.098245 3.041051 -1.161922 0
M  V30 39 H -0.293015 1.855503 -1.015193 0
M  V30 40 H 1.398719 1.692475 2.635067 0
M  V30 41 H -1.436599 0.711196 0.618799 0
M  V30 42 H -3.743761 1.280672 0.974504 0
M  V30 43 H -2.702167 4.198765 3.726407 0
M  V30 44 H -0.252220 3.716746 3.436172 0
M  V30 45 H -0.421926 -4.899251 -0.766242 0
M  V30 46 H -0.706391 -6.311392 1.150448 0
M  V30 END ATOM
M  V30 BEGIN BOND
M  V30 1 1 1 2
M  V30 2 1 2 3
M  V30 3 2 3 4
M  V30 4 1 4 5
M  V30 5 2 5 6
M  V30 6 1 6 7
M  V30 7 2 7 8
M  V30 8 1 7 9
M  V30 9 1 9 10
M  V30 10 1 10 11
M  V30 11 1 11 12
M  V30 12 1 12 13
M  V30 13 1 11 14
M  V30 14 1 14 15
M  V30 15 2 15 16
M  V30 16 1 16 17
M  V30 17 2 17 18
M  V30 18 1 18 19
M  V30 19 2 19 20
M  V30 20 1 20 21
M  V30 21 2 21 22
M  V30 22 1 15 23
M  V30 23 2 23 24
M  V30 24 1 23 25
M  V30 25 1 6 26
M  V30 26 2 26 27
M  V30 27 1 27 3
M  V30 28 1 25 11
M  V30 29 1 22 17
M  V30 30 1 1 28
M  V30 31 1 1 29
M  V30 32 1 1 30
M  V30 33 1 4 31
M  V30 34 1 5 32
M  V30 35 1 10 33
M  V30 36 1 10 34
M  V30 37 1 12 35
M  V30 38 1 12 36
M  V30 39 1 13 37
M  V30 40 1 14 38
M  V30 41 1 14 39
M  V30 42 1 16 40
M  V30 43 1 18 41
M  V30 44 1 19 42
M  V30 45 1 21 43
M  V30 46 1 22 44
M  V30 47 1 26 45
M  V30 48 1 27 46
M  V30 END BOND
M  V30 END CTAB
M  END
>  <Dataset>  (152) 
ChEMBL_Kinases

>  <Ligand_Instance>  (152) 
nan

>  <PDB_ID>  (152) 
nan

>  <Standardized_SMILES>  (152) 
COc1ccc(C(=O)OCC2(CO)C/C(=C\c3ccncc3)C(=O)O2)cc1

>  <Name>  (152) 
nan

>  <Pocket>  (152) 
nan

>  <ATP_Site>  (152) 
nan

>  <Peripheral>  (152) 
nan

>  <Num_H_Atoms_ProtBoundConf>  (152) 
nan

>  <Num_Resolved_Atoms>  (152) 
nan

>  <Num_Not_Resolved_Atoms>  (152) 
nan

$$$$
CHEMBL3900630
     RDKit          3D

  0  0  0  0  0  0  0  0  0  0999 V3000
M  V30 BEGIN CTAB
M  V30 COUNTS 53 57 0 0 0
M  V30 BEGIN ATOM
M  V30 1 C 1.169508 -5.487698 6.300194 0
M  V30 2 O 1.308871 -4.067033 6.431274 0
M  V30 3 C 0.935115 -3.193576 5.443078 0
M  V30 4 O 0.493914 -3.956426 4.520246 0
M  V30 5 N 1.047750 -1.776965 5.513061 0
M  V30 6 C 0.573810 -1.142308 4.326046 0
M  V30 7 N 1.189014 -0.792701 3.180651 0
M  V30 8 C 0.314553 -0.211574 2.338915 0
M  V30 9 C 0.346662 0.333865 1.070750 0
M  V30 10 C -0.810103 0.864461 0.502251 0
M  V30 11 C -0.568644 1.411162 -0.881977 0
M  V30 12 O -1.710975 1.764371 -1.536175 0
M  V30 13 C 0.320857 2.603741 -0.720857 0
M  V30 14 C -0.020385 3.786234 -0.067313 0
M  V30 15 C 0.915362 4.798245 -0.000244 0
M  V30 16 C 2.176060 4.697164 -0.549894 0
M  V30 17 C 2.465614 3.497888 -1.190156 0
M  V30 18 C 1.569785 2.453360 -1.287493 0
M  V30 19 C 1.575980 1.119081 -1.876056 0
M  V30 20 O 2.581311 0.697569 -2.463752 0
M  V30 21 N 0.308452 0.517611 -1.632724 0
M  V30 22 C -0.086868 -0.779599 -2.049638 0
M  V30 23 C -1.349377 -1.291533 -1.777982 0
M  V30 24 C -1.792606 -2.542279 -2.153814 0
M  V30 25 C -0.930993 -3.360791 -2.853082 0
M  V30 26 O -1.325565 -4.629145 -3.255713 0
M  V30 27 C -2.637316 -5.055082 -2.926482 0
M  V30 28 C 0.349644 -2.911491 -3.159518 0
M  V30 29 C 0.707787 -1.645512 -2.743465 0
M  V30 30 C -2.005257 0.855459 1.192239 0
M  V30 31 C -2.041389 0.311502 2.459294 0
M  V30 32 C -0.895975 -0.220302 3.036766 0
M  V30 33 N -0.731247 -0.794909 4.260929 0
M  V30 34 H 1.800015 -6.025672 7.006294 0
M  V30 35 H 1.461313 -5.802887 5.255818 0
M  V30 36 H 0.085125 -5.729926 6.370208 0
M  V30 37 H 1.450469 -1.361507 6.393019 0
M  V30 38 H 1.324967 0.289990 0.623531 0
M  V30 39 H -1.559996 2.536463 -2.134594 0
M  V30 40 H -0.986453 3.977246 0.403365 0
M  V30 41 H 0.679403 5.742580 0.507058 0
M  V30 42 H 2.914629 5.479496 -0.504159 0
M  V30 43 H 3.447531 3.374800 -1.637651 0
M  V30 44 H -2.077917 -0.711804 -1.237329 0
M  V30 45 H -2.774538 -2.902833 -1.925931 0
M  V30 46 H -2.773619 -4.940166 -1.815248 0
M  V30 47 H -2.810775 -6.110763 -3.164156 0
M  V30 48 H -3.405037 -4.445504 -3.412237 0
M  V30 49 H 1.011603 -3.561670 -3.706213 0
M  V30 50 H 1.704475 -1.369931 -3.014512 0
M  V30 51 H -2.833941 1.286430 0.668615 0
M  V30 52 H -2.991394 0.314946 2.983415 0
M  V30 53 H -1.523142 -0.906062 4.958950 0
M  V30 END ATOM
M  V30 BEGIN BOND
M  V30 1 1 1 2
M  V30 2 1 2 3
M  V30 3 2 3 4
M  V30 4 1 3 5
M  V30 5 1 5 6
M  V30 6 2 6 7
M  V30 7 1 7 8
M  V30 8 2 8 9
M  V30 9 1 9 10
M  V30 10 1 10 11
M  V30 11 1 11 12
M  V30 12 1 11 13
M  V30 13 2 13 14
M  V30 14 1 14 15
M  V30 15 2 15 16
M  V30 16 1 16 17
M  V30 17 2 17 18
M  V30 18 1 18 19
M  V30 19 2 19 20
M  V30 20 1 19 21
M  V30 21 1 21 22
M  V30 22 2 22 23
M  V30 23 1 23 24
M  V30 24 2 24 25
M  V30 25 1 25 26
M  V30 26 1 26 27
M  V30 27 1 25 28
M  V30 28 2 28 29
M  V30 29 2 10 30
M  V30 30 1 30 31
M  V30 31 2 31 32
M  V30 32 1 32 33
M  V30 33 1 33 6
M  V30 34 1 32 8
M  V30 35 1 21 11
M  V30 36 1 29 22
M  V30 37 1 18 13
M  V30 38 1 1 34
M  V30 39 1 1 35
M  V30 40 1 1 36
M  V30 41 1 5 37
M  V30 42 1 9 38
M  V30 43 1 12 39
M  V30 44 1 14 40
M  V30 45 1 15 41
M  V30 46 1 16 42
M  V30 47 1 17 43
M  V30 48 1 23 44
M  V30 49 1 24 45
M  V30 50 1 27 46
M  V30 51 1 27 47
M  V30 52 1 27 48
M  V30 53 1 28 49
M  V30 54 1 29 50
M  V30 55 1 30 51
M  V30 56 1 31 52
M  V30 57 1 33 53
M  V30 END BOND
M  V30 END CTAB
M  END
>  <Dataset>  (153) 
ChEMBL_Kinases

>  <Ligand_Instance>  (153) 
nan

>  <PDB_ID>  (153) 
nan

>  <Standardized_SMILES>  (153) 
COC(=O)Nc1nc2cc(C3(O)c4ccccc4C(=O)N3c3ccc(OC)cc3)ccc2[nH]1

>  <Name>  (153) 
nan

>  <Pocket>  (153) 
nan

>  <ATP_Site>  (153) 
nan

>  <Peripheral>  (153) 
nan

>  <Num_H_Atoms_ProtBoundConf>  (153) 
nan

>  <Num_Resolved_Atoms>  (153) 
nan

>  <Num_Not_Resolved_Atoms>  (153) 
nan

$$$$
CHEMBL603675
     RDKit          3D

  0  0  0  0  0  0  0  0  0  0999 V3000
M  V30 BEGIN CTAB
M  V30 COUNTS 56 59 0 0 0
M  V30 BEGIN ATOM
M  V30 1 C 3.085052 -3.502520 4.303976 0
M  V30 2 C 1.792676 -3.120244 3.653687 0
M  V30 3 C 1.198257 -4.363771 3.002456 0
M  V30 4 C 0.802478 -2.711090 4.724482 0
M  V30 5 C 1.954508 -2.045955 2.617390 0
M  V30 6 C 1.868885 -0.695728 2.894103 0
M  V30 7 C 2.032098 0.223783 1.872024 0
M  V30 8 C 2.284076 -0.164089 0.549981 0
M  V30 9 C 2.465075 0.760989 -0.570336 0
M  V30 10 C 1.229645 1.138943 -1.310166 0
M  V30 11 N 1.651932 2.058517 -2.371629 0
M  V30 12 C 0.244989 1.916496 -0.467541 0
M  V30 13 C -1.134745 1.880824 -1.136586 0
M  V30 14 N -1.641386 0.524936 -1.108264 0
M  V30 15 C -2.965577 0.062399 -1.078609 0
M  V30 16 C -3.291757 -0.712060 0.032968 0
M  V30 17 C -4.549551 -1.223406 0.181550 0
M  V30 18 N -5.503561 -1.002815 -0.722933 0
M  V30 19 C -5.237149 -0.269244 -1.799713 0
M  V30 20 N -5.913764 0.161023 -2.898967 0
M  V30 21 N -5.143796 0.895169 -3.693965 0
M  V30 22 C -3.893377 0.993626 -3.156423 0
M  V30 23 C -3.982654 0.265103 -1.988603 0
M  V30 24 C -0.629569 -0.537972 -1.110443 0
M  V30 25 C 0.521037 -0.012296 -1.943185 0
M  V30 26 C 2.356232 -1.547957 0.351642 0
M  V30 27 C 2.200410 -2.500537 1.338017 0
M  V30 28 H 3.557482 -4.404717 3.878840 0
M  V30 29 H 2.905165 -3.715812 5.398331 0
M  V30 30 H 3.768491 -2.632937 4.283110 0
M  V30 31 H 0.396612 -4.106346 2.308403 0
M  V30 32 H 2.026061 -4.945002 2.552364 0
M  V30 33 H 0.765886 -4.965773 3.837051 0
M  V30 34 H 0.176956 -3.563282 5.051662 0
M  V30 35 H 1.281695 -2.187711 5.553359 0
M  V30 36 H 0.112160 -1.975934 4.222046 0
M  V30 37 H 1.674348 -0.390042 3.913886 0
M  V30 38 H 1.967080 1.277716 2.078216 0
M  V30 39 H 3.024804 1.678964 -0.302095 0
M  V30 40 H 3.128010 0.243857 -1.314307 0
M  V30 41 H 1.077182 2.909513 -2.430130 0
M  V30 42 H 1.775567 1.559322 -3.280342 0
M  V30 43 H 0.134147 1.561154 0.555265 0
M  V30 44 H 0.546969 2.983690 -0.445049 0
M  V30 45 H -1.010377 2.249787 -2.183830 0
M  V30 46 H -1.819839 2.532184 -0.589099 0
M  V30 47 H -2.564846 -0.937023 0.817240 0
M  V30 48 H -4.783880 -1.824351 1.054587 0
M  V30 49 H -6.932220 -0.090937 -3.049628 0
M  V30 50 H -3.041051 1.522340 -3.561714 0
M  V30 51 H -1.002611 -1.462390 -1.594289 0
M  V30 52 H -0.380947 -0.676043 -0.042685 0
M  V30 53 H 0.032494 0.376297 -2.884474 0
M  V30 54 H 1.183709 -0.826500 -2.298460 0
M  V30 55 H 2.550042 -1.918358 -0.654982 0
M  V30 56 H 2.273954 -3.549658 1.084655 0
M  V30 END ATOM
M  V30 BEGIN BOND
M  V30 1 1 1 2
M  V30 2 1 2 3
M  V30 3 1 2 4
M  V30 4 1 2 5
M  V30 5 2 5 6
M  V30 6 1 6 7
M  V30 7 2 7 8
M  V30 8 1 8 9
M  V30 9 1 9 10
M  V30 10 1 10 11
M  V30 11 1 10 12
M  V30 12 1 12 13
M  V30 13 1 13 14
M  V30 14 1 14 15
M  V30 15 2 15 16
M  V30 16 1 16 17
M  V30 17 2 17 18
M  V30 18 1 18 19
M  V30 19 1 19 20
M  V30 20 1 20 21
M  V30 21 2 21 22
M  V30 22 1 22 23
M  V30 23 1 14 24
M  V30 24 1 24 25
M  V30 25 1 8 26
M  V30 26 2 26 27
M  V30 27 1 27 5
M  V30 28 1 25 10
M  V30 29 1 23 15
M  V30 30 2 23 19
M  V30 31 1 1 28
M  V30 32 1 1 29
M  V30 33 1 1 30
M  V30 34 1 3 31
M  V30 35 1 3 32
M  V30 36 1 3 33
M  V30 37 1 4 34
M  V30 38 1 4 35
M  V30 39 1 4 36
M  V30 40 1 6 37
M  V30 41 1 7 38
M  V30 42 1 9 39
M  V30 43 1 9 40
M  V30 44 1 11 41
M  V30 45 1 11 42
M  V30 46 1 12 43
M  V30 47 1 12 44
M  V30 48 1 13 45
M  V30 49 1 13 46
M  V30 50 1 16 47
M  V30 51 1 17 48
M  V30 52 1 20 49
M  V30 53 1 22 50
M  V30 54 1 24 51
M  V30 55 1 24 52
M  V30 56 1 25 53
M  V30 57 1 25 54
M  V30 58 1 26 55
M  V30 59 1 27 56
M  V30 END BOND
M  V30 END CTAB
M  END
>  <Dataset>  (154) 
ChEMBL_Kinases

>  <Ligand_Instance>  (154) 
nan

>  <PDB_ID>  (154) 
nan

>  <Standardized_SMILES>  (154) 
CC(C)(C)c1ccc(CC2(N)CCN(c3ccnc4[nH]ncc34)CC2)cc1

>  <Name>  (154) 
nan

>  <Pocket>  (154) 
nan

>  <ATP_Site>  (154) 
nan

>  <Peripheral>  (154) 
nan

>  <Num_H_Atoms_ProtBoundConf>  (154) 
nan

>  <Num_Resolved_Atoms>  (154) 
nan

>  <Num_Not_Resolved_Atoms>  (154) 
nan

$$$$
CHEMBL3903187
     RDKit          3D

  0  0  0  0  0  0  0  0  0  0999 V3000
M  V30 BEGIN CTAB
M  V30 COUNTS 57 61 0 0 0
M  V30 BEGIN ATOM
M  V30 1 C 2.709217 -3.494589 3.900498 0
M  V30 2 C 3.846544 -3.419612 2.894554 0
M  V30 3 C 3.336762 -2.699144 1.702668 0
M  V30 4 C 3.473554 -1.320119 1.640262 0
M  V30 5 C 2.965190 -0.739795 0.471963 0
M  V30 6 C 2.362342 -1.460678 -0.566344 0
M  V30 7 N 1.952299 -0.730095 -1.573553 0
M  V30 8 C 1.492612 0.039855 -2.354064 0
M  V30 9 S 0.723196 0.955612 -1.023349 0
M  V30 10 C -0.131095 2.057683 -2.184677 0
M  V30 11 C -1.007053 2.991481 -1.878124 0
M  V30 12 C -1.395853 3.238758 -0.499112 0
M  V30 13 C -1.519304 4.518818 0.052323 0
M  V30 14 C -1.911976 4.622132 1.370478 0
M  V30 15 N -2.185385 3.574468 2.166953 0
M  V30 16 C -2.083238 2.314610 1.686854 0
M  V30 17 N -2.351874 1.211301 2.530350 0
M  V30 18 C -2.497595 -0.167712 2.201117 0
M  V30 19 C -3.200172 -0.435760 1.017246 0
M  V30 20 C -3.399604 -1.738815 0.556088 0
M  V30 21 C -2.895871 -2.813177 1.277269 0
M  V30 22 C -3.098044 -4.157359 0.798819 0
M  V30 23 N -2.740565 -5.365895 1.278179 0
M  V30 24 N -3.148188 -6.341119 0.490959 0
M  V30 25 N -3.769691 -5.763232 -0.497167 0
M  V30 26 N -3.765907 -4.450010 -0.356249 0
M  V30 27 C -2.207125 -2.522010 2.442166 0
M  V30 28 C -2.003477 -1.239099 2.906733 0
M  V30 29 C -1.694098 2.187133 0.378500 0
M  V30 30 C 0.343114 1.686977 -3.494282 0
M  V30 31 O -0.021577 2.325103 -4.529340 0
M  V30 32 N 1.204205 0.617757 -3.590008 0
M  V30 33 C 1.900394 -0.076361 -4.650867 0
M  V30 34 C 2.272474 -2.833477 -0.411687 0
M  V30 35 C 2.752063 -3.454680 0.708245 0
M  V30 36 H 2.332832 -2.484930 4.142707 0
M  V30 37 H 3.045047 -3.927557 4.865762 0
M  V30 38 H 1.842108 -4.056057 3.477263 0
M  V30 39 H 4.700823 -2.901827 3.374478 0
M  V30 40 H 4.081001 -4.469750 2.625319 0
M  V30 41 H 3.933250 -0.728551 2.423017 0
M  V30 42 H 3.093087 0.356316 0.460592 0
M  V30 43 H -1.436347 3.582720 -2.673089 0
M  V30 44 H -1.302723 5.375584 -0.580165 0
M  V30 45 H -1.999213 5.631932 1.770310 0
M  V30 46 H -2.476504 1.307321 3.539389 0
M  V30 47 H -3.671476 0.296353 0.342862 0
M  V30 48 H -3.952133 -1.950726 -0.372539 0
M  V30 49 H -4.230306 -3.850468 -1.075613 0
M  V30 50 H -1.790870 -3.336500 3.045315 0
M  V30 51 H -1.463584 -1.000468 3.820117 0
M  V30 52 H -1.583293 1.228865 -0.074362 0
M  V30 53 H 1.476206 -1.105597 -4.716082 0
M  V30 54 H 2.997324 -0.075059 -4.534797 0
M  V30 55 H 1.669727 0.375389 -5.650189 0
M  V30 56 H 1.809592 -3.353263 -1.214551 0
M  V30 57 H 2.681188 -4.546429 0.831943 0
M  V30 END ATOM
M  V30 BEGIN BOND
M  V30 1 1 1 2
M  V30 2 1 2 3
M  V30 3 2 3 4
M  V30 4 1 4 5
M  V30 5 2 5 6
M  V30 6 1 6 7
M  V30 7 2 7 8
M  V30 8 1 8 9
M  V30 9 1 9 10
M  V30 10 2 10 11
M  V30 11 1 11 12
M  V30 12 2 12 13
M  V30 13 1 13 14
M  V30 14 2 14 15
M  V30 15 1 15 16
M  V30 16 1 16 17
M  V30 17 1 17 18
M  V30 18 2 18 19
M  V30 19 1 19 20
M  V30 20 2 20 21
M  V30 21 1 21 22
M  V30 22 2 22 23
M  V30 23 1 23 24
M  V30 24 2 24 25
M  V30 25 1 25 26
M  V30 26 1 21 27
M  V30 27 2 27 28
M  V30 28 2 16 29
M  V30 29 1 10 30
M  V30 30 2 30 31
M  V30 31 1 30 32
M  V30 32 1 32 33
M  V30 33 1 6 34
M  V30 34 2 34 35
M  V30 35 1 35 3
M  V30 36 1 32 8
M  V30 37 1 29 12
M  V30 38 1 28 18
M  V30 39 1 26 22
M  V30 40 1 1 36
M  V30 41 1 1 37
M  V30 42 1 1 38
M  V30 43 1 2 39
M  V30 44 1 2 40
M  V30 45 1 4 41
M  V30 46 1 5 42
M  V30 47 1 11 43
M  V30 48 1 13 44
M  V30 49 1 14 45
M  V30 50 1 17 46
M  V30 51 1 19 47
M  V30 52 1 20 48
M  V30 53 1 26 49
M  V30 54 1 27 50
M  V30 55 1 28 51
M  V30 56 1 29 52
M  V30 57 1 33 53
M  V30 58 1 33 54
M  V30 59 1 33 55
M  V30 60 1 34 56
M  V30 61 1 35 57
M  V30 END BOND
M  V30 END CTAB
M  END
>  <Dataset>  (155) 
ChEMBL_Kinases

>  <Ligand_Instance>  (155) 
nan

>  <PDB_ID>  (155) 
nan

>  <Standardized_SMILES>  (155) 
CCc1ccc(/N=C2\S/C(=C\c3ccnc(Nc4ccc(-c5nnn[nH]5)cc4)c3)C(=O)N2C)cc1

>  <Name>  (155) 
nan

>  <Pocket>  (155) 
nan

>  <ATP_Site>  (155) 
nan

>  <Peripheral>  (155) 
nan

>  <Num_H_Atoms_ProtBoundConf>  (155) 
nan

>  <Num_Resolved_Atoms>  (155) 
nan

>  <Num_Not_Resolved_Atoms>  (155) 
nan

$$$$
CHEMBL390601
     RDKit          3D

  0  0  0  0  0  0  0  0  0  0999 V3000
M  V30 BEGIN CTAB
M  V30 COUNTS 35 38 0 0 0
M  V30 BEGIN ATOM
M  V30 1 O 0.135871 -2.848734 4.225702 0
M  V30 2 C 1.143963 -3.023773 3.482001 0
M  V30 3 N 2.197816 -3.948365 3.798804 0
M  V30 4 C 2.924404 -4.443373 2.652147 0
M  V30 5 C 3.402617 -3.360310 1.733667 0
M  V30 6 C 2.356068 -2.402281 1.360209 0
M  V30 7 N 2.187740 -1.577218 0.310065 0
M  V30 8 C 1.025195 -0.928101 0.507749 0
M  V30 9 C 0.489502 0.063407 -0.422829 0
M  V30 10 C 1.184391 0.374350 -1.572327 0
M  V30 11 C 0.596563 1.321252 -2.385246 0
M  V30 12 N -0.574324 1.924536 -2.111609 0
M  V30 13 C -1.275978 1.639218 -0.993199 0
M  V30 14 C -2.545866 2.301296 -0.707892 0
M  V30 15 C -3.318042 2.063248 0.410856 0
M  V30 16 N -4.490073 2.724275 0.600453 0
M  V30 17 C -4.931312 3.618903 -0.281003 0
M  V30 18 N -4.191803 3.863540 -1.377001 0
M  V30 19 C -3.021694 3.232380 -1.608757 0
M  V30 20 C -0.707247 0.707673 -0.183959 0
M  V30 21 C 0.430187 -1.326898 1.687613 0
M  V30 22 C 1.274672 -2.269175 2.238651 0
M  V30 23 H 2.333449 -4.170473 4.827712 0
M  V30 24 H 3.824233 -4.963142 3.048686 0
M  V30 25 H 2.347952 -5.206341 2.089396 0
M  V30 26 H 4.269281 -2.807015 2.155617 0
M  V30 27 H 3.769910 -3.849676 0.807188 0
M  V30 28 H 2.872769 -1.505412 -0.476783 0
M  V30 29 H 2.116215 -0.070532 -1.842080 0
M  V30 30 H 1.058848 1.644345 -3.321487 0
M  V30 31 H -2.971996 1.346278 1.124800 0
M  V30 32 H -5.886916 4.121958 -0.073437 0
M  V30 33 H -2.431942 3.439538 -2.500599 0
M  V30 34 H -1.198876 0.416567 0.734235 0
M  V30 35 H -0.501414 -0.973398 2.091949 0
M  V30 END ATOM
M  V30 BEGIN BOND
M  V30 1 2 1 2
M  V30 2 1 2 3
M  V30 3 1 3 4
M  V30 4 1 4 5
M  V30 5 1 5 6
M  V30 6 1 6 7
M  V30 7 1 7 8
M  V30 8 1 8 9
M  V30 9 2 9 10
M  V30 10 1 10 11
M  V30 11 2 11 12
M  V30 12 1 12 13
M  V30 13 1 13 14
M  V30 14 2 14 15
M  V30 15 1 15 16
M  V30 16 2 16 17
M  V30 17 1 17 18
M  V30 18 2 18 19
M  V30 19 2 13 20
M  V30 20 2 8 21
M  V30 21 1 21 22
M  V30 22 1 22 2
M  V30 23 2 22 6
M  V30 24 1 20 9
M  V30 25 1 19 14
M  V30 26 1 3 23
M  V30 27 1 4 24
M  V30 28 1 4 25
M  V30 29 1 5 26
M  V30 30 1 5 27
M  V30 31 1 7 28
M  V30 32 1 10 29
M  V30 33 1 11 30
M  V30 34 1 15 31
M  V30 35 1 17 32
M  V30 36 1 19 33
M  V30 37 1 20 34
M  V30 38 1 21 35
M  V30 END BOND
M  V30 END CTAB
M  END
>  <Dataset>  (156) 
ChEMBL_Kinases

>  <Ligand_Instance>  (156) 
nan

>  <PDB_ID>  (156) 
nan

>  <Standardized_SMILES>  (156) 
O=C1NCCc2[nH]c(-c3ccnc(-c4cncnc4)c3)cc21

>  <Name>  (156) 
nan

>  <Pocket>  (156) 
nan

>  <ATP_Site>  (156) 
nan

>  <Peripheral>  (156) 
nan

>  <Num_H_Atoms_ProtBoundConf>  (156) 
nan

>  <Num_Resolved_Atoms>  (156) 
nan

>  <Num_Not_Resolved_Atoms>  (156) 
nan

$$$$
CHEMBL3903124
     RDKit          3D

  0  0  0  0  0  0  0  0  0  0999 V3000
M  V30 BEGIN CTAB
M  V30 COUNTS 47 51 0 0 0
M  V30 BEGIN ATOM
M  V30 1 O -1.804377 -3.029168 4.935597 0
M  V30 2 C -1.158107 -3.030530 3.859234 0
M  V30 3 C -0.636713 -4.288319 3.260549 0
M  V30 4 O 0.553453 -4.075719 2.534048 0
M  V30 5 C 0.820353 -2.910977 1.834384 0
M  V30 6 C 1.804934 -2.966361 0.869225 0
M  V30 7 C 2.087009 -1.815504 0.159484 0
M  V30 8 C 1.375021 -0.668322 0.446286 0
M  V30 9 C 1.630785 0.623989 -0.279067 0
M  V30 10 O 2.605806 0.505897 -1.244178 0
M  V30 11 C 1.900099 1.649101 0.753097 0
M  V30 12 C 3.049879 1.675913 1.537941 0
M  V30 13 C 3.206629 2.673224 2.493758 0
M  V30 14 C 2.217697 3.624183 2.650739 0
M  V30 15 C 1.108126 3.560610 1.860782 0
M  V30 16 C 0.910993 2.598458 0.907880 0
M  V30 17 C -0.084641 2.218444 -0.092695 0
M  V30 18 O -1.147450 2.922238 -0.198158 0
M  V30 19 N 0.353374 1.046664 -0.814369 0
M  V30 20 C -0.513709 0.563830 -1.870006 0
M  V30 21 C -1.479726 -0.421027 -1.326784 0
M  V30 22 C -2.701982 -0.058228 -0.817498 0
M  V30 23 C -3.651467 -0.916322 -0.301553 0
M  V30 24 C -3.362347 -2.265933 -0.288683 0
M  V30 25 C -2.150611 -2.696198 -0.786219 0
M  V30 26 Cl -1.768286 -4.421774 -0.774992 0
M  V30 27 C -1.234393 -1.798580 -1.291344 0
M  V30 28 C 0.370580 -0.581733 1.419732 0
M  V30 29 C 0.120327 -1.751846 2.104806 0
M  V30 30 N -0.875199 -1.828736 3.129874 0
M  V30 31 H -1.437996 -4.733952 2.673860 0
M  V30 32 H -0.421591 -4.978441 4.099587 0
M  V30 33 H 2.396714 -3.814611 0.592141 0
M  V30 34 H 2.834121 -1.692603 -0.634317 0
M  V30 35 H 3.520646 0.653926 -0.906465 0
M  V30 36 H 3.877459 0.989223 1.499762 0
M  V30 37 H 4.058650 2.780963 3.150415 0
M  V30 38 H 2.310462 4.412685 3.386352 0
M  V30 39 H 0.303009 4.294388 1.953816 0
M  V30 40 H -0.992047 1.386172 -2.440746 0
M  V30 41 H 0.107964 0.007448 -2.611549 0
M  V30 42 H -2.996881 0.982566 -0.795837 0
M  V30 43 H -4.602339 -0.566310 0.087366 0
M  V30 44 H -4.051760 -3.003441 0.098268 0
M  V30 45 H -0.276655 -2.140699 -1.684187 0
M  V30 46 H -0.169854 0.311744 1.628735 0
M  V30 47 H -1.415872 -0.970603 3.352525 0
M  V30 END ATOM
M  V30 BEGIN BOND
M  V30 1 2 1 2
M  V30 2 1 2 3
M  V30 3 1 3 4
M  V30 4 1 4 5
M  V30 5 2 5 6
M  V30 6 1 6 7
M  V30 7 2 7 8
M  V30 8 1 8 9
M  V30 9 1 9 10
M  V30 10 1 9 11
M  V30 11 2 11 12
M  V30 12 1 12 13
M  V30 13 2 13 14
M  V30 14 1 14 15
M  V30 15 2 15 16
M  V30 16 1 16 17
M  V30 17 2 17 18
M  V30 18 1 17 19
M  V30 19 1 19 20
M  V30 20 1 20 21
M  V30 21 2 21 22
M  V30 22 1 22 23
M  V30 23 2 23 24
M  V30 24 1 24 25
M  V30 25 1 25 26
M  V30 26 2 25 27
M  V30 27 1 8 28
M  V30 28 2 28 29
M  V30 29 1 29 30
M  V30 30 1 30 2
M  V30 31 1 29 5
M  V30 32 1 19 9
M  V30 33 1 27 21
M  V30 34 1 16 11
M  V30 35 1 3 31
M  V30 36 1 3 32
M  V30 37 1 6 33
M  V30 38 1 7 34
M  V30 39 1 10 35
M  V30 40 1 12 36
M  V30 41 1 13 37
M  V30 42 1 14 38
M  V30 43 1 15 39
M  V30 44 1 20 40
M  V30 45 1 20 41
M  V30 46 1 22 42
M  V30 47 1 23 43
M  V30 48 1 24 44
M  V30 49 1 27 45
M  V30 50 1 28 46
M  V30 51 1 30 47
M  V30 END BOND
M  V30 END CTAB
M  END
>  <Dataset>  (157) 
ChEMBL_Kinases

>  <Ligand_Instance>  (157) 
nan

>  <PDB_ID>  (157) 
nan

>  <Standardized_SMILES>  (157) 
O=C1COc2ccc(C3(O)c4ccccc4C(=O)N3Cc3cccc(Cl)c3)cc2N1

>  <Name>  (157) 
nan

>  <Pocket>  (157) 
nan

>  <ATP_Site>  (157) 
nan

>  <Peripheral>  (157) 
nan

>  <Num_H_Atoms_ProtBoundConf>  (157) 
nan

>  <Num_Resolved_Atoms>  (157) 
nan

>  <Num_Not_Resolved_Atoms>  (157) 
nan

$$$$
CHEMBL3906103
     RDKit          3D

  0  0  0  0  0  0  0  0  0  0999 V3000
M  V30 BEGIN CTAB
M  V30 COUNTS 51 54 0 0 0
M  V30 BEGIN ATOM
M  V30 1 C 1.608184 -5.809425 4.477286 0
M  V30 2 O 2.440572 -5.280757 3.444713 0
M  V30 3 C 1.960061 -4.408382 2.489542 0
M  V30 4 O 0.750917 -4.127990 2.605070 0
M  V30 5 N 2.713427 -3.833763 1.432773 0
M  V30 6 C 2.200073 -2.932161 0.461042 0
M  V30 7 N 2.237552 -1.594177 0.716648 0
M  V30 8 C 1.714204 -0.925708 -0.330846 0
M  V30 9 C 1.506477 0.407968 -0.625669 0
M  V30 10 C 0.935794 0.862125 -1.823166 0
M  V30 11 C 0.805607 2.333497 -1.951298 0
M  V30 12 O 0.795108 2.615814 -3.174024 0
M  V30 13 C 0.721244 3.160211 -0.757062 0
M  V30 14 C 1.644693 4.178077 -0.656894 0
M  V30 15 C 1.621608 4.940842 0.493346 0
M  V30 16 C 0.723511 4.708251 1.503553 0
M  V30 17 C -0.204494 3.694261 1.412822 0
M  V30 18 C -0.189415 2.929528 0.269368 0
M  V30 19 C -1.200305 1.901467 0.148643 0
M  V30 20 O -1.615275 1.039296 -0.617932 0
M  V30 21 O -2.116197 1.645844 1.130677 0
M  V30 22 C -3.138968 0.733266 1.205080 0
M  V30 23 C -2.833431 -0.688645 1.120426 0
M  V30 24 C -2.852082 -1.546775 0.042950 0
M  V30 25 C -2.524035 -2.880520 0.104622 0
M  V30 26 C -2.147893 -3.405376 1.334979 0
M  V30 27 C -2.108115 -2.600580 2.457041 0
M  V30 28 C -2.449373 -1.265961 2.329254 0
M  V30 29 C 0.565768 -0.094769 -2.748995 0
M  V30 30 C 0.775317 -1.423281 -2.448122 0
M  V30 31 C 1.336797 -1.865278 -1.271323 0
M  V30 32 N 1.646266 -3.066608 -0.755559 0
M  V30 33 H 2.050912 -6.727728 4.911591 0
M  V30 34 H 1.543621 -5.067958 5.327818 0
M  V30 35 H 0.569352 -5.982169 4.151300 0
M  V30 36 H 3.706798 -4.172230 1.476249 0
M  V30 37 H 1.826850 1.100245 0.157496 0
M  V30 38 H 2.386360 4.440872 -1.388750 0
M  V30 39 H 2.325568 5.751354 0.621296 0
M  V30 40 H 0.758881 5.353501 2.395851 0
M  V30 41 H -0.912185 3.517800 2.218473 0
M  V30 42 H -3.902662 0.954923 0.387004 0
M  V30 43 H -3.729581 0.985440 2.137012 0
M  V30 44 H -3.159529 -1.121382 -0.892692 0
M  V30 45 H -2.563296 -3.482213 -0.781180 0
M  V30 46 H -1.897433 -4.456604 1.345150 0
M  V30 47 H -1.810959 -3.062926 3.374417 0
M  V30 48 H -2.384270 -0.715521 3.279064 0
M  V30 49 H 0.130693 0.296016 -3.653137 0
M  V30 50 H 0.482100 -2.150565 -3.175957 0
M  V30 51 H 1.502889 -3.987854 -1.185289 0
M  V30 END ATOM
M  V30 BEGIN BOND
M  V30 1 1 1 2
M  V30 2 1 2 3
M  V30 3 2 3 4
M  V30 4 1 3 5
M  V30 5 1 5 6
M  V30 6 2 6 7
M  V30 7 1 7 8
M  V30 8 2 8 9
M  V30 9 1 9 10
M  V30 10 1 10 11
M  V30 11 2 11 12
M  V30 12 1 11 13
M  V30 13 2 13 14
M  V30 14 1 14 15
M  V30 15 2 15 16
M  V30 16 1 16 17
M  V30 17 2 17 18
M  V30 18 1 18 19
M  V30 19 2 19 20
M  V30 20 1 19 21
M  V30 21 1 21 22
M  V30 22 1 22 23
M  V30 23 2 23 24
M  V30 24 1 24 25
M  V30 25 2 25 26
M  V30 26 1 26 27
M  V30 27 2 27 28
M  V30 28 2 10 29
M  V30 29 1 29 30
M  V30 30 2 30 31
M  V30 31 1 31 32
M  V30 32 1 32 6
M  V30 33 1 31 8
M  V30 34 1 18 13
M  V30 35 1 28 23
M  V30 36 1 1 33
M  V30 37 1 1 34
M  V30 38 1 1 35
M  V30 39 1 5 36
M  V30 40 1 9 37
M  V30 41 1 14 38
M  V30 42 1 15 39
M  V30 43 1 16 40
M  V30 44 1 17 41
M  V30 45 1 22 42
M  V30 46 1 22 43
M  V30 47 1 24 44
M  V30 48 1 25 45
M  V30 49 1 26 46
M  V30 50 1 27 47
M  V30 51 1 28 48
M  V30 52 1 29 49
M  V30 53 1 30 50
M  V30 54 1 32 51
M  V30 END BOND
M  V30 END CTAB
M  END
>  <Dataset>  (158) 
ChEMBL_Kinases

>  <Ligand_Instance>  (158) 
nan

>  <PDB_ID>  (158) 
nan

>  <Standardized_SMILES>  (158) 
COC(=O)Nc1nc2cc(C(=O)c3ccccc3C(=O)OCc3ccccc3)ccc2[nH]1

>  <Name>  (158) 
nan

>  <Pocket>  (158) 
nan

>  <ATP_Site>  (158) 
nan

>  <Peripheral>  (158) 
nan

>  <Num_H_Atoms_ProtBoundConf>  (158) 
nan

>  <Num_Resolved_Atoms>  (158) 
nan

>  <Num_Not_Resolved_Atoms>  (158) 
nan

$$$$
CHEMBL3902875
     RDKit          3D

  0  0  0  0  0  0  0  0  0  0999 V3000
M  V30 BEGIN CTAB
M  V30 COUNTS 30 33 0 0 0
M  V30 BEGIN ATOM
M  V30 1 O -1.004850 1.981723 2.367596 0
M  V30 2 C 0.179764 1.541166 2.235605 0
M  V30 3 N 1.329746 1.980952 2.803270 0
M  V30 4 C 2.356442 1.195682 2.365271 0
M  V30 5 C 3.710164 1.212443 2.631708 0
M  V30 6 C 4.543023 0.278240 2.038027 0
M  V30 7 C 4.038787 -0.676077 1.178326 0
M  V30 8 C 2.665219 -0.683539 0.915641 0
M  V30 9 O 2.095953 -1.628170 0.051561 0
M  V30 10 C 1.823109 0.240557 1.499487 0
M  V30 11 N 0.500743 0.494004 1.455656 0
M  V30 12 C -0.381909 -0.293418 0.659110 0
M  V30 13 N -0.528440 -0.506580 -0.657183 0
M  V30 14 C -1.551895 -1.369836 -0.865923 0
M  V30 15 C -2.111492 -1.912835 -1.999670 0
M  V30 16 C -3.186932 -2.796249 -1.878687 0
M  V30 17 C -3.706222 -3.140972 -0.644781 0
M  V30 18 C -3.133519 -2.587211 0.487391 0
M  V30 19 C -2.057495 -1.701558 0.391640 0
M  V30 20 N -1.319642 -1.025267 1.316741 0
M  V30 21 H 1.388654 2.789363 3.462707 0
M  V30 22 H 4.140253 1.952022 3.305308 0
M  V30 23 H 5.613440 0.232651 2.201499 0
M  V30 24 H 4.608393 -1.449044 0.664779 0
M  V30 25 H 2.141939 -1.463014 -0.943068 0
M  V30 26 H -1.703208 -1.641356 -2.963394 0
M  V30 27 H -3.642196 -3.236088 -2.773419 0
M  V30 28 H -4.545015 -3.828758 -0.532721 0
M  V30 29 H -3.518051 -2.837818 1.467956 0
M  V30 30 H -1.541886 -1.138155 2.342471 0
M  V30 END ATOM
M  V30 BEGIN BOND
M  V30 1 2 1 2
M  V30 2 1 2 3
M  V30 3 1 3 4
M  V30 4 2 4 5
M  V30 5 1 5 6
M  V30 6 2 6 7
M  V30 7 1 7 8
M  V30 8 1 8 9
M  V30 9 2 8 10
M  V30 10 1 10 11
M  V30 11 1 11 12
M  V30 12 2 12 13
M  V30 13 1 13 14
M  V30 14 2 14 15
M  V30 15 1 15 16
M  V30 16 2 16 17
M  V30 17 1 17 18
M  V30 18 2 18 19
M  V30 19 1 19 20
M  V30 20 1 11 2
M  V30 21 1 20 12
M  V30 22 1 10 4
M  V30 23 1 19 14
M  V30 24 1 3 21
M  V30 25 1 5 22
M  V30 26 1 6 23
M  V30 27 1 7 24
M  V30 28 1 9 25
M  V30 29 1 15 26
M  V30 30 1 16 27
M  V30 31 1 17 28
M  V30 32 1 18 29
M  V30 33 1 20 30
M  V30 END BOND
M  V30 END CTAB
M  END
>  <Dataset>  (159) 
ChEMBL_Kinases

>  <Ligand_Instance>  (159) 
nan

>  <PDB_ID>  (159) 
nan

>  <Standardized_SMILES>  (159) 
O=c1[nH]c2cccc(O)c2n1-c1nc2ccccc2[nH]1

>  <Name>  (159) 
nan

>  <Pocket>  (159) 
nan

>  <ATP_Site>  (159) 
nan

>  <Peripheral>  (159) 
nan

>  <Num_H_Atoms_ProtBoundConf>  (159) 
nan

>  <Num_Resolved_Atoms>  (159) 
nan

>  <Num_Not_Resolved_Atoms>  (159) 
nan

$$$$
CHEMBL3902816
     RDKit          3D

  0  0  0  0  0  0  0  0  0  0999 V3000
M  V30 BEGIN CTAB
M  V30 COUNTS 63 66 0 0 0
M  V30 BEGIN ATOM
M  V30 1 C -0.607035 -2.878440 4.648432 0
M  V30 2 C 0.435529 -1.986969 4.084939 0
M  V30 3 N 1.312711 -1.328868 4.866564 0
M  V30 4 C 2.265680 -0.515560 4.373938 0
M  V30 5 C 2.374102 -0.327161 3.010006 0
M  V30 6 N 3.325693 0.498603 2.331904 0
M  V30 7 C 2.943537 1.845541 2.105050 0
M  V30 8 O 1.789717 2.156927 2.536907 0
M  V30 9 C 3.855480 2.756211 1.419713 0
M  V30 10 C 5.111988 2.442088 0.942153 0
M  V30 11 C 5.876853 3.398675 0.309934 0
M  V30 12 C 5.359104 4.680557 0.163813 0
M  V30 13 C 4.122065 5.034032 0.620817 0
M  V30 14 C 3.590623 6.415553 0.451241 0
M  V30 15 F 2.716448 6.494145 -0.617132 0
M  V30 16 F 2.889767 6.804985 1.565467 0
M  V30 17 F 4.617409 7.317860 0.259321 0
M  V30 18 C 3.366961 4.057030 1.254676 0
M  V30 19 C 1.462226 -1.011171 2.195857 0
M  V30 20 C 0.472161 -1.856397 2.711103 0
M  V30 21 C -0.423805 -2.517933 1.765014 0
M  V30 22 C -0.836554 -3.834343 1.737125 0
M  V30 23 N -1.674272 -4.241288 0.767424 0
M  V30 24 C -2.135401 -3.415079 -0.189759 0
M  V30 25 O -2.999669 -3.887679 -1.168918 0
M  V30 26 C -3.459583 -5.204854 -1.260356 0
M  V30 27 C -3.086865 -5.866143 -2.570178 0
M  V30 28 C -4.968185 -5.179371 -1.131040 0
M  V30 29 C -1.776560 -2.082952 -0.241166 0
M  V30 30 N -2.236653 -1.174630 -1.230050 0
M  V30 31 C -2.091655 -1.192300 -2.674739 0
M  V30 32 C -3.436467 -1.127690 -3.286756 0
M  V30 33 O -4.377365 -0.335114 -2.766207 0
M  V30 34 C -4.207773 0.275164 -1.578921 0
M  V30 35 C -2.989939 -0.001038 -0.798948 0
M  V30 36 C -0.903541 -1.656842 0.768582 0
M  V30 37 H -1.507556 -2.884771 4.018197 0
M  V30 38 H -0.176714 -3.876820 4.853332 0
M  V30 39 H -0.957432 -2.507321 5.652339 0
M  V30 40 H 2.976888 0.020544 4.973168 0
M  V30 41 H 4.241961 0.096724 2.034935 0
M  V30 42 H 5.444065 1.445504 1.087766 0
M  V30 43 H 6.849120 3.076286 -0.035993 0
M  V30 44 H 5.995326 5.420286 -0.345426 0
M  V30 45 H 2.383742 4.363046 1.610451 0
M  V30 46 H 1.511705 -0.891831 1.118206 0
M  V30 47 H -0.426611 -4.426967 2.530782 0
M  V30 48 H -3.043225 -5.839302 -0.441217 0
M  V30 49 H -2.086029 -5.531683 -2.936459 0
M  V30 50 H -3.042811 -6.960862 -2.496856 0
M  V30 51 H -3.824597 -5.624500 -3.365650 0
M  V30 52 H -5.326477 -4.222597 -0.721531 0
M  V30 53 H -5.429768 -5.321433 -2.127732 0
M  V30 54 H -5.303378 -6.033939 -0.503361 0
M  V30 55 H -1.604465 -2.135058 -3.046367 0
M  V30 56 H -1.471901 -0.301352 -2.944868 0
M  V30 57 H -3.280856 -0.817918 -4.362614 0
M  V30 58 H -3.838398 -2.176660 -3.359254 0
M  V30 59 H -4.260018 1.381031 -1.748181 0
M  V30 60 H -5.087181 0.054267 -0.929643 0
M  V30 61 H -2.244715 0.843824 -0.882319 0
M  V30 62 H -3.194401 -0.044256 0.301073 0
M  V30 63 H -0.628469 -0.592360 0.711707 0
M  V30 END ATOM
M  V30 BEGIN BOND
M  V30 1 1 1 2
M  V30 2 2 2 3
M  V30 3 1 3 4
M  V30 4 2 4 5
M  V30 5 1 5 6
M  V30 6 1 6 7
M  V30 7 2 7 8
M  V30 8 1 7 9
M  V30 9 2 9 10
M  V30 10 1 10 11
M  V30 11 2 11 12
M  V30 12 1 12 13
M  V30 13 1 13 14
M  V30 14 1 14 15
M  V30 15 1 14 16
M  V30 16 1 14 17
M  V30 17 2 13 18
M  V30 18 1 5 19
M  V30 19 2 19 20
M  V30 20 1 20 21
M  V30 21 2 21 22
M  V30 22 1 22 23
M  V30 23 2 23 24
M  V30 24 1 24 25
M  V30 25 1 25 26
M  V30 26 1 26 27
M  V30 27 1 26 28
M  V30 28 1 24 29
M  V30 29 1 29 30
M  V30 30 1 30 31
M  V30 31 1 31 32
M  V30 32 1 32 33
M  V30 33 1 33 34
M  V30 34 1 34 35
M  V30 35 2 29 36
M  V30 36 1 20 2
M  V30 37 1 36 21
M  V30 38 1 18 9
M  V30 39 1 35 30
M  V30 40 1 1 37
M  V30 41 1 1 38
M  V30 42 1 1 39
M  V30 43 1 4 40
M  V30 44 1 6 41
M  V30 45 1 10 42
M  V30 46 1 11 43
M  V30 47 1 12 44
M  V30 48 1 18 45
M  V30 49 1 19 46
M  V30 50 1 22 47
M  V30 51 1 26 48
M  V30 52 1 27 49
M  V30 53 1 27 50
M  V30 54 1 27 51
M  V30 55 1 28 52
M  V30 56 1 28 53
M  V30 57 1 28 54
M  V30 58 1 31 55
M  V30 59 1 31 56
M  V30 60 1 32 57
M  V30 61 1 32 58
M  V30 62 1 34 59
M  V30 63 1 34 60
M  V30 64 1 35 61
M  V30 65 1 35 62
M  V30 66 1 36 63
M  V30 END BOND
M  V30 END CTAB
M  END
>  <Dataset>  (160) 
ChEMBL_Kinases

>  <Ligand_Instance>  (160) 
nan

>  <PDB_ID>  (160) 
nan

>  <Standardized_SMILES>  (160) 
Cc1ncc(NC(=O)c2cccc(C(F)(F)F)c2)cc1-c1cnc(OC(C)C)c(N2CCOCC2)c1

>  <Name>  (160) 
nan

>  <Pocket>  (160) 
nan

>  <ATP_Site>  (160) 
nan

>  <Peripheral>  (160) 
nan

>  <Num_H_Atoms_ProtBoundConf>  (160) 
nan

>  <Num_Resolved_Atoms>  (160) 
nan

>  <Num_Not_Resolved_Atoms>  (160) 
nan

$$$$
CHEMBL3902704
     RDKit          3D

  0  0  0  0  0  0  0  0  0  0999 V3000
M  V30 BEGIN CTAB
M  V30 COUNTS 44 47 0 0 0
M  V30 BEGIN ATOM
M  V30 1 C 0.250627 -4.336564 -1.778424 0
M  V30 2 N -0.529807 -3.137600 -1.999647 0
M  V30 3 C -1.387796 -3.094402 -3.111709 0
M  V30 4 C -2.365668 -2.185888 -3.430298 0
M  V30 5 C -3.136940 -2.116898 -4.556712 0
M  V30 6 C -2.917761 -3.080812 -5.508126 0
M  V30 7 C -1.943168 -4.051365 -5.274063 0
M  V30 8 C -1.224278 -4.024216 -4.103062 0
M  V30 9 C -0.234334 -2.193805 -0.997922 0
M  V30 10 C 0.539188 -2.572170 0.074226 0
M  V30 11 C 0.935769 -1.696345 1.099671 0
M  V30 12 C 0.548681 -0.377680 1.065241 0
M  V30 13 C 0.950779 0.547054 2.122364 0
M  V30 14 N 1.705861 0.222855 3.190230 0
M  V30 15 C 1.905108 1.289473 3.984918 0
M  V30 16 C 2.585091 1.494281 5.167732 0
M  V30 17 C 2.604689 2.742381 5.754820 0
M  V30 18 C 3.327594 2.938380 7.002615 0
M  V30 19 N 3.321938 4.223276 7.565603 0
M  V30 20 O 3.917040 1.980790 7.522552 0
M  V30 21 C 1.924726 3.757655 5.115191 0
M  V30 22 C 1.229900 3.594488 3.927085 0
M  V30 23 C 1.229651 2.331759 3.364547 0
M  V30 24 N 0.662664 1.851488 2.240519 0
M  V30 25 C -0.226973 0.061910 0.015426 0
M  V30 26 C -0.565482 -0.864389 -0.940573 0
M  V30 27 H 0.270662 -5.065602 -2.564128 0
M  V30 28 H 1.327141 -4.029734 -1.620243 0
M  V30 29 H -0.055214 -4.847120 -0.835058 0
M  V30 30 H -2.631938 -1.424074 -2.720515 0
M  V30 31 H -3.882615 -1.368258 -4.728008 0
M  V30 32 H -3.522953 -3.039416 -6.410099 0
M  V30 33 H -1.873390 -4.747888 -6.101922 0
M  V30 34 H -0.552545 -4.851755 -4.172736 0
M  V30 35 H 0.935955 -3.546678 0.283735 0
M  V30 36 H 1.536268 -1.983392 1.935363 0
M  V30 37 H 3.110850 0.701584 5.658889 0
M  V30 38 H 2.641739 4.951086 7.870150 0
M  V30 39 H 3.927213 4.988944 7.913992 0
M  V30 40 H 1.917839 4.752950 5.547231 0
M  V30 41 H 0.709736 4.436838 3.467023 0
M  V30 42 H 0.083815 2.418570 1.563697 0
M  V30 43 H -0.521607 1.091547 0.000779 0
M  V30 44 H -1.130172 -0.412078 -1.722766 0
M  V30 END ATOM
M  V30 BEGIN BOND
M  V30 1 1 1 2
M  V30 2 1 2 3
M  V30 3 2 3 4
M  V30 4 1 4 5
M  V30 5 2 5 6
M  V30 6 1 6 7
M  V30 7 2 7 8
M  V30 8 1 2 9
M  V30 9 2 9 10
M  V30 10 1 10 11
M  V30 11 2 11 12
M  V30 12 1 12 13
M  V30 13 2 13 14
M  V30 14 1 14 15
M  V30 15 2 15 16
M  V30 16 1 16 17
M  V30 17 1 17 18
M  V30 18 1 18 19
M  V30 19 2 18 20
M  V30 20 2 17 21
M  V30 21 1 21 22
M  V30 22 2 22 23
M  V30 23 1 23 24
M  V30 24 1 12 25
M  V30 25 2 25 26
M  V30 26 1 8 3
M  V30 27 1 26 9
M  V30 28 1 24 13
M  V30 29 1 23 15
M  V30 30 1 1 27
M  V30 31 1 1 28
M  V30 32 1 1 29
M  V30 33 1 4 30
M  V30 34 1 5 31
M  V30 35 1 6 32
M  V30 36 1 7 33
M  V30 37 1 8 34
M  V30 38 1 10 35
M  V30 39 1 11 36
M  V30 40 1 16 37
M  V30 41 1 19 38
M  V30 42 1 19 39
M  V30 43 1 21 40
M  V30 44 1 22 41
M  V30 45 1 24 42
M  V30 46 1 25 43
M  V30 47 1 26 44
M  V30 END BOND
M  V30 END CTAB
M  END
>  <Dataset>  (161) 
ChEMBL_Kinases

>  <Ligand_Instance>  (161) 
nan

>  <PDB_ID>  (161) 
nan

>  <Standardized_SMILES>  (161) 
CN(c1ccccc1)c1ccc(-c2nc3cc(C(N)=O)ccc3[nH]2)cc1

>  <Name>  (161) 
nan

>  <Pocket>  (161) 
nan

>  <ATP_Site>  (161) 
nan

>  <Peripheral>  (161) 
nan

>  <Num_H_Atoms_ProtBoundConf>  (161) 
nan

>  <Num_Resolved_Atoms>  (161) 
nan

>  <Num_Not_Resolved_Atoms>  (161) 
nan

$$$$
CHEMBL3905869
     RDKit          3D

  0  0  0  0  0  0  0  0  0  0999 V3000
M  V30 BEGIN CTAB
M  V30 COUNTS 65 69 0 0 0
M  V30 BEGIN ATOM
M  V30 1 C 4.345694 -5.377755 4.687491 0
M  V30 2 C 4.187280 -4.087223 3.846717 0
M  V30 3 C 5.598029 -3.480116 3.866037 0
M  V30 4 C 3.289969 -3.127255 4.538535 0
M  V30 5 O 1.992630 -3.617295 4.761014 0
M  V30 6 C 3.852397 -4.495933 2.465675 0
M  V30 7 O 3.656135 -3.564491 1.487384 0
M  V30 8 C 2.784836 -2.590989 1.217850 0
M  V30 9 O 1.824206 -2.364757 1.982753 0
M  V30 10 N 2.995163 -1.817559 0.016490 0
M  V30 11 C 1.990861 -0.792878 -0.186165 0
M  V30 12 N 0.825766 -0.908215 -0.882571 0
M  V30 13 C 0.171978 0.289901 -0.810946 0
M  V30 14 C -1.041863 0.736618 -1.326519 0
M  V30 15 C -1.431419 2.041995 -1.063968 0
M  V30 16 C -2.714187 2.513330 -1.615530 0
M  V30 17 O -2.932878 3.854050 -1.270031 0
M  V30 18 C -2.720988 2.455787 -3.111005 0
M  V30 19 C -1.784573 3.096181 -3.892419 0
M  V30 20 C -1.862816 2.961364 -5.264074 0
M  V30 21 C -2.870398 2.191976 -5.851504 0
M  V30 22 C -3.799364 1.560503 -5.021682 0
M  V30 23 C -3.727640 1.690173 -3.658840 0
M  V30 24 C -4.464023 1.246167 -2.485141 0
M  V30 25 O -5.481278 0.502093 -2.585885 0
M  V30 26 N -3.872059 1.766171 -1.269294 0
M  V30 27 C -4.453055 1.522247 0.017857 0
M  V30 28 C -3.936723 0.279787 0.622318 0
M  V30 29 C -4.537101 -0.938663 0.388654 0
M  V30 30 C -4.157337 -2.158945 0.897497 0
M  V30 31 C -3.043708 -2.180340 1.743869 0
M  V30 32 C -2.408755 -0.989141 2.008608 0
M  V30 33 C -2.836976 0.207982 1.467437 0
M  V30 34 C -0.591516 2.832070 -0.303076 0
M  V30 35 C 0.618626 2.423902 0.224504 0
M  V30 36 C 1.000758 1.117696 -0.042097 0
M  V30 37 N 2.104407 0.443312 0.330182 0
M  V30 38 H 5.070226 -5.204927 5.505566 0
M  V30 39 H 4.807987 -6.113298 3.997227 0
M  V30 40 H 3.381238 -5.769162 5.010866 0
M  V30 41 H 5.694616 -2.890110 4.802865 0
M  V30 42 H 6.347978 -4.273652 3.892344 0
M  V30 43 H 5.728308 -2.795165 2.991830 0
M  V30 44 H 3.662118 -2.976994 5.619482 0
M  V30 45 H 3.305996 -2.091236 4.159951 0
M  V30 46 H 1.328878 -2.889519 4.818636 0
M  V30 47 H 2.991754 -5.260576 2.507163 0
M  V30 48 H 4.684766 -5.172691 2.078858 0
M  V30 49 H 3.787360 -1.992931 -0.625279 0
M  V30 50 H -1.583213 0.025712 -1.891342 0
M  V30 51 H -3.428000 3.919202 -0.399615 0
M  V30 52 H -0.962478 3.714288 -3.578610 0
M  V30 53 H -1.175097 3.421466 -5.988620 0
M  V30 54 H -2.938176 2.082373 -6.925722 0
M  V30 55 H -4.599436 0.952506 -5.412134 0
M  V30 56 H -5.558430 1.403336 -0.114193 0
M  V30 57 H -4.364416 2.391753 0.707131 0
M  V30 58 H -5.419184 -0.988537 -0.268564 0
M  V30 59 H -4.681341 -3.073928 0.666079 0
M  V30 60 H -2.678333 -3.094090 2.187132 0
M  V30 61 H -1.542540 -1.003607 2.666411 0
M  V30 62 H -2.326395 1.151755 1.680776 0
M  V30 63 H -0.942497 3.845167 -0.127110 0
M  V30 64 H 1.256721 3.046967 0.810862 0
M  V30 65 H 2.900446 0.786341 0.902676 0
M  V30 END ATOM
M  V30 BEGIN BOND
M  V30 1 1 1 2
M  V30 2 1 2 3
M  V30 3 1 2 4
M  V30 4 1 4 5
M  V30 5 1 2 6
M  V30 6 1 6 7
M  V30 7 1 7 8
M  V30 8 2 8 9
M  V30 9 1 8 10
M  V30 10 1 10 11
M  V30 11 2 11 12
M  V30 12 1 12 13
M  V30 13 2 13 14
M  V30 14 1 14 15
M  V30 15 1 15 16
M  V30 16 1 16 17
M  V30 17 1 16 18
M  V30 18 2 18 19
M  V30 19 1 19 20
M  V30 20 2 20 21
M  V30 21 1 21 22
M  V30 22 2 22 23
M  V30 23 1 23 24
M  V30 24 2 24 25
M  V30 25 1 24 26
M  V30 26 1 26 27
M  V30 27 1 27 28
M  V30 28 2 28 29
M  V30 29 1 29 30
M  V30 30 2 30 31
M  V30 31 1 31 32
M  V30 32 2 32 33
M  V30 33 2 15 34
M  V30 34 1 34 35
M  V30 35 2 35 36
M  V30 36 1 36 37
M  V30 37 1 37 11
M  V30 38 1 36 13
M  V30 39 1 26 16
M  V30 40 1 33 28
M  V30 41 1 23 18
M  V30 42 1 1 38
M  V30 43 1 1 39
M  V30 44 1 1 40
M  V30 45 1 3 41
M  V30 46 1 3 42
M  V30 47 1 3 43
M  V30 48 1 4 44
M  V30 49 1 4 45
M  V30 50 1 5 46
M  V30 51 1 6 47
M  V30 52 1 6 48
M  V30 53 1 10 49
M  V30 54 1 14 50
M  V30 55 1 17 51
M  V30 56 1 19 52
M  V30 57 1 20 53
M  V30 58 1 21 54
M  V30 59 1 22 55
M  V30 60 1 27 56
M  V30 61 1 27 57
M  V30 62 1 29 58
M  V30 63 1 30 59
M  V30 64 1 31 60
M  V30 65 1 32 61
M  V30 66 1 33 62
M  V30 67 1 34 63
M  V30 68 1 35 64
M  V30 69 1 37 65
M  V30 END BOND
M  V30 END CTAB
M  END
>  <Dataset>  (162) 
ChEMBL_Kinases

>  <Ligand_Instance>  (162) 
nan

>  <PDB_ID>  (162) 
nan

>  <Standardized_SMILES>  (162) 
CC(C)(CO)COC(=O)Nc1nc2cc(C3(O)c4ccccc4C(=O)N3Cc3ccccc3)ccc2[nH]1

>  <Name>  (162) 
nan

>  <Pocket>  (162) 
nan

>  <ATP_Site>  (162) 
nan

>  <Peripheral>  (162) 
nan

>  <Num_H_Atoms_ProtBoundConf>  (162) 
nan

>  <Num_Resolved_Atoms>  (162) 
nan

>  <Num_Not_Resolved_Atoms>  (162) 
nan

$$$$
CHEMBL3904984
     RDKit          3D

  0  0  0  0  0  0  0  0  0  0999 V3000
M  V30 BEGIN CTAB
M  V30 COUNTS 50 54 0 0 0
M  V30 BEGIN ATOM
M  V30 1 C 6.051424 -5.799347 1.153704 0
M  V30 2 O 5.956812 -4.419250 0.816623 0
M  V30 3 C 4.702700 -3.934429 0.416055 0
M  V30 4 O 3.633693 -4.615599 0.324436 0
M  V30 5 N 4.572274 -2.563997 0.072769 0
M  V30 6 C 3.401633 -1.872720 -0.355465 0
M  V30 7 N 2.618024 -1.304654 0.595466 0
M  V30 8 C 1.563045 -0.694280 0.024704 0
M  V30 9 C 0.443409 0.036455 0.389841 0
M  V30 10 C -0.462129 0.526528 -0.528821 0
M  V30 11 C -1.599676 1.295379 0.096084 0
M  V30 12 O -2.547516 1.652080 -0.817232 0
M  V30 13 C -0.996774 2.522412 0.729752 0
M  V30 14 C -0.414527 3.529804 -0.021246 0
M  V30 15 C 0.114208 4.597985 0.694081 0
M  V30 16 C 0.057608 4.644978 2.087661 0
M  V30 17 C -0.535012 3.613032 2.786457 0
M  V30 18 C -1.063607 2.549321 2.105145 0
M  V30 19 C -1.756877 1.310258 2.437772 0
M  V30 20 O -1.981326 1.027859 3.657935 0
M  V30 21 N -2.080871 0.588424 1.255893 0
M  V30 22 C -2.774285 -0.644581 1.198535 0
M  V30 23 C -3.060755 -1.270654 -0.010103 0
M  V30 24 C -3.731624 -2.472240 -0.136047 0
M  V30 25 C -4.156088 -3.114279 0.991764 0
M  V30 26 C -3.904992 -2.548787 2.222204 0
M  V30 27 C -4.360660 -3.240934 3.391876 0
M  V30 28 N -4.731801 -3.798504 4.339889 0
M  V30 29 C -3.230489 -1.347535 2.278960 0
M  V30 30 C -0.271978 0.294706 -1.883182 0
M  V30 31 C 0.828034 -0.427692 -2.293963 0
M  V30 32 C 1.720944 -0.906498 -1.336691 0
M  V30 33 N 2.835474 -1.619422 -1.549761 0
M  V30 34 H 5.310472 -6.049380 1.959712 0
M  V30 35 H 7.083789 -5.967635 1.542131 0
M  V30 36 H 5.815977 -6.433922 0.276237 0
M  V30 37 H 5.423787 -1.962875 0.132210 0
M  V30 38 H 0.347401 0.186298 1.462821 0
M  V30 39 H -2.835768 2.591296 -0.776769 0
M  V30 40 H -0.331824 3.567633 -1.087469 0
M  V30 41 H 0.588354 5.428750 0.179599 0
M  V30 42 H 0.472847 5.480858 2.622511 0
M  V30 43 H -0.616884 3.578157 3.865598 0
M  V30 44 H -2.763373 -0.831812 -0.951115 0
M  V30 45 H -3.931796 -2.922151 -1.096983 0
M  V30 46 H -4.680682 -4.053888 0.900243 0
M  V30 47 H -3.072492 -0.969669 3.274195 0
M  V30 48 H -1.024462 0.712123 -2.525784 0
M  V30 49 H 0.961912 -0.599363 -3.350845 0
M  V30 50 H 3.315972 -1.989677 -2.392125 0
M  V30 END ATOM
M  V30 BEGIN BOND
M  V30 1 1 1 2
M  V30 2 1 2 3
M  V30 3 2 3 4
M  V30 4 1 3 5
M  V30 5 1 5 6
M  V30 6 2 6 7
M  V30 7 1 7 8
M  V30 8 2 8 9
M  V30 9 1 9 10
M  V30 10 1 10 11
M  V30 11 1 11 12
M  V30 12 1 11 13
M  V30 13 2 13 14
M  V30 14 1 14 15
M  V30 15 2 15 16
M  V30 16 1 16 17
M  V30 17 2 17 18
M  V30 18 1 18 19
M  V30 19 2 19 20
M  V30 20 1 19 21
M  V30 21 1 21 22
M  V30 22 2 22 23
M  V30 23 1 23 24
M  V30 24 2 24 25
M  V30 25 1 25 26
M  V30 26 1 26 27
M  V30 27 3 27 28
M  V30 28 2 26 29
M  V30 29 2 10 30
M  V30 30 1 30 31
M  V30 31 2 31 32
M  V30 32 1 32 33
M  V30 33 1 33 6
M  V30 34 1 32 8
M  V30 35 1 21 11
M  V30 36 1 29 22
M  V30 37 1 18 13
M  V30 38 1 1 34
M  V30 39 1 1 35
M  V30 40 1 1 36
M  V30 41 1 5 37
M  V30 42 1 9 38
M  V30 43 1 12 39
M  V30 44 1 14 40
M  V30 45 1 15 41
M  V30 46 1 16 42
M  V30 47 1 17 43
M  V30 48 1 23 44
M  V30 49 1 24 45
M  V30 50 1 25 46
M  V30 51 1 29 47
M  V30 52 1 30 48
M  V30 53 1 31 49
M  V30 54 1 33 50
M  V30 END BOND
M  V30 END CTAB
M  END
>  <Dataset>  (163) 
ChEMBL_Kinases

>  <Ligand_Instance>  (163) 
nan

>  <PDB_ID>  (163) 
nan

>  <Standardized_SMILES>  (163) 
COC(=O)Nc1nc2cc(C3(O)c4ccccc4C(=O)N3c3cccc(C#N)c3)ccc2[nH]1

>  <Name>  (163) 
nan

>  <Pocket>  (163) 
nan

>  <ATP_Site>  (163) 
nan

>  <Peripheral>  (163) 
nan

>  <Num_H_Atoms_ProtBoundConf>  (163) 
nan

>  <Num_Resolved_Atoms>  (163) 
nan

>  <Num_Not_Resolved_Atoms>  (163) 
nan

$$$$
CHEMBL4878207
     RDKit          3D

  0  0  0  0  0  0  0  0  0  0999 V3000
M  V30 BEGIN CTAB
M  V30 COUNTS 47 50 0 0 0
M  V30 BEGIN ATOM
M  V30 1 C 3.297652 -1.738937 2.577811 0
M  V30 2 C 4.091298 -1.778182 1.286205 0
M  V30 3 C 3.219994 -2.096693 0.131550 0
M  V30 4 N 4.829911 -0.553200 1.209940 0
M  V30 5 C 6.064431 -0.296804 1.724331 0
M  V30 6 N 6.414018 0.950174 1.449134 0
M  V30 7 N 5.450509 1.517798 0.772533 0
M  V30 8 C 4.482827 0.589137 0.630107 0
M  V30 9 C 3.254359 0.891763 -0.081667 0
M  V30 10 C 3.357792 1.221021 -1.436967 0
M  V30 11 C 2.247440 1.524157 -2.198400 0
M  V30 12 C 0.981860 1.510623 -1.633877 0
M  V30 13 C 0.918618 1.178140 -0.281931 0
M  V30 14 N -0.377278 1.160931 0.309412 0
M  V30 15 C -1.027546 -0.093121 0.235860 0
M  V30 16 O -0.277281 -0.926680 -0.357246 0
M  V30 17 C -2.335097 -0.485099 0.721110 0
M  V30 18 C -2.699803 -1.796119 0.500575 0
M  V30 19 C -3.979888 -1.962078 1.040100 0
M  V30 20 C -4.898526 -2.979832 1.161158 0
M  V30 21 C -6.113409 -2.839150 1.761506 0
M  V30 22 C -6.468924 -1.598718 2.292334 0
M  V30 23 C -5.586043 -0.550664 2.196696 0
M  V30 24 C -4.371277 -0.759109 1.576336 0
M  V30 25 N -3.354767 0.093709 1.361425 0
M  V30 26 C -3.307484 1.480950 1.750361 0
M  V30 27 N 2.013794 0.885421 0.444080 0
M  V30 28 H 3.983471 -2.032608 3.422006 0
M  V30 29 H 2.997908 -0.680708 2.787063 0
M  V30 30 H 2.426668 -2.411703 2.578254 0
M  V30 31 H 4.855576 -2.590220 1.410052 0
M  V30 32 H 3.259983 -3.187637 -0.066366 0
M  V30 33 H 2.162334 -1.910672 0.444294 0
M  V30 34 H 3.484183 -1.614911 -0.828836 0
M  V30 35 H 6.685087 -0.991961 2.278267 0
M  V30 36 H 4.326353 1.251455 -1.949162 0
M  V30 37 H 2.324972 1.778368 -3.243813 0
M  V30 38 H 0.108325 1.748817 -2.231755 0
M  V30 39 H -0.890207 1.936709 0.776220 0
M  V30 40 H -2.265211 -2.688043 0.036586 0
M  V30 41 H -4.630671 -3.948932 0.750993 0
M  V30 42 H -6.799983 -3.686868 1.826194 0
M  V30 43 H -7.421142 -1.476164 2.766519 0
M  V30 44 H -5.830153 0.425449 2.598016 0
M  V30 45 H -2.495535 1.674508 2.488600 0
M  V30 46 H -4.283900 1.734299 2.242472 0
M  V30 47 H -3.235151 2.177113 0.893512 0
M  V30 END ATOM
M  V30 BEGIN BOND
M  V30 1 1 1 2
M  V30 2 1 2 3
M  V30 3 1 2 4
M  V30 4 1 4 5
M  V30 5 2 5 6
M  V30 6 1 6 7
M  V30 7 2 7 8
M  V30 8 1 8 9
M  V30 9 2 9 10
M  V30 10 1 10 11
M  V30 11 2 11 12
M  V30 12 1 12 13
M  V30 13 1 13 14
M  V30 14 1 14 15
M  V30 15 2 15 16
M  V30 16 1 15 17
M  V30 17 2 17 18
M  V30 18 1 18 19
M  V30 19 2 19 20
M  V30 20 1 20 21
M  V30 21 2 21 22
M  V30 22 1 22 23
M  V30 23 2 23 24
M  V30 24 1 24 25
M  V30 25 1 25 26
M  V30 26 2 13 27
M  V30 27 1 8 4
M  V30 28 1 27 9
M  V30 29 1 25 17
M  V30 30 1 24 19
M  V30 31 1 1 28
M  V30 32 1 1 29
M  V30 33 1 1 30
M  V30 34 1 2 31
M  V30 35 1 3 32
M  V30 36 1 3 33
M  V30 37 1 3 34
M  V30 38 1 5 35
M  V30 39 1 10 36
M  V30 40 1 11 37
M  V30 41 1 12 38
M  V30 42 1 14 39
M  V30 43 1 18 40
M  V30 44 1 20 41
M  V30 45 1 21 42
M  V30 46 1 22 43
M  V30 47 1 23 44
M  V30 48 1 26 45
M  V30 49 1 26 46
M  V30 50 1 26 47
M  V30 END BOND
M  V30 END CTAB
M  END
>  <Dataset>  (164) 
ChEMBL_Kinases

>  <Ligand_Instance>  (164) 
nan

>  <PDB_ID>  (164) 
nan

>  <Standardized_SMILES>  (164) 
CC(C)n1cnnc1-c1cccc(NC(=O)c2cc3ccccc3n2C)n1

>  <Name>  (164) 
nan

>  <Pocket>  (164) 
nan

>  <ATP_Site>  (164) 
nan

>  <Peripheral>  (164) 
nan

>  <Num_H_Atoms_ProtBoundConf>  (164) 
nan

>  <Num_Resolved_Atoms>  (164) 
nan

>  <Num_Not_Resolved_Atoms>  (164) 
nan

$$$$
CHEMBL3905055
     RDKit          3D

  0  0  0  0  0  0  0  0  0  0999 V3000
M  V30 BEGIN CTAB
M  V30 COUNTS 38 41 0 0 0
M  V30 BEGIN ATOM
M  V30 1 F 0.513322 -6.668372 4.201564 0
M  V30 2 C 1.377703 -6.037569 3.374376 0
M  V30 3 C 2.584493 -6.636178 3.098331 0
M  V30 4 C 3.510104 -6.052999 2.267310 0
M  V30 5 C 3.166636 -4.845358 1.729811 0
M  V30 6 F 4.079301 -4.295927 0.925631 0
M  V30 7 C 1.987147 -4.180572 1.952322 0
M  V30 8 C 1.558699 -2.907677 1.421647 0
M  V30 9 C 2.085223 -2.033270 0.627293 0
M  V30 10 C 1.791688 -0.760461 0.025724 0
M  V30 11 N 2.671724 -0.126076 -0.805811 0
M  V30 12 N 2.168598 1.001961 -1.213478 0
M  V30 13 C 0.942072 1.227406 -0.711975 0
M  V30 14 C 0.031041 2.254387 -0.848723 0
M  V30 15 C -1.159089 2.133492 -0.160992 0
M  V30 16 C -2.130829 3.213088 -0.297169 0
M  V30 17 C -2.260232 3.958917 -1.454954 0
M  V30 18 C -3.200018 4.984055 -1.547854 0
M  V30 19 N -3.997593 5.253878 -0.490219 0
M  V30 20 C -3.849802 4.508928 0.629735 0
M  V30 21 C -2.944890 3.475772 0.806321 0
M  V30 22 C -1.415549 1.020311 0.631107 0
M  V30 23 C -0.464443 0.033314 0.723456 0
M  V30 24 C 0.730167 0.109111 0.060232 0
M  V30 25 C 1.106834 -4.826807 2.796996 0
M  V30 26 H 2.796244 -7.590742 3.554486 0
M  V30 27 H 4.432703 -6.537929 2.072044 0
M  V30 28 H 0.588892 -2.537486 1.710676 0
M  V30 29 H 3.058423 -2.466409 0.375215 0
M  V30 30 H 2.727883 1.601472 -1.858040 0
M  V30 31 H 0.295564 3.090573 -1.481195 0
M  V30 32 H -1.610827 3.738112 -2.314342 0
M  V30 33 H -3.308100 5.572959 -2.450920 0
M  V30 34 H -4.541035 4.802191 1.434093 0
M  V30 35 H -2.918622 2.952878 1.744948 0
M  V30 36 H -2.351132 0.974205 1.142532 0
M  V30 37 H -0.697602 -0.803052 1.339598 0
M  V30 38 H 0.120021 -4.421259 3.072403 0
M  V30 END ATOM
M  V30 BEGIN BOND
M  V30 1 1 1 2
M  V30 2 2 2 3
M  V30 3 1 3 4
M  V30 4 2 4 5
M  V30 5 1 5 6
M  V30 6 1 5 7
M  V30 7 1 7 8
M  V30 8 2 8 9
M  V30 9 1 9 10
M  V30 10 2 10 11
M  V30 11 1 11 12
M  V30 12 1 12 13
M  V30 13 2 13 14
M  V30 14 1 14 15
M  V30 15 1 15 16
M  V30 16 2 16 17
M  V30 17 1 17 18
M  V30 18 2 18 19
M  V30 19 1 19 20
M  V30 20 2 20 21
M  V30 21 2 15 22
M  V30 22 1 22 23
M  V30 23 2 23 24
M  V30 24 2 7 25
M  V30 25 1 25 2
M  V30 26 1 24 10
M  V30 27 1 24 13
M  V30 28 1 21 16
M  V30 29 1 3 26
M  V30 30 1 4 27
M  V30 31 1 8 28
M  V30 32 1 9 29
M  V30 33 1 12 30
M  V30 34 1 14 31
M  V30 35 1 17 32
M  V30 36 1 18 33
M  V30 37 1 20 34
M  V30 38 1 21 35
M  V30 39 1 22 36
M  V30 40 1 23 37
M  V30 41 1 25 38
M  V30 END BOND
M  V30 END CTAB
M  END
>  <Dataset>  (165) 
ChEMBL_Kinases

>  <Ligand_Instance>  (165) 
nan

>  <PDB_ID>  (165) 
nan

>  <Standardized_SMILES>  (165) 
Fc1ccc(F)c(/C=C/c2n[nH]c3cc(-c4ccncc4)ccc23)c1

>  <Name>  (165) 
nan

>  <Pocket>  (165) 
nan

>  <ATP_Site>  (165) 
nan

>  <Peripheral>  (165) 
nan

>  <Num_H_Atoms_ProtBoundConf>  (165) 
nan

>  <Num_Resolved_Atoms>  (165) 
nan

>  <Num_Not_Resolved_Atoms>  (165) 
nan

$$$$
CHEMBL3904920
     RDKit          3D

  0  0  0  0  0  0  0  0  0  0999 V3000
M  V30 BEGIN CTAB
M  V30 COUNTS 38 41 0 0 0
M  V30 BEGIN ATOM
M  V30 1 N 1.812692 -7.390148 1.275740 0
M  V30 2 C 2.830398 -6.708296 1.947160 0
M  V30 3 O 3.763942 -7.304993 2.525435 0
M  V30 4 C 2.757977 -5.252452 1.945699 0
M  V30 5 C 3.725684 -4.508257 2.592643 0
M  V30 6 C 3.743444 -3.126217 2.646327 0
M  V30 7 C 2.730205 -2.434823 2.013765 0
M  V30 8 N 2.408565 -1.139204 1.845591 0
M  V30 9 C 1.279295 -1.037571 1.119790 0
M  V30 10 C 0.575699 0.170912 0.701540 0
M  V30 11 C -0.579360 0.092705 -0.046328 0
M  V30 12 C -1.224072 1.245880 -0.429150 0
M  V30 13 C -0.771428 2.499097 -0.100385 0
M  V30 14 C -1.271246 3.828215 -0.373170 0
M  V30 15 O -0.633391 4.895349 -0.340091 0
M  V30 16 C -2.683708 4.062817 -0.741781 0
M  V30 17 C -3.290842 5.290801 -1.075392 0
M  V30 18 C -4.611455 5.213987 -1.365586 0
M  V30 19 C -5.287347 4.014388 -1.330043 0
M  V30 20 S -4.058514 2.832631 -0.861346 0
M  V30 21 C 0.404337 2.549739 0.659638 0
M  V30 22 C 1.067144 1.409640 1.054480 0
M  V30 23 N 0.879996 -2.301397 0.823749 0
M  V30 24 C 1.757806 -3.167796 1.364089 0
M  V30 25 C 1.758373 -4.545843 1.322456 0
M  V30 26 H 0.942568 -7.255779 1.842766 0
M  V30 27 H 1.081241 -7.891024 0.775940 0
M  V30 28 H 4.494571 -5.105245 3.070336 0
M  V30 29 H 4.522351 -2.585410 3.165533 0
M  V30 30 H 2.961173 -0.338643 2.226520 0
M  V30 31 H -1.011932 -0.840523 -0.352791 0
M  V30 32 H -2.121592 1.266961 -1.014208 0
M  V30 33 H -2.785330 6.245144 -1.110895 0
M  V30 34 H -5.262443 6.031781 -1.644031 0
M  V30 35 H -6.299836 3.693107 -1.511024 0
M  V30 36 H 0.907638 3.466421 1.011106 0
M  V30 37 H 1.980240 1.418544 1.644241 0
M  V30 38 H 0.981878 -5.115631 0.803856 0
M  V30 END ATOM
M  V30 BEGIN BOND
M  V30 1 1 1 2
M  V30 2 2 2 3
M  V30 3 1 2 4
M  V30 4 2 4 5
M  V30 5 1 5 6
M  V30 6 2 6 7
M  V30 7 1 7 8
M  V30 8 1 8 9
M  V30 9 1 9 10
M  V30 10 2 10 11
M  V30 11 1 11 12
M  V30 12 2 12 13
M  V30 13 1 13 14
M  V30 14 2 14 15
M  V30 15 1 14 16
M  V30 16 2 16 17
M  V30 17 1 17 18
M  V30 18 2 18 19
M  V30 19 1 19 20
M  V30 20 1 13 21
M  V30 21 2 21 22
M  V30 22 2 9 23
M  V30 23 1 23 24
M  V30 24 2 24 25
M  V30 25 1 25 4
M  V30 26 1 24 7
M  V30 27 1 22 10
M  V30 28 1 20 16
M  V30 29 1 1 26
M  V30 30 1 1 27
M  V30 31 1 5 28
M  V30 32 1 6 29
M  V30 33 1 8 30
M  V30 34 1 11 31
M  V30 35 1 12 32
M  V30 36 1 17 33
M  V30 37 1 18 34
M  V30 38 1 19 35
M  V30 39 1 21 36
M  V30 40 1 22 37
M  V30 41 1 25 38
M  V30 END BOND
M  V30 END CTAB
M  END
>  <Dataset>  (166) 
ChEMBL_Kinases

>  <Ligand_Instance>  (166) 
nan

>  <PDB_ID>  (166) 
nan

>  <Standardized_SMILES>  (166) 
NC(=O)c1ccc2[nH]c(-c3ccc(C(=O)c4cccs4)cc3)nc2c1

>  <Name>  (166) 
nan

>  <Pocket>  (166) 
nan

>  <ATP_Site>  (166) 
nan

>  <Peripheral>  (166) 
nan

>  <Num_H_Atoms_ProtBoundConf>  (166) 
nan

>  <Num_Resolved_Atoms>  (166) 
nan

>  <Num_Not_Resolved_Atoms>  (166) 
nan

$$$$
CHEMBL603433
     RDKit          3D

  0  0  0  0  0  0  0  0  0  0999 V3000
M  V30 BEGIN CTAB
M  V30 COUNTS 45 48 0 0 0
M  V30 BEGIN ATOM
M  V30 1 C 0.654900 -4.466657 3.080690 0
M  V30 2 C -0.391083 -4.633206 2.040354 0
M  V30 3 O -1.155111 -5.604472 2.277260 0
M  V30 4 C -0.608012 -3.842849 0.856984 0
M  V30 5 C -1.656885 -4.199994 0.039484 0
M  V30 6 C -1.842784 -3.412852 -1.102044 0
M  V30 7 C -1.007563 -2.332391 -1.383962 0
M  V30 8 C 0.050147 -1.997602 -0.529686 0
M  V30 9 C 0.777101 -0.856074 -1.013894 0
M  V30 10 C 0.832063 0.342997 -0.336093 0
M  V30 11 C 0.267200 0.818495 0.920011 0
M  V30 12 C -0.655032 1.841829 0.667570 0
M  V30 13 C -1.334335 2.465344 1.720746 0
M  V30 14 C -1.073002 2.047516 3.010650 0
M  V30 15 N -1.691204 2.601767 4.094961 0
M  V30 16 C -1.384090 2.139108 5.342099 0
M  V30 17 C -0.471442 1.129650 5.563855 0
M  V30 18 N 0.152019 0.568891 4.486692 0
M  V30 19 C -0.162958 1.039512 3.244388 0
M  V30 20 C 0.499747 0.430827 2.221075 0
M  V30 21 N 1.607409 1.145046 -1.122008 0
M  V30 22 C 1.983773 2.537806 -0.859142 0
M  V30 23 N 2.010115 0.502748 -2.209984 0
M  V30 24 C 2.845349 1.036732 -3.269263 0
M  V30 25 C 1.511642 -0.746347 -2.175770 0
M  V30 26 O 1.667738 -1.650209 -3.017640 0
M  V30 27 C 0.224192 -2.779578 0.591652 0
M  V30 28 H 1.094795 -5.429613 3.406622 0
M  V30 29 H 0.221166 -3.885948 3.925447 0
M  V30 30 H 1.460003 -3.845171 2.637309 0
M  V30 31 H -2.300855 -5.033815 0.257584 0
M  V30 32 H -2.670277 -3.697774 -1.743613 0
M  V30 33 H -1.278205 -1.823308 -2.299869 0
M  V30 34 H -0.942852 2.253074 -0.290057 0
M  V30 35 H -2.054974 3.258289 1.583421 0
M  V30 36 H -1.944771 2.664576 6.104214 0
M  V30 37 H -0.289038 0.825524 6.586002 0
M  V30 38 H 1.215646 -0.347165 2.287223 0
M  V30 39 H 1.831176 2.800212 0.204316 0
M  V30 40 H 1.476076 3.234518 -1.557043 0
M  V30 41 H 3.083680 2.627290 -1.033434 0
M  V30 42 H 3.437873 1.897665 -2.949854 0
M  V30 43 H 2.224097 1.249168 -4.164511 0
M  V30 44 H 3.556778 0.214211 -3.569817 0
M  V30 45 H 1.058622 -2.460775 1.197222 0
M  V30 END ATOM
M  V30 BEGIN BOND
M  V30 1 1 1 2
M  V30 2 2 2 3
M  V30 3 1 2 4
M  V30 4 2 4 5
M  V30 5 1 5 6
M  V30 6 2 6 7
M  V30 7 1 7 8
M  V30 8 1 8 9
M  V30 9 2 9 10
M  V30 10 1 10 11
M  V30 11 2 11 12
M  V30 12 1 12 13
M  V30 13 2 13 14
M  V30 14 1 14 15
M  V30 15 2 15 16
M  V30 16 1 16 17
M  V30 17 2 17 18
M  V30 18 1 18 19
M  V30 19 2 19 20
M  V30 20 1 10 21
M  V30 21 1 21 22
M  V30 22 1 21 23
M  V30 23 1 23 24
M  V30 24 1 23 25
M  V30 25 2 25 26
M  V30 26 2 8 27
M  V30 27 1 27 4
M  V30 28 1 25 9
M  V30 29 1 20 11
M  V30 30 1 19 14
M  V30 31 1 1 28
M  V30 32 1 1 29
M  V30 33 1 1 30
M  V30 34 1 5 31
M  V30 35 1 6 32
M  V30 36 1 7 33
M  V30 37 1 12 34
M  V30 38 1 13 35
M  V30 39 1 16 36
M  V30 40 1 17 37
M  V30 41 1 20 38
M  V30 42 1 22 39
M  V30 43 1 22 40
M  V30 44 1 22 41
M  V30 45 1 24 42
M  V30 46 1 24 43
M  V30 47 1 24 44
M  V30 48 1 27 45
M  V30 END BOND
M  V30 END CTAB
M  END
>  <Dataset>  (167) 
ChEMBL_Kinases

>  <Ligand_Instance>  (167) 
nan

>  <PDB_ID>  (167) 
nan

>  <Standardized_SMILES>  (167) 
CC(=O)c1cccc(-c2c(-c3ccc4nccnc4c3)n(C)n(C)c2=O)c1

>  <Name>  (167) 
nan

>  <Pocket>  (167) 
nan

>  <ATP_Site>  (167) 
nan

>  <Peripheral>  (167) 
nan

>  <Num_H_Atoms_ProtBoundConf>  (167) 
nan

>  <Num_Resolved_Atoms>  (167) 
nan

>  <Num_Not_Resolved_Atoms>  (167) 
nan

$$$$
CHEMBL3904708
     RDKit          3D

  0  0  0  0  0  0  0  0  0  0999 V3000
M  V30 BEGIN CTAB
M  V30 COUNTS 52 56 0 0 0
M  V30 BEGIN ATOM
M  V30 1 C 3.153114 -3.635334 7.675073 0
M  V30 2 O 2.264302 -2.516053 7.614135 0
M  V30 3 C 1.832012 -1.992090 6.407474 0
M  V30 4 O 2.283673 -2.578052 5.380000 0
M  V30 5 N 0.952019 -0.886515 6.261612 0
M  V30 6 C 0.601369 -0.464684 4.947854 0
M  V30 7 N 1.047825 -1.031811 3.816011 0
M  V30 8 C 0.528027 -0.399706 2.740639 0
M  V30 9 C 0.668636 -0.591448 1.379779 0
M  V30 10 C 0.027754 0.190881 0.439801 0
M  V30 11 C 0.168112 0.013724 -1.017533 0
M  V30 12 O 1.283813 -0.799878 -1.206081 0
M  V30 13 C 0.355933 1.341005 -1.685958 0
M  V30 14 C 1.329393 2.280448 -1.447131 0
M  V30 15 C 1.387621 3.485251 -2.126921 0
M  V30 16 C 0.407717 3.708931 -3.073836 0
M  V30 17 C -0.570985 2.771098 -3.318317 0
M  V30 18 C -0.634653 1.558503 -2.638713 0
M  V30 19 C -1.481067 0.363861 -2.635277 0
M  V30 20 O -2.460159 0.371493 -3.451914 0
M  V30 21 N -0.971817 -0.570065 -1.661391 0
M  V30 22 C -1.695282 -1.773117 -1.607001 0
M  V30 23 C -2.786584 -2.166449 -0.878076 0
M  V30 24 Cl -3.403797 -0.924361 0.183599 0
M  V30 25 C -3.333600 -3.416826 -0.985991 0
M  V30 26 C -2.808210 -4.356529 -1.844453 0
M  V30 27 C -1.709436 -3.991713 -2.592822 0
M  V30 28 I -0.934239 -5.454491 -3.894379 0
M  V30 29 C -1.144233 -2.714802 -2.488048 0
M  V30 30 C 0.043116 -2.491170 -3.376970 0
M  V30 31 C -0.764145 1.179767 0.998046 0
M  V30 32 C -0.957600 1.437049 2.338008 0
M  V30 33 C -0.287490 0.617495 3.223899 0
M  V30 34 N -0.209677 0.536752 4.562419 0
M  V30 35 H 2.616141 -4.563282 7.956238 0
M  V30 36 H 3.563755 -3.766632 6.631643 0
M  V30 37 H 3.992955 -3.360740 8.312007 0
M  V30 38 H 0.599385 -0.428537 7.118767 0
M  V30 39 H 1.312608 -1.395133 1.039298 0
M  V30 40 H 1.995529 -0.402471 -1.734754 0
M  V30 41 H 2.102451 2.092434 -0.692236 0
M  V30 42 H 2.148642 4.226748 -1.943624 0
M  V30 43 H 0.362030 4.630662 -3.668420 0
M  V30 44 H -1.332733 2.958671 -4.063269 0
M  V30 45 H -4.191931 -3.619601 -0.363903 0
M  V30 46 H -3.279449 -5.329729 -1.890496 0
M  V30 47 H 0.972635 -2.901331 -2.981124 0
M  V30 48 H 0.135448 -1.411532 -3.620167 0
M  V30 49 H -0.200098 -2.972592 -4.354767 0
M  V30 50 H -1.306866 1.843876 0.325375 0
M  V30 51 H -1.586959 2.223468 2.676593 0
M  V30 52 H -0.720668 1.178014 5.198995 0
M  V30 END ATOM
M  V30 BEGIN BOND
M  V30 1 1 1 2
M  V30 2 1 2 3
M  V30 3 2 3 4
M  V30 4 1 3 5
M  V30 5 1 5 6
M  V30 6 2 6 7
M  V30 7 1 7 8
M  V30 8 2 8 9
M  V30 9 1 9 10
M  V30 10 1 10 11
M  V30 11 1 11 12
M  V30 12 1 11 13
M  V30 13 2 13 14
M  V30 14 1 14 15
M  V30 15 2 15 16
M  V30 16 1 16 17
M  V30 17 2 17 18
M  V30 18 1 18 19
M  V30 19 2 19 20
M  V30 20 1 19 21
M  V30 21 1 21 22
M  V30 22 2 22 23
M  V30 23 1 23 24
M  V30 24 1 23 25
M  V30 25 2 25 26
M  V30 26 1 26 27
M  V30 27 1 27 28
M  V30 28 2 27 29
M  V30 29 1 29 30
M  V30 30 2 10 31
M  V30 31 1 31 32
M  V30 32 2 32 33
M  V30 33 1 33 34
M  V30 34 1 34 6
M  V30 35 1 33 8
M  V30 36 1 21 11
M  V30 37 1 29 22
M  V30 38 1 18 13
M  V30 39 1 1 35
M  V30 40 1 1 36
M  V30 41 1 1 37
M  V30 42 1 5 38
M  V30 43 1 9 39
M  V30 44 1 12 40
M  V30 45 1 14 41
M  V30 46 1 15 42
M  V30 47 1 16 43
M  V30 48 1 17 44
M  V30 49 1 25 45
M  V30 50 1 26 46
M  V30 51 1 30 47
M  V30 52 1 30 48
M  V30 53 1 30 49
M  V30 54 1 31 50
M  V30 55 1 32 51
M  V30 56 1 34 52
M  V30 END BOND
M  V30 END CTAB
M  END
>  <Dataset>  (168) 
ChEMBL_Kinases

>  <Ligand_Instance>  (168) 
nan

>  <PDB_ID>  (168) 
nan

>  <Standardized_SMILES>  (168) 
COC(=O)Nc1nc2cc(C3(O)c4ccccc4C(=O)N3c3c(Cl)ccc(I)c3C)ccc2[nH]1

>  <Name>  (168) 
nan

>  <Pocket>  (168) 
nan

>  <ATP_Site>  (168) 
nan

>  <Peripheral>  (168) 
nan

>  <Num_H_Atoms_ProtBoundConf>  (168) 
nan

>  <Num_Resolved_Atoms>  (168) 
nan

>  <Num_Not_Resolved_Atoms>  (168) 
nan

$$$$
CHEMBL3904666
     RDKit          3D

  0  0  0  0  0  0  0  0  0  0999 V3000
M  V30 BEGIN CTAB
M  V30 COUNTS 55 59 0 0 0
M  V30 BEGIN ATOM
M  V30 1 C 7.552014 -1.886261 3.233348 0
M  V30 2 O 7.325224 -1.172963 2.013744 0
M  V30 3 C 6.009811 -0.899043 1.618448 0
M  V30 4 O 5.144762 -1.347099 2.444351 0
M  V30 5 N 5.669270 -0.198549 0.427797 0
M  V30 6 C 4.287131 0.005319 0.157496 0
M  V30 7 N 3.292633 -0.425555 0.961833 0
M  V30 8 C 2.098857 -0.084992 0.443432 0
M  V30 9 C 0.788692 -0.267818 0.836875 0
M  V30 10 C -0.245728 0.215056 0.062366 0
M  V30 11 C -1.640252 0.001928 0.518612 0
M  V30 12 O -1.699234 -0.810851 1.646285 0
M  V30 13 C -2.269110 1.332168 0.835722 0
M  V30 14 C -1.809132 2.257722 1.748463 0
M  V30 15 C -2.444187 3.463359 1.978091 0
M  V30 16 C -3.592772 3.698084 1.226172 0
M  V30 17 C -4.064272 2.778366 0.308110 0
M  V30 18 C -3.405195 1.583318 0.103619 0
M  V30 19 C -3.585524 0.396507 -0.741746 0
M  V30 20 O -4.580854 0.364887 -1.533532 0
M  V30 21 N -2.520758 -0.530450 -0.465604 0
M  V30 22 C -2.508795 -1.781425 -1.178286 0
M  V30 23 C -1.283403 -1.957365 -2.027935 0
M  V30 24 C -2.670031 -2.927531 -0.229581 0
M  V30 25 C -1.923596 -4.079572 -0.250756 0
M  V30 26 C -2.115472 -5.104632 0.648445 0
M  V30 27 C -3.100113 -4.981737 1.621302 0
M  V30 28 C -3.849384 -3.833048 1.647785 0
M  V30 29 F -4.782650 -3.817581 2.638185 0
M  V30 30 C -3.658686 -2.802500 0.746099 0
M  V30 31 C -0.030128 0.891167 -1.120013 0
M  V30 32 C 1.298664 1.073232 -1.513231 0
M  V30 33 C 2.354143 0.593374 -0.745222 0
M  V30 34 N 3.699606 0.625927 -0.881266 0
M  V30 35 H 7.599155 -1.241251 4.114956 0
M  V30 36 H 8.424048 -2.565038 3.151432 0
M  V30 37 H 6.674655 -2.564317 3.391648 0
M  V30 38 H 6.424083 0.132866 -0.189819 0
M  V30 39 H 0.616378 -0.795334 1.759629 0
M  V30 40 H -1.779192 -0.302398 2.471285 0
M  V30 41 H -0.906675 2.079530 2.342863 0
M  V30 42 H -2.082853 4.193434 2.696899 0
M  V30 43 H -4.160666 4.618060 1.336589 0
M  V30 44 H -4.965280 2.955638 -0.285745 0
M  V30 45 H -3.380432 -1.859673 -1.886374 0
M  V30 46 H -1.396345 -2.913768 -2.593357 0
M  V30 47 H -1.268505 -1.132037 -2.775575 0
M  V30 48 H -0.339963 -1.969364 -1.448332 0
M  V30 49 H -1.159570 -4.170643 -1.008226 0
M  V30 50 H -1.486554 -5.985157 0.569694 0
M  V30 51 H -3.202017 -5.820775 2.298138 0
M  V30 52 H -4.318428 -1.933926 0.865985 0
M  V30 53 H -0.826392 1.287538 -1.758921 0
M  V30 54 H 1.531631 1.604742 -2.446353 0
M  V30 55 H 4.206471 1.069493 -1.678577 0
M  V30 END ATOM
M  V30 BEGIN BOND
M  V30 1 1 1 2
M  V30 2 1 2 3
M  V30 3 2 3 4
M  V30 4 1 3 5
M  V30 5 1 5 6
M  V30 6 2 6 7
M  V30 7 1 7 8
M  V30 8 2 8 9
M  V30 9 1 9 10
M  V30 10 1 10 11
M  V30 11 1 11 12
M  V30 12 1 11 13
M  V30 13 2 13 14
M  V30 14 1 14 15
M  V30 15 2 15 16
M  V30 16 1 16 17
M  V30 17 2 17 18
M  V30 18 1 18 19
M  V30 19 2 19 20
M  V30 20 1 19 21
M  V30 21 1 21 22
M  V30 22 1 22 23
M  V30 23 1 22 24
M  V30 24 2 24 25
M  V30 25 1 25 26
M  V30 26 2 26 27
M  V30 27 1 27 28
M  V30 28 1 28 29
M  V30 29 2 28 30
M  V30 30 2 10 31
M  V30 31 1 31 32
M  V30 32 2 32 33
M  V30 33 1 33 34
M  V30 34 1 34 6
M  V30 35 1 33 8
M  V30 36 1 21 11
M  V30 37 1 30 24
M  V30 38 1 18 13
M  V30 39 1 1 35
M  V30 40 1 1 36
M  V30 41 1 1 37
M  V30 42 1 5 38
M  V30 43 1 9 39
M  V30 44 1 12 40
M  V30 45 1 14 41
M  V30 46 1 15 42
M  V30 47 1 16 43
M  V30 48 1 17 44
M  V30 49 1 22 45
M  V30 50 1 23 46
M  V30 51 1 23 47
M  V30 52 1 23 48
M  V30 53 1 25 49
M  V30 54 1 26 50
M  V30 55 1 27 51
M  V30 56 1 30 52
M  V30 57 1 31 53
M  V30 58 1 32 54
M  V30 59 1 34 55
M  V30 END BOND
M  V30 END CTAB
M  END
>  <Dataset>  (169) 
ChEMBL_Kinases

>  <Ligand_Instance>  (169) 
nan

>  <PDB_ID>  (169) 
nan

>  <Standardized_SMILES>  (169) 
COC(=O)Nc1nc2cc(C3(O)c4ccccc4C(=O)N3C(C)c3cccc(F)c3)ccc2[nH]1

>  <Name>  (169) 
nan

>  <Pocket>  (169) 
nan

>  <ATP_Site>  (169) 
nan

>  <Peripheral>  (169) 
nan

>  <Num_H_Atoms_ProtBoundConf>  (169) 
nan

>  <Num_Resolved_Atoms>  (169) 
nan

>  <Num_Not_Resolved_Atoms>  (169) 
nan

$$$$
CHEMBL3904626
     RDKit          3D

  0  0  0  0  0  0  0  0  0  0999 V3000
M  V30 BEGIN CTAB
M  V30 COUNTS 54 58 0 0 0
M  V30 BEGIN ATOM
M  V30 1 C 6.064438 -5.344047 3.352271 0
M  V30 2 O 6.225567 -4.114193 2.631130 0
M  V30 3 C 5.154342 -3.355201 2.226252 0
M  V30 4 O 4.114671 -3.953207 2.609833 0
M  V30 5 N 5.297694 -2.126849 1.506424 0
M  V30 6 C 4.048657 -1.511965 1.189862 0
M  V30 7 N 3.277503 -0.622770 1.844276 0
M  V30 8 C 2.166819 -0.351783 1.101717 0
M  V30 9 C 1.076278 0.472988 1.305549 0
M  V30 10 C 0.073161 0.546740 0.349843 0
M  V30 11 C -1.095350 1.413792 0.534301 0
M  V30 12 O -1.265293 1.767393 1.895012 0
M  V30 13 C -0.849881 2.665675 -0.188240 0
M  V30 14 C 0.209274 3.531752 -0.015064 0
M  V30 15 C 0.246658 4.667119 -0.819926 0
M  V30 16 C -0.749778 4.901022 -1.752638 0
M  V30 17 C -1.776955 3.988869 -1.867393 0
M  V30 18 C -1.862122 2.838312 -1.087718 0
M  V30 19 C -2.802235 1.720672 -0.978117 0
M  V30 20 O -3.814359 1.667024 -1.711075 0
M  V30 21 N -2.303399 0.845088 0.050724 0
M  V30 22 C -3.056757 -0.316420 0.358406 0
M  V30 23 C -3.981381 -0.033595 1.367969 0
M  V30 24 C -4.847660 -1.022990 1.848589 0
M  V30 25 C -4.748719 -2.276907 1.286798 0
M  V30 26 C -3.847373 -2.581943 0.291761 0
M  V30 27 S -3.691078 -4.158266 -0.446352 0
M  V30 28 N -2.536423 -5.082547 0.447798 0
M  V30 29 O -3.137895 -4.004096 -1.848239 0
M  V30 30 O -4.994718 -4.883418 -0.527014 0
M  V30 31 C -3.007684 -1.591472 -0.162524 0
M  V30 32 C 0.231644 -0.230333 -0.777087 0
M  V30 33 C 1.308856 -1.061373 -1.005481 0
M  V30 34 C 2.308202 -1.126261 -0.038743 0
M  V30 35 N 3.454282 -1.835023 0.011287 0
M  V30 36 H 5.328965 -5.258584 4.169016 0
M  V30 37 H 5.639327 -6.065813 2.615148 0
M  V30 38 H 7.039805 -5.728408 3.645669 0
M  V30 39 H 6.287769 -1.852667 1.313375 0
M  V30 40 H 1.020300 1.056384 2.219250 0
M  V30 41 H -2.128123 2.210472 2.034458 0
M  V30 42 H 0.999279 3.362468 0.712892 0
M  V30 43 H 1.037498 5.408585 -0.759974 0
M  V30 44 H -0.754524 5.781998 -2.403220 0
M  V30 45 H -2.576461 4.149799 -2.596055 0
M  V30 46 H -4.143764 0.919961 1.880192 0
M  V30 47 H -5.577876 -0.853459 2.625674 0
M  V30 48 H -5.372339 -3.131838 1.580289 0
M  V30 49 H -2.655557 -6.111137 0.282981 0
M  V30 50 H -1.560792 -4.765652 0.254596 0
M  V30 51 H -2.268118 -1.692588 -0.924369 0
M  V30 52 H -0.490636 -0.239959 -1.576023 0
M  V30 53 H 1.415056 -1.665394 -1.899877 0
M  V30 54 H 3.762163 -2.489410 -0.749517 0
M  V30 END ATOM
M  V30 BEGIN BOND
M  V30 1 1 1 2
M  V30 2 1 2 3
M  V30 3 2 3 4
M  V30 4 1 3 5
M  V30 5 1 5 6
M  V30 6 2 6 7
M  V30 7 1 7 8
M  V30 8 2 8 9
M  V30 9 1 9 10
M  V30 10 1 10 11
M  V30 11 1 11 12
M  V30 12 1 11 13
M  V30 13 2 13 14
M  V30 14 1 14 15
M  V30 15 2 15 16
M  V30 16 1 16 17
M  V30 17 2 17 18
M  V30 18 1 18 19
M  V30 19 2 19 20
M  V30 20 1 19 21
M  V30 21 1 21 22
M  V30 22 2 22 23
M  V30 23 1 23 24
M  V30 24 2 24 25
M  V30 25 1 25 26
M  V30 26 1 26 27
M  V30 27 1 27 28
M  V30 28 2 27 29
M  V30 29 2 27 30
M  V30 30 2 26 31
M  V30 31 2 10 32
M  V30 32 1 32 33
M  V30 33 2 33 34
M  V30 34 1 34 35
M  V30 35 1 35 6
M  V30 36 1 34 8
M  V30 37 1 21 11
M  V30 38 1 31 22
M  V30 39 1 18 13
M  V30 40 1 1 36
M  V30 41 1 1 37
M  V30 42 1 1 38
M  V30 43 1 5 39
M  V30 44 1 9 40
M  V30 45 1 12 41
M  V30 46 1 14 42
M  V30 47 1 15 43
M  V30 48 1 16 44
M  V30 49 1 17 45
M  V30 50 1 23 46
M  V30 51 1 24 47
M  V30 52 1 25 48
M  V30 53 1 28 49
M  V30 54 1 28 50
M  V30 55 1 31 51
M  V30 56 1 32 52
M  V30 57 1 33 53
M  V30 58 1 35 54
M  V30 END BOND
M  V30 END CTAB
M  END
>  <Dataset>  (170) 
ChEMBL_Kinases

>  <Ligand_Instance>  (170) 
nan

>  <PDB_ID>  (170) 
nan

>  <Standardized_SMILES>  (170) 
COC(=O)Nc1nc2cc(C3(O)c4ccccc4C(=O)N3c3cccc(S(N)(=O)=O)c3)ccc2[nH]1

>  <Name>  (170) 
nan

>  <Pocket>  (170) 
nan

>  <ATP_Site>  (170) 
nan

>  <Peripheral>  (170) 
nan

>  <Num_H_Atoms_ProtBoundConf>  (170) 
nan

>  <Num_Resolved_Atoms>  (170) 
nan

>  <Num_Not_Resolved_Atoms>  (170) 
nan

$$$$
CHEMBL3904143
     RDKit          3D

  0  0  0  0  0  0  0  0  0  0999 V3000
M  V30 BEGIN CTAB
M  V30 COUNTS 48 51 0 0 0
M  V30 BEGIN ATOM
M  V30 1 C -1.908597 -7.318031 0.872481 0
M  V30 2 C -0.929549 -6.289838 0.411096 0
M  V30 3 C 0.010450 -5.918903 1.351285 0
M  V30 4 C 0.949189 -4.976670 1.006803 0
M  V30 5 C 1.005578 -4.374045 -0.239464 0
M  V30 6 C 2.046826 -3.379601 -0.507826 0
M  V30 7 C 1.656178 -1.997487 -0.184396 0
M  V30 8 C 1.888693 -1.478259 1.075096 0
M  V30 9 C 1.504521 -0.160789 1.348014 0
M  V30 10 C 0.897208 0.643604 0.396219 0
M  V30 11 C 0.498137 2.019078 0.687153 0
M  V30 12 N 0.689396 2.611595 1.902139 0
M  V30 13 C 0.208495 3.884207 1.836201 0
M  V30 14 C 0.178733 4.864693 2.807777 0
M  V30 15 C -0.390691 6.047322 2.378832 0
M  V30 16 C -0.489231 7.175409 3.303777 0
M  V30 17 N -0.001801 7.055073 4.636275 0
M  V30 18 O -0.912561 8.341473 3.295165 0
M  V30 19 C -0.895341 6.278373 1.114640 0
M  V30 20 C -0.827633 5.246220 0.201019 0
M  V30 21 C -0.271349 4.026958 0.550901 0
M  V30 22 N -0.094722 2.890734 -0.148549 0
M  V30 23 C 0.652366 0.142762 -0.880361 0
M  V30 24 C 1.051348 -1.160702 -1.093687 0
M  V30 25 C 0.050104 -4.763884 -1.166407 0
M  V30 26 C -0.902408 -5.708230 -0.843156 0
M  V30 27 C -1.930845 -6.148480 -1.794586 0
M  V30 28 H -2.471387 -7.785360 0.046162 0
M  V30 29 H -2.676205 -6.815253 1.518311 0
M  V30 30 H -1.401713 -8.080377 1.515570 0
M  V30 31 H 0.053841 -6.332855 2.362243 0
M  V30 32 H 1.690750 -4.685811 1.752507 0
M  V30 33 H 2.966840 -3.723776 0.010906 0
M  V30 34 H 2.298083 -3.411092 -1.590964 0
M  V30 35 H 2.359538 -2.072779 1.844520 0
M  V30 36 H 1.686528 0.257546 2.346783 0
M  V30 37 H 0.556952 4.729903 3.796777 0
M  V30 38 H 0.819526 7.248252 5.251908 0
M  V30 39 H -0.545324 6.631254 5.447055 0
M  V30 40 H -1.330044 7.224993 0.834539 0
M  V30 41 H -1.206119 5.376680 -0.793454 0
M  V30 42 H -0.371887 2.736780 -1.146751 0
M  V30 43 H 0.181469 0.717957 -1.670844 0
M  V30 44 H 0.873695 -1.577170 -2.077355 0
M  V30 45 H 0.059208 -4.318335 -2.149269 0
M  V30 46 H -2.894962 -6.277824 -1.261345 0
M  V30 47 H -2.021048 -5.433762 -2.654417 0
M  V30 48 H -1.616210 -7.128767 -2.204598 0
M  V30 END ATOM
M  V30 BEGIN BOND
M  V30 1 1 1 2
M  V30 2 2 2 3
M  V30 3 1 3 4
M  V30 4 2 4 5
M  V30 5 1 5 6
M  V30 6 1 6 7
M  V30 7 2 7 8
M  V30 8 1 8 9
M  V30 9 2 9 10
M  V30 10 1 10 11
M  V30 11 2 11 12
M  V30 12 1 12 13
M  V30 13 2 13 14
M  V30 14 1 14 15
M  V30 15 1 15 16
M  V30 16 1 16 17
M  V30 17 2 16 18
M  V30 18 2 15 19
M  V30 19 1 19 20
M  V30 20 2 20 21
M  V30 21 1 21 22
M  V30 22 1 10 23
M  V30 23 2 23 24
M  V30 24 1 5 25
M  V30 25 2 25 26
M  V30 26 1 26 27
M  V30 27 1 26 2
M  V30 28 1 24 7
M  V30 29 1 22 11
M  V30 30 1 21 13
M  V30 31 1 1 28
M  V30 32 1 1 29
M  V30 33 1 1 30
M  V30 34 1 3 31
M  V30 35 1 4 32
M  V30 36 1 6 33
M  V30 37 1 6 34
M  V30 38 1 8 35
M  V30 39 1 9 36
M  V30 40 1 14 37
M  V30 41 1 17 38
M  V30 42 1 17 39
M  V30 43 1 19 40
M  V30 44 1 20 41
M  V30 45 1 22 42
M  V30 46 1 23 43
M  V30 47 1 24 44
M  V30 48 1 25 45
M  V30 49 1 27 46
M  V30 50 1 27 47
M  V30 51 1 27 48
M  V30 END BOND
M  V30 END CTAB
M  END
>  <Dataset>  (171) 
ChEMBL_Kinases

>  <Ligand_Instance>  (171) 
nan

>  <PDB_ID>  (171) 
nan

>  <Standardized_SMILES>  (171) 
Cc1ccc(Cc2ccc(-c3nc4cc(C(N)=O)ccc4[nH]3)cc2)cc1C

>  <Name>  (171) 
nan

>  <Pocket>  (171) 
nan

>  <ATP_Site>  (171) 
nan

>  <Peripheral>  (171) 
nan

>  <Num_H_Atoms_ProtBoundConf>  (171) 
nan

>  <Num_Resolved_Atoms>  (171) 
nan

>  <Num_Not_Resolved_Atoms>  (171) 
nan

$$$$
CHEMBL4878176
     RDKit          3D

  0  0  0  0  0  0  0  0  0  0999 V3000
M  V30 BEGIN CTAB
M  V30 COUNTS 60 65 0 0 0
M  V30 BEGIN ATOM
M  V30 1 C 5.079679 -1.010171 4.089484 0
M  V30 2 C 4.956734 -2.275410 3.266883 0
M  V30 3 C 3.926249 -3.136426 3.967980 0
M  V30 4 F 6.163244 -2.937399 3.165522 0
M  V30 5 C 4.497680 -1.879250 1.909507 0
M  V30 6 N 3.347123 -2.310243 1.343970 0
M  V30 7 C 2.987238 -1.906638 0.094511 0
M  V30 8 N 1.772663 -2.370700 -0.484384 0
M  V30 9 C 0.527912 -1.855188 -0.463420 0
M  V30 10 N 0.126426 -0.729951 0.137673 0
M  V30 11 C -1.151352 -0.318136 0.086460 0
M  V30 12 N -1.530936 0.883326 0.740038 0
M  V30 13 C -2.802134 1.506709 0.821628 0
M  V30 14 C -2.970942 2.687802 1.512861 0
M  V30 15 C -4.177043 3.329271 1.621251 0
M  V30 16 C -5.285534 2.806861 1.032012 0
M  V30 17 C -5.191408 1.634157 0.328120 0
M  V30 18 C -3.966387 1.039656 0.253343 0
M  V30 19 C -6.393181 1.050457 -0.320380 0
M  V30 20 C -7.415724 2.068372 -0.697712 0
M  V30 21 N -7.172632 3.396871 -0.232439 0
M  V30 22 C -6.630791 3.464770 1.116181 0
M  V30 23 N -1.989907 -1.103020 -0.601087 0
M  V30 24 C -1.667302 -2.240770 -1.228854 0
M  V30 25 C -0.353416 -2.646773 -1.165377 0
M  V30 26 C 0.418377 -3.686678 -1.624767 0
M  V30 27 O -0.035577 -4.634868 -2.321283 0
M  V30 28 N 1.698747 -3.487612 -1.194325 0
M  V30 29 C 2.765669 -4.401313 -1.504720 0
M  V30 30 C 2.718710 -4.978057 -2.908598 0
M  V30 31 C 3.826184 -4.051845 -2.470821 0
M  V30 32 C 3.771044 -1.040686 -0.660372 0
M  V30 33 C 4.961279 -0.591160 -0.082644 0
M  V30 34 C 5.309494 -1.018699 1.200050 0
M  V30 35 F 6.471220 -0.501889 1.608456 0
M  V30 36 H 6.037257 -0.529868 3.861985 0
M  V30 37 H 4.256257 -0.331039 3.736787 0
M  V30 38 H 4.967442 -1.224824 5.182733 0
M  V30 39 H 4.397297 -4.090914 4.268490 0
M  V30 40 H 3.090307 -3.377189 3.258455 0
M  V30 41 H 3.482218 -2.664032 4.843938 0
M  V30 42 H -0.752950 1.402006 1.247980 0
M  V30 43 H -2.108221 3.157917 2.010815 0
M  V30 44 H -4.236482 4.254222 2.180015 0
M  V30 45 H -3.940650 0.118596 -0.311073 0
M  V30 46 H -6.059646 0.413348 -1.168750 0
M  V30 47 H -6.821067 0.317538 0.420653 0
M  V30 48 H -7.449284 2.100488 -1.818084 0
M  V30 49 H -8.432326 1.696981 -0.377712 0
M  V30 50 H -6.563970 3.958158 -0.839832 0
M  V30 51 H -6.473763 4.517840 1.358704 0
M  V30 52 H -7.309395 2.930880 1.807570 0
M  V30 53 H -2.360707 -2.854925 -1.775782 0
M  V30 54 H 2.971328 -5.171680 -0.709473 0
M  V30 55 H 1.978489 -4.548563 -3.629889 0
M  V30 56 H 3.020161 -6.027156 -3.050804 0
M  V30 57 H 4.841015 -4.471026 -2.315718 0
M  V30 58 H 3.828685 -3.021283 -2.898903 0
M  V30 59 H 3.450490 -0.739705 -1.656714 0
M  V30 60 H 5.552784 0.083896 -0.695269 0
M  V30 END ATOM
M  V30 BEGIN BOND
M  V30 1 1 1 2
M  V30 2 1 2 3
M  V30 3 1 2 4
M  V30 4 1 2 5
M  V30 5 2 5 6
M  V30 6 1 6 7
M  V30 7 1 7 8
M  V30 8 1 8 9
M  V30 9 2 9 10
M  V30 10 1 10 11
M  V30 11 1 11 12
M  V30 12 1 12 13
M  V30 13 2 13 14
M  V30 14 1 14 15
M  V30 15 2 15 16
M  V30 16 1 16 17
M  V30 17 2 17 18
M  V30 18 1 17 19
M  V30 19 1 19 20
M  V30 20 1 20 21
M  V30 21 1 21 22
M  V30 22 2 11 23
M  V30 23 1 23 24
M  V30 24 2 24 25
M  V30 25 1 25 26
M  V30 26 2 26 27
M  V30 27 1 26 28
M  V30 28 1 28 29
M  V30 29 1 29 30
M  V30 30 1 30 31
M  V30 31 2 7 32
M  V30 32 1 32 33
M  V30 33 2 33 34
M  V30 34 1 34 35
M  V30 35 1 34 5
M  V30 36 1 28 8
M  V30 37 1 31 29
M  V30 38 1 25 9
M  V30 39 1 18 13
M  V30 40 1 22 16
M  V30 41 1 1 36
M  V30 42 1 1 37
M  V30 43 1 1 38
M  V30 44 1 3 39
M  V30 45 1 3 40
M  V30 46 1 3 41
M  V30 47 1 12 42
M  V30 48 1 14 43
M  V30 49 1 15 44
M  V30 50 1 18 45
M  V30 51 1 19 46
M  V30 52 1 19 47
M  V30 53 1 20 48
M  V30 54 1 20 49
M  V30 55 1 21 50
M  V30 56 1 22 51
M  V30 57 1 22 52
M  V30 58 1 24 53
M  V30 59 1 29 54
M  V30 60 1 30 55
M  V30 61 1 30 56
M  V30 62 1 31 57
M  V30 63 1 31 58
M  V30 64 1 32 59
M  V30 65 1 33 60
M  V30 END BOND
M  V30 END CTAB
M  END
>  <Dataset>  (172) 
ChEMBL_Kinases

>  <Ligand_Instance>  (172) 
nan

>  <PDB_ID>  (172) 
nan

>  <Standardized_SMILES>  (172) 
CC(C)(F)c1nc(-n2c3nc(Nc4ccc5c(c4)CCNC5)ncc3c(=O)n2C2CC2)ccc1F

>  <Name>  (172) 
nan

>  <Pocket>  (172) 
nan

>  <ATP_Site>  (172) 
nan

>  <Peripheral>  (172) 
nan

>  <Num_H_Atoms_ProtBoundConf>  (172) 
nan

>  <Num_Resolved_Atoms>  (172) 
nan

>  <Num_Not_Resolved_Atoms>  (172) 
nan

$$$$
CHEMBL603405
     RDKit          3D

  0  0  0  0  0  0  0  0  0  0999 V3000
M  V30 BEGIN CTAB
M  V30 COUNTS 63 68 0 0 0
M  V30 BEGIN ATOM
M  V30 1 N 2.608174 4.021776 6.127143 0
M  V30 2 C 1.354529 3.350133 6.161486 0
M  V30 3 O 0.600484 3.351158 7.190719 0
M  V30 4 C 0.906732 2.624936 4.966501 0
M  V30 5 N 1.570611 2.514420 3.783913 0
M  V30 6 N 0.887030 1.791347 2.919995 0
M  V30 7 C 1.398072 1.549144 1.618960 0
M  V30 8 C 2.208859 0.489914 1.185707 0
M  V30 9 C 2.601220 0.459792 -0.136985 0
M  V30 10 C 2.210077 1.439224 -1.008630 0
M  V30 11 F 2.642725 1.320472 -2.275290 0
M  V30 12 C 1.416490 2.492251 -0.622250 0
M  V30 13 C 1.008692 2.542761 0.708304 0
M  V30 14 C -0.231453 1.427336 3.543976 0
M  V30 15 C -0.271589 1.921882 4.828479 0
M  V30 16 C -1.344406 1.726988 5.795977 0
M  V30 17 C -2.475414 0.891471 5.344043 0
M  V30 18 C -2.405025 0.385344 3.956852 0
M  V30 19 C -3.492567 -0.368199 3.568601 0
M  V30 20 C -3.509325 -0.885798 2.285812 0
M  V30 21 C -2.462415 -0.650898 1.421466 0
M  V30 22 N -2.535774 -1.208741 0.112585 0
M  V30 23 C -1.942138 -2.498816 0.155952 0
M  V30 24 O -1.470056 -2.948852 1.240286 0
M  V30 25 C -1.753922 -3.492300 -0.895759 0
M  V30 26 C -0.915340 -3.102155 -1.947308 0
M  V30 27 C -0.680841 -3.974754 -2.980957 0
M  V30 28 N 0.164688 -3.628182 -4.072617 0
M  V30 29 C 0.442884 -4.491189 -5.217459 0
M  V30 30 C 0.642249 -3.575807 -6.406366 0
M  V30 31 O 1.869405 -2.951730 -6.267301 0
M  V30 32 C 2.086330 -2.431423 -5.014831 0
M  V30 33 C 0.853613 -2.355371 -4.163006 0
M  V30 34 N -1.236286 -5.197323 -3.010728 0
M  V30 35 C -2.051801 -5.602041 -2.006842 0
M  V30 36 C -2.317712 -4.751758 -0.939607 0
M  V30 37 Cl -3.363960 -5.189842 0.410561 0
M  V30 38 C -1.383426 0.107337 1.832956 0
M  V30 39 C -1.359464 0.625258 3.106182 0
M  V30 40 H 3.042321 4.885017 5.685957 0
M  V30 41 H 3.432563 3.681477 6.635902 0
M  V30 42 H 2.439726 -0.210046 1.980980 0
M  V30 43 H 3.228066 -0.386137 -0.407074 0
M  V30 44 H 1.126401 3.246807 -1.336650 0
M  V30 45 H 0.391142 3.388236 0.947704 0
M  V30 46 H -1.691799 2.758217 6.102753 0
M  V30 47 H -0.891438 1.317597 6.721790 0
M  V30 48 H -2.617094 0.030928 6.062021 0
M  V30 49 H -3.418080 1.468947 5.438344 0
M  V30 50 H -4.343451 -0.586797 4.199917 0
M  V30 51 H -4.350741 -1.483427 1.948934 0
M  V30 52 H -2.880613 -0.973086 -0.843022 0
M  V30 53 H -0.451861 -2.127537 -1.956494 0
M  V30 54 H 1.378411 -5.064935 -5.073280 0
M  V30 55 H -0.395446 -5.167932 -5.423151 0
M  V30 56 H -0.199907 -2.884603 -6.557404 0
M  V30 57 H 0.713972 -4.228002 -7.290745 0
M  V30 58 H 2.463810 -1.394484 -5.124580 0
M  V30 59 H 2.900122 -2.991566 -4.492966 0
M  V30 60 H 0.166839 -1.576820 -4.528844 0
M  V30 61 H 1.209214 -2.043397 -3.139047 0
M  V30 62 H -2.553452 -6.546728 -1.913348 0
M  V30 63 H -0.624119 0.227940 1.082078 0
M  V30 END ATOM
M  V30 BEGIN BOND
M  V30 1 1 1 2
M  V30 2 2 2 3
M  V30 3 1 2 4
M  V30 4 2 4 5
M  V30 5 1 5 6
M  V30 6 1 6 7
M  V30 7 2 7 8
M  V30 8 1 8 9
M  V30 9 2 9 10
M  V30 10 1 10 11
M  V30 11 1 10 12
M  V30 12 2 12 13
M  V30 13 1 6 14
M  V30 14 2 14 15
M  V30 15 1 15 16
M  V30 16 1 16 17
M  V30 17 1 17 18
M  V30 18 2 18 19
M  V30 19 1 19 20
M  V30 20 2 20 21
M  V30 21 1 21 22
M  V30 22 1 22 23
M  V30 23 2 23 24
M  V30 24 1 23 25
M  V30 25 2 25 26
M  V30 26 1 26 27
M  V30 27 1 27 28
M  V30 28 1 28 29
M  V30 29 1 29 30
M  V30 30 1 30 31
M  V30 31 1 31 32
M  V30 32 1 32 33
M  V30 33 2 27 34
M  V30 34 1 34 35
M  V30 35 2 35 36
M  V30 36 1 36 37
M  V30 37 1 21 38
M  V30 38 2 38 39
M  V30 39 1 15 4
M  V30 40 1 39 18
M  V30 41 1 13 7
M  V30 42 1 39 14
M  V30 43 1 36 25
M  V30 44 1 33 28
M  V30 45 1 1 40
M  V30 46 1 1 41
M  V30 47 1 8 42
M  V30 48 1 9 43
M  V30 49 1 12 44
M  V30 50 1 13 45
M  V30 51 1 16 46
M  V30 52 1 16 47
M  V30 53 1 17 48
M  V30 54 1 17 49
M  V30 55 1 19 50
M  V30 56 1 20 51
M  V30 57 1 22 52
M  V30 58 1 26 53
M  V30 59 1 29 54
M  V30 60 1 29 55
M  V30 61 1 30 56
M  V30 62 1 30 57
M  V30 63 1 32 58
M  V30 64 1 32 59
M  V30 65 1 33 60
M  V30 66 1 33 61
M  V30 67 1 35 62
M  V30 68 1 38 63
M  V30 END BOND
M  V30 END CTAB
M  END
>  <Dataset>  (173) 
ChEMBL_Kinases

>  <Ligand_Instance>  (173) 
nan

>  <PDB_ID>  (173) 
nan

>  <Standardized_SMILES>  (173) 
NC(=O)c1nn(-c2ccc(F)cc2)c2c1CCc1ccc(NC(=O)c3cc(N4CCOCC4)ncc3Cl)cc1-2

>  <Name>  (173) 
nan

>  <Pocket>  (173) 
nan

>  <ATP_Site>  (173) 
nan

>  <Peripheral>  (173) 
nan

>  <Num_H_Atoms_ProtBoundConf>  (173) 
nan

>  <Num_Resolved_Atoms>  (173) 
nan

>  <Num_Not_Resolved_Atoms>  (173) 
nan

$$$$
CHEMBL390447
     RDKit          3D

  0  0  0  0  0  0  0  0  0  0999 V3000
M  V30 BEGIN CTAB
M  V30 COUNTS 40 43 0 0 0
M  V30 BEGIN ATOM
M  V30 1 O 1.524989 0.017982 3.257044 0
M  V30 2 C 2.154205 0.169371 2.154208 0
M  V30 3 C 3.414605 -0.550628 2.257062 0
M  V30 4 C 4.300531 -0.238448 3.248682 0
M  V30 5 F 4.033844 0.733920 4.149007 0
M  V30 6 C 5.478857 -0.973380 3.275884 0
M  V30 7 C 5.693561 -1.957423 2.325846 0
M  V30 8 C 4.802216 -2.268902 1.330989 0
M  V30 9 C 3.631198 -1.530622 1.312839 0
M  V30 10 F 2.743266 -1.843096 0.317719 0
M  V30 11 N 1.339377 0.971165 1.327245 0
M  V30 12 C 0.088107 1.374149 1.930663 0
M  V30 13 C -1.094741 0.695560 1.246780 0
M  V30 14 C -0.742234 0.390992 -0.167888 0
M  V30 15 C 0.445568 0.736397 -0.818638 0
M  V30 16 C 0.283774 0.230902 -2.107476 0
M  V30 17 N -0.908086 -0.356378 -2.177622 0
M  V30 18 N -1.545760 -0.277569 -1.034278 0
M  V30 19 C -2.852157 -0.826912 -0.826222 0
M  V30 20 C -2.774710 -2.094704 -0.267952 0
M  V30 21 C -3.965490 -2.778893 0.001904 0
M  V30 22 C -5.172023 -2.188077 -0.288067 0
M  V30 23 F -6.345970 -2.827342 -0.037869 0
M  V30 24 C -5.235668 -0.924788 -0.844104 0
M  V30 25 C -4.067865 -0.240579 -1.114508 0
M  V30 26 Cl -3.960892 1.369195 -1.817320 0
M  V30 27 C 1.494601 1.491644 -0.039964 0
M  V30 28 H 6.220579 -0.753978 4.059397 0
M  V30 29 H 6.645186 -2.472428 2.435692 0
M  V30 30 H 5.094293 -3.045525 0.669256 0
M  V30 31 H 0.025703 1.200172 3.011617 0
M  V30 32 H 0.009107 2.483307 1.778927 0
M  V30 33 H -1.964947 1.378340 1.253791 0
M  V30 34 H -1.375033 -0.249367 1.767603 0
M  V30 35 H 1.057557 0.347039 -2.857362 0
M  V30 36 H -1.895696 -2.650722 0.000300 0
M  V30 37 H -4.030226 -3.780572 0.440361 0
M  V30 38 H -6.150806 -0.404206 -1.094621 0
M  V30 39 H 1.294669 2.570098 0.001429 0
M  V30 40 H 2.509990 1.225861 -0.354528 0
M  V30 END ATOM
M  V30 BEGIN BOND
M  V30 1 2 1 2
M  V30 2 1 2 3
M  V30 3 2 3 4
M  V30 4 1 4 5
M  V30 5 1 4 6
M  V30 6 2 6 7
M  V30 7 1 7 8
M  V30 8 2 8 9
M  V30 9 1 9 10
M  V30 10 1 2 11
M  V30 11 1 11 12
M  V30 12 1 12 13
M  V30 13 1 13 14
M  V30 14 2 14 15
M  V30 15 1 15 16
M  V30 16 2 16 17
M  V30 17 1 17 18
M  V30 18 1 18 19
M  V30 19 2 19 20
M  V30 20 1 20 21
M  V30 21 2 21 22
M  V30 22 1 22 23
M  V30 23 1 22 24
M  V30 24 2 24 25
M  V30 25 1 25 26
M  V30 26 1 15 27
M  V30 27 1 9 3
M  V30 28 1 27 11
M  V30 29 1 18 14
M  V30 30 1 25 19
M  V30 31 1 6 28
M  V30 32 1 7 29
M  V30 33 1 8 30
M  V30 34 1 12 31
M  V30 35 1 12 32
M  V30 36 1 13 33
M  V30 37 1 13 34
M  V30 38 1 16 35
M  V30 39 1 20 36
M  V30 40 1 21 37
M  V30 41 1 24 38
M  V30 42 1 27 39
M  V30 43 1 27 40
M  V30 END BOND
M  V30 END CTAB
M  END
>  <Dataset>  (174) 
ChEMBL_Kinases

>  <Ligand_Instance>  (174) 
nan

>  <PDB_ID>  (174) 
nan

>  <Standardized_SMILES>  (174) 
O=C(c1c(F)cccc1F)N1CCc2c(cnn2-c2ccc(F)cc2Cl)C1

>  <Name>  (174) 
nan

>  <Pocket>  (174) 
nan

>  <ATP_Site>  (174) 
nan

>  <Peripheral>  (174) 
nan

>  <Num_H_Atoms_ProtBoundConf>  (174) 
nan

>  <Num_Resolved_Atoms>  (174) 
nan

>  <Num_Not_Resolved_Atoms>  (174) 
nan

$$$$
CHEMBL3904466
     RDKit          3D

  0  0  0  0  0  0  0  0  0  0999 V3000
M  V30 BEGIN CTAB
M  V30 COUNTS 43 46 0 0 0
M  V30 BEGIN ATOM
M  V30 1 C 0.163987 -5.974657 1.869801 0
M  V30 2 C 0.772767 -5.932766 0.521030 0
M  V30 3 C 0.843701 -4.724345 -0.140134 0
M  V30 4 C 1.413320 -4.698540 -1.396526 0
M  V30 5 O 1.468599 -3.463958 -2.034424 0
M  V30 6 C 0.972132 -2.303981 -1.434721 0
M  V30 7 C -0.306117 -1.790789 -1.520002 0
M  V30 8 C -0.611009 -0.619897 -0.849659 0
M  V30 9 C 0.352628 0.029557 -0.102686 0
M  V30 10 C 0.006387 1.263809 0.595688 0
M  V30 11 N 0.822021 2.010389 1.357601 0
M  V30 12 C 0.160189 3.080139 1.843085 0
M  V30 13 C 0.595110 4.102660 2.660680 0
M  V30 14 C -0.332277 5.063176 2.986264 0
M  V30 15 C -0.073997 6.220376 3.834078 0
M  V30 16 N 1.251391 6.321602 4.339663 0
M  V30 17 O -0.803128 7.166160 4.215642 0
M  V30 18 C -1.650546 5.021426 2.522179 0
M  V30 19 C -2.034914 3.970959 1.702917 0
M  V30 20 C -1.125999 2.987273 1.355953 0
M  V30 21 N -1.203579 1.863296 0.589869 0
M  V30 22 C 1.636871 -0.465177 -0.003261 0
M  V30 23 C 1.928740 -1.634906 -0.677151 0
M  V30 24 C 1.922545 -5.785621 -2.054804 0
M  V30 25 C 1.829996 -6.978451 -1.352901 0
M  V30 26 C 1.269418 -7.062495 -0.091894 0
M  V30 27 F 1.169956 -8.214282 0.607933 0
M  V30 28 H 0.575935 -6.834120 2.462938 0
M  V30 29 H -0.922052 -6.200107 1.755734 0
M  V30 30 H 0.244171 -5.044250 2.433228 0
M  V30 31 H 0.466415 -3.813450 0.303415 0
M  V30 32 H -0.987594 -2.379302 -2.133382 0
M  V30 33 H -1.630753 -0.259245 -0.949813 0
M  V30 34 H 1.591803 4.203282 3.057047 0
M  V30 35 H 1.659338 7.042951 4.974107 0
M  V30 36 H 2.145058 5.788533 4.263402 0
M  V30 37 H -2.405962 5.758713 2.757670 0
M  V30 38 H -3.035324 3.867381 1.303374 0
M  V30 39 H -2.078907 1.566857 0.104706 0
M  V30 40 H 2.384116 0.067020 0.594802 0
M  V30 41 H 2.962821 -1.967575 -0.553818 0
M  V30 42 H 2.361763 -5.724015 -3.041039 0
M  V30 43 H 2.205942 -7.903014 -1.787800 0
M  V30 END ATOM
M  V30 BEGIN BOND
M  V30 1 1 1 2
M  V30 2 2 2 3
M  V30 3 1 3 4
M  V30 4 1 4 5
M  V30 5 1 5 6
M  V30 6 2 6 7
M  V30 7 1 7 8
M  V30 8 2 8 9
M  V30 9 1 9 10
M  V30 10 2 10 11
M  V30 11 1 11 12
M  V30 12 2 12 13
M  V30 13 1 13 14
M  V30 14 1 14 15
M  V30 15 1 15 16
M  V30 16 2 15 17
M  V30 17 2 14 18
M  V30 18 1 18 19
M  V30 19 2 19 20
M  V30 20 1 20 21
M  V30 21 1 9 22
M  V30 22 2 22 23
M  V30 23 2 4 24
M  V30 24 1 24 25
M  V30 25 2 25 26
M  V30 26 1 26 27
M  V30 27 1 26 2
M  V30 28 1 23 6
M  V30 29 1 21 10
M  V30 30 1 20 12
M  V30 31 1 1 28
M  V30 32 1 1 29
M  V30 33 1 1 30
M  V30 34 1 3 31
M  V30 35 1 7 32
M  V30 36 1 8 33
M  V30 37 1 13 34
M  V30 38 1 16 35
M  V30 39 1 16 36
M  V30 40 1 18 37
M  V30 41 1 19 38
M  V30 42 1 21 39
M  V30 43 1 22 40
M  V30 44 1 23 41
M  V30 45 1 24 42
M  V30 46 1 25 43
M  V30 END BOND
M  V30 END CTAB
M  END
>  <Dataset>  (175) 
ChEMBL_Kinases

>  <Ligand_Instance>  (175) 
nan

>  <PDB_ID>  (175) 
nan

>  <Standardized_SMILES>  (175) 
Cc1cc(Oc2ccc(-c3nc4cc(C(N)=O)ccc4[nH]3)cc2)ccc1F

>  <Name>  (175) 
nan

>  <Pocket>  (175) 
nan

>  <ATP_Site>  (175) 
nan

>  <Peripheral>  (175) 
nan

>  <Num_H_Atoms_ProtBoundConf>  (175) 
nan

>  <Num_Resolved_Atoms>  (175) 
nan

>  <Num_Not_Resolved_Atoms>  (175) 
nan

$$$$
CHEMBL3904289
     RDKit          3D

  0  0  0  0  0  0  0  0  0  0999 V3000
M  V30 BEGIN CTAB
M  V30 COUNTS 39 42 0 0 0
M  V30 BEGIN ATOM
M  V30 1 O 3.660855 -7.910441 0.074892 0
M  V30 2 C 2.565062 -7.309238 0.215549 0
M  V30 3 O 1.468485 -8.110336 0.488141 0
M  V30 4 C 2.532030 -5.858680 0.085157 0
M  V30 5 C 3.730103 -5.238968 -0.188642 0
M  V30 6 C 3.778806 -3.851026 -0.327839 0
M  V30 7 C 2.614142 -3.094649 -0.189376 0
M  V30 8 N 2.312441 -1.768302 -0.259726 0
M  V30 9 C 0.991287 -1.635354 -0.034509 0
M  V30 10 C 0.263717 -0.366713 -0.022777 0
M  V30 11 C 0.962771 0.803909 -0.258532 0
M  V30 12 C 0.283662 2.008874 -0.249497 0
M  V30 13 C -1.076532 2.029543 -0.006656 0
M  V30 14 O -1.916076 3.136814 0.040430 0
M  V30 15 C -2.150727 3.835792 1.241039 0
M  V30 16 C -2.999249 4.946952 1.264588 0
M  V30 17 C -3.237856 5.643612 2.442476 0
M  V30 18 C -2.629184 5.238933 3.621836 0
M  V30 19 F -2.843547 5.902763 4.795763 0
M  V30 20 C -1.776381 4.129309 3.619939 0
M  V30 21 C -1.555366 3.452916 2.434095 0
M  V30 22 C -1.774849 0.843431 0.230420 0
M  V30 23 C -1.096850 -0.367214 0.222119 0
M  V30 24 N 0.472050 -2.858912 0.173888 0
M  V30 25 C 1.461663 -3.793207 0.083627 0
M  V30 26 C 1.353784 -5.158369 0.231333 0
M  V30 27 H 1.539687 -8.893094 1.128953 0
M  V30 28 H 4.662620 -5.777254 -0.305840 0
M  V30 29 H 4.681820 -3.292326 -0.542817 0
M  V30 30 H 3.046931 -1.033421 -0.460934 0
M  V30 31 H 2.036197 0.834431 -0.454559 0
M  V30 32 H 0.726897 2.982121 -0.420660 0
M  V30 33 H -3.476649 5.267259 0.348444 0
M  V30 34 H -3.874874 6.492172 2.503984 0
M  V30 35 H -1.275149 3.772670 4.519757 0
M  V30 36 H -0.888902 2.584464 2.428732 0
M  V30 37 H -2.833144 0.750480 0.429602 0
M  V30 38 H -1.565957 -1.333117 0.397273 0
M  V30 39 H 0.413248 -5.646627 0.446440 0
M  V30 END ATOM
M  V30 BEGIN BOND
M  V30 1 2 1 2
M  V30 2 1 2 3
M  V30 3 1 2 4
M  V30 4 2 4 5
M  V30 5 1 5 6
M  V30 6 2 6 7
M  V30 7 1 7 8
M  V30 8 1 8 9
M  V30 9 1 9 10
M  V30 10 2 10 11
M  V30 11 1 11 12
M  V30 12 2 12 13
M  V30 13 1 13 14
M  V30 14 1 14 15
M  V30 15 2 15 16
M  V30 16 1 16 17
M  V30 17 2 17 18
M  V30 18 1 18 19
M  V30 19 1 18 20
M  V30 20 2 20 21
M  V30 21 1 13 22
M  V30 22 2 22 23
M  V30 23 2 9 24
M  V30 24 1 24 25
M  V30 25 2 25 26
M  V30 26 1 26 4
M  V30 27 1 25 7
M  V30 28 1 23 10
M  V30 29 1 21 15
M  V30 30 1 3 27
M  V30 31 1 5 28
M  V30 32 1 6 29
M  V30 33 1 8 30
M  V30 34 1 11 31
M  V30 35 1 12 32
M  V30 36 1 16 33
M  V30 37 1 17 34
M  V30 38 1 20 35
M  V30 39 1 21 36
M  V30 40 1 22 37
M  V30 41 1 23 38
M  V30 42 1 26 39
M  V30 END BOND
M  V30 END CTAB
M  END
>  <Dataset>  (176) 
ChEMBL_Kinases

>  <Ligand_Instance>  (176) 
nan

>  <PDB_ID>  (176) 
nan

>  <Standardized_SMILES>  (176) 
O=C(O)c1ccc2[nH]c(-c3ccc(Oc4ccc(F)cc4)cc3)nc2c1

>  <Name>  (176) 
nan

>  <Pocket>  (176) 
nan

>  <ATP_Site>  (176) 
nan

>  <Peripheral>  (176) 
nan

>  <Num_H_Atoms_ProtBoundConf>  (176) 
nan

>  <Num_Resolved_Atoms>  (176) 
nan

>  <Num_Not_Resolved_Atoms>  (176) 
nan

$$$$
CHEMBL3904239
     RDKit          3D

  0  0  0  0  0  0  0  0  0  0999 V3000
M  V30 BEGIN CTAB
M  V30 COUNTS 55 58 0 0 0
M  V30 BEGIN ATOM
M  V30 1 C 0.194815 0.110059 6.651611 0
M  V30 2 C 0.102850 0.757438 5.274905 0
M  V30 3 C 0.510021 -0.247878 4.259571 0
M  V30 4 C 1.847177 -0.350130 3.867456 0
M  V30 5 C 2.207472 -1.296797 2.917582 0
M  V30 6 C 1.253013 -2.149284 2.347315 0
M  V30 7 N 1.888752 -3.013209 1.411813 0
M  V30 8 C 1.692910 -2.812587 0.158977 0
M  V30 9 S 0.822562 -1.734555 -1.018050 0
M  V30 10 C 2.229715 -1.714661 -2.177806 0
M  V30 11 C 2.734036 -0.726984 -2.941206 0
M  V30 12 C 1.974281 0.530561 -2.770023 0
M  V30 13 C 2.582943 1.738455 -2.534018 0
M  V30 14 C 1.726157 2.813522 -2.413848 0
M  V30 15 N 0.398783 2.776589 -2.505796 0
M  V30 16 C -0.240947 1.597781 -2.740226 0
M  V30 17 N -1.622312 1.295525 -2.873014 0
M  V30 18 C -2.531353 0.804060 -1.900769 0
M  V30 19 C -2.071264 0.594471 -0.628388 0
M  V30 20 C -3.008611 0.095628 0.269282 0
M  V30 21 C -4.296025 -0.155111 -0.132374 0
M  V30 22 C -5.284249 -0.691206 0.815533 0
M  V30 23 O -6.482151 -0.956855 0.576277 0
M  V30 24 O -4.956592 -0.967886 2.137951 0
M  V30 25 C -4.745174 0.065415 -1.431084 0
M  V30 26 C -3.817502 0.560993 -2.328742 0
M  V30 27 C 0.580802 0.473553 -2.870591 0
M  V30 28 C 2.674281 -3.123189 -2.035160 0
M  V30 29 O 3.268746 -3.691885 -3.022096 0
M  V30 30 N 2.371370 -3.691255 -0.764214 0
M  V30 31 C 2.769761 -5.094432 -0.512672 0
M  V30 32 C -0.060994 -2.034819 2.745501 0
M  V30 33 C -0.416823 -1.094545 3.688446 0
M  V30 34 H 1.232293 0.200074 7.060803 0
M  V30 35 H -0.542288 0.565685 7.349624 0
M  V30 36 H -0.013209 -0.980786 6.624742 0
M  V30 37 H -0.924659 1.119566 5.067937 0
M  V30 38 H 0.845779 1.588086 5.302667 0
M  V30 39 H 2.531565 0.333443 4.342592 0
M  V30 40 H 3.286117 -1.259666 2.710528 0
M  V30 41 H 3.590139 -0.968008 -3.555216 0
M  V30 42 H 3.650393 1.777620 -2.459565 0
M  V30 43 H 2.174408 3.782371 -2.226142 0
M  V30 44 H -1.887957 1.505588 -3.868542 0
M  V30 45 H -1.058840 0.798723 -0.334439 0
M  V30 46 H -2.670718 -0.081391 1.286292 0
M  V30 47 H -5.279613 -1.847515 2.567307 0
M  V30 48 H -5.764215 -0.144671 -1.705365 0
M  V30 49 H -4.174326 0.729884 -3.335948 0
M  V30 50 H 0.151146 -0.513466 -3.073273 0
M  V30 51 H 2.463695 -5.749487 -1.353817 0
M  V30 52 H 3.869448 -5.193746 -0.412748 0
M  V30 53 H 2.318551 -5.456058 0.419545 0
M  V30 54 H -0.684869 -2.747150 2.230549 0
M  V30 55 H -1.464207 -1.066813 3.947574 0
M  V30 END ATOM
M  V30 BEGIN BOND
M  V30 1 1 1 2
M  V30 2 1 2 3
M  V30 3 2 3 4
M  V30 4 1 4 5
M  V30 5 2 5 6
M  V30 6 1 6 7
M  V30 7 2 7 8
M  V30 8 1 8 9
M  V30 9 1 9 10
M  V30 10 2 10 11
M  V30 11 1 11 12
M  V30 12 2 12 13
M  V30 13 1 13 14
M  V30 14 2 14 15
M  V30 15 1 15 16
M  V30 16 1 16 17
M  V30 17 1 17 18
M  V30 18 2 18 19
M  V30 19 1 19 20
M  V30 20 2 20 21
M  V30 21 1 21 22
M  V30 22 2 22 23
M  V30 23 1 22 24
M  V30 24 1 21 25
M  V30 25 2 25 26
M  V30 26 2 16 27
M  V30 27 1 10 28
M  V30 28 2 28 29
M  V30 29 1 28 30
M  V30 30 1 30 31
M  V30 31 1 6 32
M  V30 32 2 32 33
M  V30 33 1 33 3
M  V30 34 1 30 8
M  V30 35 1 27 12
M  V30 36 1 26 18
M  V30 37 1 1 34
M  V30 38 1 1 35
M  V30 39 1 1 36
M  V30 40 1 2 37
M  V30 41 1 2 38
M  V30 42 1 4 39
M  V30 43 1 5 40
M  V30 44 1 11 41
M  V30 45 1 13 42
M  V30 46 1 14 43
M  V30 47 1 17 44
M  V30 48 1 19 45
M  V30 49 1 20 46
M  V30 50 1 24 47
M  V30 51 1 25 48
M  V30 52 1 26 49
M  V30 53 1 27 50
M  V30 54 1 31 51
M  V30 55 1 31 52
M  V30 56 1 31 53
M  V30 57 1 32 54
M  V30 58 1 33 55
M  V30 END BOND
M  V30 END CTAB
M  END
>  <Dataset>  (177) 
ChEMBL_Kinases

>  <Ligand_Instance>  (177) 
nan

>  <PDB_ID>  (177) 
nan

>  <Standardized_SMILES>  (177) 
CCc1ccc(/N=C2\S/C(=C\c3ccnc(Nc4ccc(C(=O)O)cc4)c3)C(=O)N2C)cc1

>  <Name>  (177) 
nan

>  <Pocket>  (177) 
nan

>  <ATP_Site>  (177) 
nan

>  <Peripheral>  (177) 
nan

>  <Num_H_Atoms_ProtBoundConf>  (177) 
nan

>  <Num_Resolved_Atoms>  (177) 
nan

>  <Num_Not_Resolved_Atoms>  (177) 
nan

$$$$
CHEMBL3904174
     RDKit          3D

  0  0  0  0  0  0  0  0  0  0999 V3000
M  V30 BEGIN CTAB
M  V30 COUNTS 52 55 0 0 0
M  V30 BEGIN ATOM
M  V30 1 O 3.372693 -2.566750 -0.240470 0
M  V30 2 C 2.123242 -2.401412 -0.250150 0
M  V30 3 O 2.603046 -3.408227 -1.050329 0
M  V30 4 C 0.963462 -1.631267 0.266581 0 CFG=2
M  V30 5 C 1.398096 -0.555163 1.226965 0
M  V30 6 C 2.313962 0.449755 0.661547 0
M  V30 7 C 3.690711 0.422755 0.676335 0
M  V30 8 C 4.518180 1.390700 0.151202 0
M  V30 9 C 3.950682 2.494024 -0.446933 0
M  V30 10 C 2.574923 2.530555 -0.466201 0
M  V30 11 N 1.965644 3.661436 -1.079478 0
M  V30 12 C 1.784822 4.681081 -0.057271 0
M  V30 13 N 1.027583 5.051327 0.733294 0
M  V30 14 C 1.171797 6.072163 1.559290 0
M  V30 15 C 2.401356 6.799201 1.464211 0
M  V30 16 S 3.256258 5.867796 0.112299 0
M  V30 17 N 1.828683 1.563978 0.057909 0
M  V30 18 C 0.096042 -2.657885 0.995118 0
M  V30 19 C -0.949639 -3.158652 0.015322 0
M  V30 20 C -1.996001 -2.072443 -0.052510 0 CFG=1
M  V30 21 S -2.800164 -1.958687 1.560954 0
M  V30 22 C -3.703803 -3.466565 1.843288 0
M  V30 23 C -4.973144 -3.409350 1.254964 0
M  V30 24 C -5.864195 -4.472955 1.354737 0
M  V30 25 C -5.493677 -5.620819 2.051784 0
M  V30 26 C -4.238968 -5.656317 2.623839 0
M  V30 27 Cl -3.596737 -7.021847 3.542494 0
M  V30 28 C -3.352955 -4.607393 2.529279 0
M  V30 29 Cl -1.773215 -4.556874 3.234978 0
M  V30 30 C -1.246773 -0.788894 -0.369915 0
M  V30 31 C 0.156310 -1.018934 -0.843540 0
M  V30 32 H 2.090830 -3.946448 -1.731957 0
M  V30 33 H 0.495046 -0.008801 1.594845 0
M  V30 34 H 1.836363 -1.029787 2.157784 0
M  V30 35 H 4.179784 -0.417515 1.146290 0
M  V30 36 H 5.590848 1.282614 0.209514 0
M  V30 37 H 4.612114 3.234888 -0.848992 0
M  V30 38 H 1.613774 4.002402 -1.983436 0
M  V30 39 H 0.314193 6.241677 2.231102 0
M  V30 40 H 2.445180 7.683322 2.229046 0
M  V30 41 H -0.429661 -2.105899 1.802316 0
M  V30 42 H 0.709005 -3.481028 1.404826 0
M  V30 43 H -1.440612 -4.095842 0.339199 0
M  V30 44 H -0.497944 -3.358369 -0.985475 0
M  V30 45 H -2.751479 -2.278417 -0.850505 0
M  V30 46 H -5.401945 -2.582608 0.681118 0
M  V30 47 H -6.853908 -4.475658 0.918085 0
M  V30 48 H -6.103779 -6.509103 2.193979 0
M  V30 49 H -1.802258 -0.238314 -1.185808 0
M  V30 50 H -1.217093 -0.107305 0.498830 0
M  V30 51 H 0.569578 -0.036831 -1.118524 0
M  V30 52 H 0.198085 -1.623862 -1.778141 0
M  V30 END ATOM
M  V30 BEGIN BOND
M  V30 1 2 1 2
M  V30 2 1 2 3
M  V30 3 1 2 4
M  V30 4 1 4 5 CFG=1
M  V30 5 1 5 6
M  V30 6 2 6 7
M  V30 7 1 7 8
M  V30 8 2 8 9
M  V30 9 1 9 10
M  V30 10 1 10 11
M  V30 11 1 11 12
M  V30 12 2 12 13
M  V30 13 1 13 14
M  V30 14 2 14 15
M  V30 15 1 15 16
M  V30 16 2 10 17
M  V30 17 1 4 18
M  V30 18 1 18 19
M  V30 19 1 19 20
M  V30 20 1 20 21
M  V30 21 1 21 22
M  V30 22 2 22 23
M  V30 23 1 23 24
M  V30 24 2 24 25
M  V30 25 1 25 26
M  V30 26 1 26 27
M  V30 27 2 26 28
M  V30 28 1 28 29
M  V30 29 1 20 30
M  V30 30 1 30 31
M  V30 31 1 31 4
M  V30 32 1 17 6
M  V30 33 1 28 22
M  V30 34 1 16 12
M  V30 35 1 3 32
M  V30 36 1 5 33
M  V30 37 1 5 34
M  V30 38 1 7 35
M  V30 39 1 8 36
M  V30 40 1 9 37
M  V30 41 1 11 38
M  V30 42 1 14 39
M  V30 43 1 15 40
M  V30 44 1 18 41
M  V30 45 1 18 42
M  V30 46 1 19 43
M  V30 47 1 19 44
M  V30 48 1 20 45 CFG=3
M  V30 49 1 23 46
M  V30 50 1 24 47
M  V30 51 1 25 48
M  V30 52 1 30 49
M  V30 53 1 30 50
M  V30 54 1 31 51
M  V30 55 1 31 52
M  V30 END BOND
M  V30 END CTAB
M  END
>  <Dataset>  (178) 
ChEMBL_Kinases

>  <Ligand_Instance>  (178) 
nan

>  <PDB_ID>  (178) 
nan

>  <Standardized_SMILES>  (178) 
O=C(O)[C@]1(Cc2cccc(Nc3nccs3)n2)CC[C@@H](Sc2cccc(Cl)c2Cl)CC1

>  <Name>  (178) 
nan

>  <Pocket>  (178) 
nan

>  <ATP_Site>  (178) 
nan

>  <Peripheral>  (178) 
nan

>  <Num_H_Atoms_ProtBoundConf>  (178) 
nan

>  <Num_Resolved_Atoms>  (178) 
nan

>  <Num_Not_Resolved_Atoms>  (178) 
nan

$$$$
CHEMBL3905427
     RDKit          3D

  0  0  0  0  0  0  0  0  0  0999 V3000
M  V30 BEGIN CTAB
M  V30 COUNTS 56 60 0 0 0
M  V30 BEGIN ATOM
M  V30 1 N 5.172907 2.263661 3.277025 0
M  V30 2 C 5.786554 1.102636 2.733620 0
M  V30 3 C 6.643127 0.272022 3.426052 0
M  V30 4 C 7.203224 -0.834563 2.844883 0
M  V30 5 C 6.885425 -1.111964 1.513188 0
M  V30 6 C 6.021194 -0.264363 0.831563 0
M  V30 7 C 5.451280 0.865971 1.431300 0
M  V30 8 O 4.643015 1.529523 0.556900 0
M  V30 9 C 3.314050 1.805148 0.643312 0
M  V30 10 C 2.429367 0.848880 0.128795 0
M  V30 11 C 1.070292 1.087498 0.195398 0
M  V30 12 C 0.493126 2.213570 0.737928 0
M  V30 13 C -0.940347 2.439259 0.793497 0
M  V30 14 C -1.444230 3.584633 1.356980 0
M  V30 15 C -2.808863 3.747438 1.388840 0
M  V30 16 N -3.650178 2.836485 0.894190 0
M  V30 17 C -3.165190 1.713034 0.340949 0
M  V30 18 N -4.083083 0.757873 -0.174835 0
M  V30 19 C -3.856555 -0.480010 -0.827234 0
M  V30 20 C -4.901515 -1.299213 -1.213137 0
M  V30 21 C -4.697785 -2.498005 -1.851538 0
M  V30 22 C -3.433006 -2.953398 -2.144152 0
M  V30 23 S -3.134627 -4.476956 -2.947301 0
M  V30 24 O -2.003627 -4.275102 -3.913716 0
M  V30 25 O -4.400594 -4.854783 -3.672067 0
M  V30 26 N -2.764967 -5.719855 -1.812301 0
M  V30 27 C -3.528798 -6.252571 -0.774247 0
M  V30 28 N -3.384808 -7.132851 0.099342 0
M  V30 29 C -4.407054 -7.342761 0.935242 0
M  V30 30 C -5.581233 -6.682864 0.913811 0
M  V30 31 S -5.271193 -5.546033 -0.509200 0
M  V30 32 C -2.353049 -2.168530 -1.777717 0
M  V30 33 C -2.620517 -0.976577 -1.140346 0
M  V30 34 N -1.831963 1.561872 0.314010 0
M  V30 35 C 1.396831 3.124818 1.230555 0
M  V30 36 C 2.779495 2.953919 1.198833 0
M  V30 37 H 5.832249 3.081522 3.104132 0
M  V30 38 H 4.244096 1.963327 3.690249 0
M  V30 39 H 6.851999 0.544942 4.466870 0
M  V30 40 H 7.879119 -1.487124 3.398701 0
M  V30 41 H 7.331868 -1.987319 1.062931 0
M  V30 42 H 5.853892 -0.593581 -0.205474 0
M  V30 43 H 2.828122 -0.058025 -0.311271 0
M  V30 44 H 0.442499 0.310248 -0.218506 0
M  V30 45 H -0.863847 4.374512 1.780003 0
M  V30 46 H -3.275353 4.624993 1.817758 0
M  V30 47 H -5.116125 0.988649 -0.064673 0
M  V30 48 H -5.938810 -0.991506 -1.007467 0
M  V30 49 H -5.568632 -3.076862 -2.126102 0
M  V30 50 H -1.830242 -6.162665 -1.888523 0
M  V30 51 H -4.177448 -8.138539 1.665709 0
M  V30 52 H -6.390485 -6.825007 1.549986 0
M  V30 53 H -1.359210 -2.518798 -2.002939 0
M  V30 54 H -1.726931 -0.426631 -0.890376 0
M  V30 55 H 1.108888 4.049795 1.683238 0
M  V30 56 H 3.471150 3.684365 1.590178 0
M  V30 END ATOM
M  V30 BEGIN BOND
M  V30 1 1 1 2
M  V30 2 2 2 3
M  V30 3 1 3 4
M  V30 4 2 4 5
M  V30 5 1 5 6
M  V30 6 2 6 7
M  V30 7 1 7 8
M  V30 8 1 8 9
M  V30 9 2 9 10
M  V30 10 1 10 11
M  V30 11 2 11 12
M  V30 12 1 12 13
M  V30 13 2 13 14
M  V30 14 1 14 15
M  V30 15 2 15 16
M  V30 16 1 16 17
M  V30 17 1 17 18
M  V30 18 1 18 19
M  V30 19 2 19 20
M  V30 20 1 20 21
M  V30 21 2 21 22
M  V30 22 1 22 23
M  V30 23 2 23 24
M  V30 24 2 23 25
M  V30 25 1 23 26
M  V30 26 1 26 27
M  V30 27 2 27 28
M  V30 28 1 28 29
M  V30 29 2 29 30
M  V30 30 1 30 31
M  V30 31 1 22 32
M  V30 32 2 32 33
M  V30 33 2 17 34
M  V30 34 1 12 35
M  V30 35 2 35 36
M  V30 36 1 7 2
M  V30 37 1 36 9
M  V30 38 1 34 13
M  V30 39 1 33 19
M  V30 40 1 31 27
M  V30 41 1 1 37
M  V30 42 1 1 38
M  V30 43 1 3 39
M  V30 44 1 4 40
M  V30 45 1 5 41
M  V30 46 1 6 42
M  V30 47 1 10 43
M  V30 48 1 11 44
M  V30 49 1 14 45
M  V30 50 1 15 46
M  V30 51 1 18 47
M  V30 52 1 20 48
M  V30 53 1 21 49
M  V30 54 1 26 50
M  V30 55 1 29 51
M  V30 56 1 30 52
M  V30 57 1 32 53
M  V30 58 1 33 54
M  V30 59 1 35 55
M  V30 60 1 36 56
M  V30 END BOND
M  V30 END CTAB
M  END
>  <Dataset>  (179) 
ChEMBL_Kinases

>  <Ligand_Instance>  (179) 
nan

>  <PDB_ID>  (179) 
nan

>  <Standardized_SMILES>  (179) 
Nc1ccccc1Oc1ccc(-c2ccnc(Nc3ccc(S(=O)(=O)Nc4nccs4)cc3)n2)cc1

>  <Name>  (179) 
nan

>  <Pocket>  (179) 
nan

>  <ATP_Site>  (179) 
nan

>  <Peripheral>  (179) 
nan

>  <Num_H_Atoms_ProtBoundConf>  (179) 
nan

>  <Num_Resolved_Atoms>  (179) 
nan

>  <Num_Not_Resolved_Atoms>  (179) 
nan

$$$$
CHEMBL3905653
     RDKit          3D

  0  0  0  0  0  0  0  0  0  0999 V3000
M  V30 BEGIN CTAB
M  V30 COUNTS 67 72 0 0 0
M  V30 BEGIN ATOM
M  V30 1 C 5.501942 -2.717675 1.899263 0
M  V30 2 C 5.489154 -2.026713 0.538148 0
M  V30 3 N 4.316261 -2.503563 -0.178060 0
M  V30 4 C 4.479574 -3.808456 -0.676282 0
M  V30 5 C 5.603312 -4.535373 -0.367328 0
M  V30 6 C 5.889656 -5.813955 -0.844541 0
M  V30 7 C 5.004853 -6.428540 -1.692407 0
M  V30 8 C 3.870896 -5.771149 -2.044929 0
M  V30 9 C 3.668402 -4.516677 -1.529664 0
M  V30 10 C 3.249813 -1.610023 -0.284537 0
M  V30 11 C 3.423955 -0.276903 -0.009791 0
M  V30 12 C 2.420815 0.666108 -0.007986 0
M  V30 13 C 1.127448 0.277717 -0.301234 0
M  V30 14 C 0.844622 -1.062023 -0.595526 0
M  V30 15 N -0.479783 -1.416666 -0.887700 0
M  V30 16 C -0.970255 -2.710524 -1.218732 0
M  V30 17 O -0.378584 -3.815011 -1.319715 0
M  V30 18 C -2.405111 -2.701386 -1.474997 0
M  V30 19 C -3.386438 -3.597526 -1.824445 0
M  V30 20 C -4.710073 -3.178742 -1.987981 0
M  V30 21 C -5.038493 -1.854508 -1.797639 0
M  V30 22 C -4.054926 -0.926727 -1.441609 0
M  V30 23 C -2.786737 -1.407242 -1.299907 0
M  V30 24 C -1.613401 -0.545017 -0.914363 0
M  V30 25 O -1.547476 0.468890 -1.857914 0
M  V30 26 C -1.962845 0.011399 0.442649 0
M  V30 27 C -1.831302 -0.782367 1.562768 0
M  V30 28 C -2.161947 -0.274257 2.823866 0
M  V30 29 C -2.622263 1.015851 2.981802 0
M  V30 30 N -3.024783 1.821176 3.992560 0
M  V30 31 C -3.382663 3.033645 3.532396 0
M  V30 32 N -3.860158 4.157531 4.264027 0
M  V30 33 C -4.194799 5.360753 3.583926 0
M  V30 34 O -4.059725 5.409235 2.332313 0
M  V30 35 O -4.663184 6.497785 4.193681 0
M  V30 36 C -4.986862 7.686135 3.458505 0
M  V30 37 N -3.198462 2.982854 2.200944 0
M  V30 38 C -2.737740 1.771256 1.837796 0
M  V30 39 C -2.427640 1.326485 0.568629 0
M  V30 40 C 1.934530 -1.883770 -0.558909 0
M  V30 41 H 6.522936 -2.954782 2.188527 0
M  V30 42 H 4.892302 -3.638792 1.880523 0
M  V30 43 H 5.086596 -1.993282 2.656322 0
M  V30 44 H 6.418184 -2.333492 0.003790 0
M  V30 45 H 5.473347 -0.957015 0.743005 0
M  V30 46 H 6.424917 -4.241675 0.261956 0
M  V30 47 H 6.770408 -6.385844 -0.602175 0
M  V30 48 H 5.196377 -7.425136 -2.083557 0
M  V30 49 H 3.184349 -6.266308 -2.712171 0
M  V30 50 H 2.771499 -4.084116 -1.910455 0
M  V30 51 H 4.329242 0.258533 0.223696 0
M  V30 52 H 2.508601 1.725042 0.201835 0
M  V30 53 H 0.299504 0.987445 -0.314286 0
M  V30 54 H -3.092631 -4.632715 -1.966664 0
M  V30 55 H -5.421526 -3.948329 -2.263934 0
M  V30 56 H -6.096096 -1.604592 -1.944466 0
M  V30 57 H -4.371385 0.105484 -1.304493 0
M  V30 58 H -2.459185 0.687773 -2.153422 0
M  V30 59 H -1.476445 -1.791742 1.479306 0
M  V30 60 H -2.068143 -0.874215 3.717430 0
M  V30 61 H -3.041242 1.506620 4.985763 0
M  V30 62 H -3.971397 4.117364 5.299870 0
M  V30 63 H -6.016513 7.502621 3.049277 0
M  V30 64 H -4.924740 8.595522 4.060802 0
M  V30 65 H -4.343061 7.749252 2.535380 0
M  V30 66 H -2.539623 1.963910 -0.279049 0
M  V30 67 H 1.614904 -2.889774 -0.745112 0
M  V30 END ATOM
M  V30 BEGIN BOND
M  V30 1 1 1 2
M  V30 2 1 2 3
M  V30 3 1 3 4
M  V30 4 2 4 5
M  V30 5 1 5 6
M  V30 6 2 6 7
M  V30 7 1 7 8
M  V30 8 2 8 9
M  V30 9 1 3 10
M  V30 10 2 10 11
M  V30 11 1 11 12
M  V30 12 2 12 13
M  V30 13 1 13 14
M  V30 14 1 14 15
M  V30 15 1 15 16
M  V30 16 2 16 17
M  V30 17 1 16 18
M  V30 18 2 18 19
M  V30 19 1 19 20
M  V30 20 2 20 21
M  V30 21 1 21 22
M  V30 22 2 22 23
M  V30 23 1 23 24
M  V30 24 1 24 25
M  V30 25 1 24 26
M  V30 26 2 26 27
M  V30 27 1 27 28
M  V30 28 2 28 29
M  V30 29 1 29 30
M  V30 30 1 30 31
M  V30 31 1 31 32
M  V30 32 1 32 33
M  V30 33 2 33 34
M  V30 34 1 33 35
M  V30 35 1 35 36
M  V30 36 2 31 37
M  V30 37 1 37 38
M  V30 38 2 38 39
M  V30 39 2 14 40
M  V30 40 1 9 4
M  V30 41 1 40 10
M  V30 42 1 24 15
M  V30 43 1 39 26
M  V30 44 1 23 18
M  V30 45 1 38 29
M  V30 46 1 1 41
M  V30 47 1 1 42
M  V30 48 1 1 43
M  V30 49 1 2 44
M  V30 50 1 2 45
M  V30 51 1 5 46
M  V30 52 1 6 47
M  V30 53 1 7 48
M  V30 54 1 8 49
M  V30 55 1 9 50
M  V30 56 1 11 51
M  V30 57 1 12 52
M  V30 58 1 13 53
M  V30 59 1 19 54
M  V30 60 1 20 55
M  V30 61 1 21 56
M  V30 62 1 22 57
M  V30 63 1 25 58
M  V30 64 1 27 59
M  V30 65 1 28 60
M  V30 66 1 30 61
M  V30 67 1 32 62
M  V30 68 1 36 63
M  V30 69 1 36 64
M  V30 70 1 36 65
M  V30 71 1 39 66
M  V30 72 1 40 67
M  V30 END BOND
M  V30 END CTAB
M  END
>  <Dataset>  (180) 
ChEMBL_Kinases

>  <Ligand_Instance>  (180) 
nan

>  <PDB_ID>  (180) 
nan

>  <Standardized_SMILES>  (180) 
CCN(c1ccccc1)c1cccc(N2C(=O)c3ccccc3C2(O)c2ccc3[nH]c(NC(=O)OC)nc3c2)c1

>  <Name>  (180) 
nan

>  <Pocket>  (180) 
nan

>  <ATP_Site>  (180) 
nan

>  <Peripheral>  (180) 
nan

>  <Num_H_Atoms_ProtBoundConf>  (180) 
nan

>  <Num_Resolved_Atoms>  (180) 
nan

>  <Num_Not_Resolved_Atoms>  (180) 
nan

$$$$
CHEMBL4878217
     RDKit          3D

  0  0  0  0  0  0  0  0  0  0999 V3000
M  V30 BEGIN CTAB
M  V30 COUNTS 51 55 0 0 0
M  V30 BEGIN ATOM
M  V30 1 C 2.302271 -2.979907 1.598049 0
M  V30 2 C 3.434685 -2.149847 1.002718 0
M  V30 3 C 4.416164 -3.093331 0.319060 0
M  V30 4 N 4.158452 -1.559733 2.116173 0
M  V30 5 C 4.901050 -2.292419 2.954037 0
M  V30 6 N 5.447621 -1.481096 3.878119 0
M  V30 7 N 5.026896 -0.268750 3.584870 0
M  V30 8 C 4.237593 -0.267061 2.517448 0
M  V30 9 C 3.558678 0.833522 1.849475 0
M  V30 10 C 4.241971 1.967448 1.447783 0
M  V30 11 C 3.542585 2.978898 0.818277 0
M  V30 12 C 2.188376 2.917463 0.567117 0
M  V30 13 N 1.250819 3.701814 -0.002932 0
M  V30 14 N 0.074582 3.105713 0.038947 0
M  V30 15 C 0.152743 1.895098 0.635154 0
M  V30 16 C -0.940043 0.952729 0.860214 0
M  V30 17 C -1.065366 0.334138 2.087833 0
M  V30 18 C -2.077465 -0.565359 2.359124 0
M  V30 19 C -2.986402 -0.844716 1.358723 0
M  V30 20 C -2.907788 -0.254808 0.113420 0
M  V30 21 C -3.835912 -0.507976 -0.983680 0
M  V30 22 O -3.764122 0.030006 -2.118951 0
M  V30 23 N -4.930583 -1.406985 -0.864493 0
M  V30 24 C -5.867292 -1.664741 -1.966457 0
M  V30 25 C -7.307887 -1.999879 -1.587867 0
M  V30 26 C -6.369790 -3.067980 -2.026864 0
M  V30 27 C -1.879397 0.640216 -0.117621 0
M  V30 28 C 1.490405 1.792718 0.961369 0
M  V30 29 C 2.194822 0.785951 1.589674 0
M  V30 30 H 1.917707 -2.486303 2.536607 0
M  V30 31 H 1.446452 -3.053551 0.917552 0
M  V30 32 H 2.720639 -3.972518 1.860994 0
M  V30 33 H 3.058299 -1.368561 0.327792 0
M  V30 34 H 5.401521 -2.579562 0.194012 0
M  V30 35 H 4.571415 -3.932303 1.026457 0
M  V30 36 H 4.066168 -3.445533 -0.651040 0
M  V30 37 H 5.095377 -3.354714 2.975149 0
M  V30 38 H 5.307050 2.033461 1.636844 0
M  V30 39 H 4.076091 3.872425 0.500723 0
M  V30 40 H 1.496551 4.639344 -0.401189 0
M  V30 41 H -0.393158 0.502524 2.917645 0
M  V30 42 H -2.217696 -1.077889 3.309869 0
M  V30 43 H -3.784749 -1.541054 1.541673 0
M  V30 44 H -5.102483 -1.920748 0.031157 0
M  V30 45 H -5.700910 -1.133227 -2.913848 0
M  V30 46 H -7.514025 -1.882075 -0.487007 0
M  V30 47 H -8.113807 -1.636461 -2.234861 0
M  V30 48 H -6.066717 -3.782996 -1.210260 0
M  V30 49 H -6.636814 -3.565567 -2.971892 0
M  V30 50 H -1.767118 1.139334 -1.087781 0
M  V30 51 H 1.700243 -0.111860 1.917341 0
M  V30 END ATOM
M  V30 BEGIN BOND
M  V30 1 1 1 2
M  V30 2 1 2 3
M  V30 3 1 2 4
M  V30 4 1 4 5
M  V30 5 2 5 6
M  V30 6 1 6 7
M  V30 7 2 7 8
M  V30 8 1 8 9
M  V30 9 2 9 10
M  V30 10 1 10 11
M  V30 11 2 11 12
M  V30 12 1 12 13
M  V30 13 1 13 14
M  V30 14 2 14 15
M  V30 15 1 15 16
M  V30 16 2 16 17
M  V30 17 1 17 18
M  V30 18 2 18 19
M  V30 19 1 19 20
M  V30 20 1 20 21
M  V30 21 2 21 22
M  V30 22 1 21 23
M  V30 23 1 23 24
M  V30 24 1 24 25
M  V30 25 1 25 26
M  V30 26 2 20 27
M  V30 27 1 15 28
M  V30 28 2 28 29
M  V30 29 1 8 4
M  V30 30 1 29 9
M  V30 31 1 28 12
M  V30 32 1 27 16
M  V30 33 1 26 24
M  V30 34 1 1 30
M  V30 35 1 1 31
M  V30 36 1 1 32
M  V30 37 1 2 33
M  V30 38 1 3 34
M  V30 39 1 3 35
M  V30 40 1 3 36
M  V30 41 1 5 37
M  V30 42 1 10 38
M  V30 43 1 11 39
M  V30 44 1 13 40
M  V30 45 1 17 41
M  V30 46 1 18 42
M  V30 47 1 19 43
M  V30 48 1 23 44
M  V30 49 1 24 45
M  V30 50 1 25 46
M  V30 51 1 25 47
M  V30 52 1 26 48
M  V30 53 1 26 49
M  V30 54 1 27 50
M  V30 55 1 29 51
M  V30 END BOND
M  V30 END CTAB
M  END
>  <Dataset>  (181) 
ChEMBL_Kinases

>  <Ligand_Instance>  (181) 
nan

>  <PDB_ID>  (181) 
nan

>  <Standardized_SMILES>  (181) 
CC(C)n1cnnc1-c1ccc2[nH]nc(-c3cccc(C(=O)NC4CC4)c3)c2c1

>  <Name>  (181) 
nan

>  <Pocket>  (181) 
nan

>  <ATP_Site>  (181) 
nan

>  <Peripheral>  (181) 
nan

>  <Num_H_Atoms_ProtBoundConf>  (181) 
nan

>  <Num_Resolved_Atoms>  (181) 
nan

>  <Num_Not_Resolved_Atoms>  (181) 
nan

$$$$
CHEMBL3901797
     RDKit          3D

  0  0  0  0  0  0  0  0  0  0999 V3000
M  V30 BEGIN CTAB
M  V30 COUNTS 52 55 0 0 0
M  V30 BEGIN ATOM
M  V30 1 O 3.267454 -2.740076 1.115377 0
M  V30 2 C 4.368765 -3.036870 0.593403 0
M  V30 3 O 3.594960 -3.971500 1.244116 0
M  V30 4 C 5.507747 -2.518472 -0.152540 0
M  V30 5 C 5.483465 -1.260192 -0.472199 0
M  V30 6 C 4.659841 -0.108769 -0.336697 0
M  V30 7 O 5.274996 0.851174 -0.919998 0
M  V30 8 N 3.500294 0.465992 0.131210 0
M  V30 9 C 2.931438 1.736511 0.098997 0
M  V30 10 C 3.402659 2.891516 -0.458948 0
M  V30 11 C 2.789671 4.123781 -0.457388 0
M  V30 12 C 1.571032 4.159931 0.184902 0
M  V30 13 C 1.020208 3.059732 0.770901 0
M  V30 14 C -0.273356 3.171716 1.434110 0
M  V30 15 N -0.537027 4.216759 2.268214 0
M  V30 16 N -1.756025 4.128413 2.760073 0
M  V30 17 C -2.364306 3.025002 2.281069 0
M  V30 18 C -3.588850 2.384699 2.397709 0
M  V30 19 C -3.830191 1.207700 1.701835 0
M  V30 20 C -2.873020 0.626026 0.870333 0
M  V30 21 N -3.136078 -0.579594 0.164720 0
M  V30 22 C -2.862313 -1.865541 0.700821 0
M  V30 23 O -2.370580 -2.045866 1.829885 0
M  V30 24 N -3.201071 -2.924108 -0.169268 0
M  V30 25 C -3.042599 -4.311637 0.090838 0
M  V30 26 C -3.947785 -5.172428 0.676001 0
M  V30 27 C -3.636179 -6.504082 0.858247 0
M  V30 28 C -2.420313 -7.030666 0.468855 0
M  V30 29 C -1.518250 -6.155867 -0.118291 0
M  V30 30 C -1.816243 -4.817055 -0.307973 0
M  V30 31 C -1.654876 1.262289 0.753843 0
M  V30 32 C -1.434795 2.430260 1.453214 0
M  V30 33 C 1.701770 1.867731 0.722025 0
M  V30 34 H 3.470998 -4.908671 0.815141 0
M  V30 35 H 6.276493 -3.234265 -0.367985 0
M  V30 36 H 6.451728 -1.159711 -1.015991 0
M  V30 37 H 3.004558 -0.313125 0.602333 0
M  V30 38 H 4.354797 2.869289 -0.962390 0
M  V30 39 H 3.238204 4.987165 -0.925960 0
M  V30 40 H 1.030476 5.091499 0.227351 0
M  V30 41 H -2.229862 4.783966 3.423060 0
M  V30 42 H -4.315851 2.847518 3.043632 0
M  V30 43 H -4.806255 0.733210 1.819364 0
M  V30 44 H -3.545658 -0.368249 -0.770961 0
M  V30 45 H -3.615553 -2.815321 -1.124276 0
M  V30 46 H -4.877113 -4.696671 0.956359 0
M  V30 47 H -4.381177 -7.139772 1.322706 0
M  V30 48 H -2.209754 -8.087044 0.628897 0
M  V30 49 H -0.579757 -6.618038 -0.405722 0
M  V30 50 H -0.994513 -4.282622 -0.780976 0
M  V30 51 H -0.917371 0.810745 0.110362 0
M  V30 52 H 1.199506 1.037042 1.211351 0
M  V30 END ATOM
M  V30 BEGIN BOND
M  V30 1 2 1 2
M  V30 2 1 2 3
M  V30 3 1 2 4
M  V30 4 2 4 5
M  V30 5 1 5 6
M  V30 6 2 6 7
M  V30 7 1 6 8
M  V30 8 1 8 9
M  V30 9 2 9 10
M  V30 10 1 10 11
M  V30 11 2 11 12
M  V30 12 1 12 13
M  V30 13 1 13 14
M  V30 14 2 14 15
M  V30 15 1 15 16
M  V30 16 1 16 17
M  V30 17 2 17 18
M  V30 18 1 18 19
M  V30 19 2 19 20
M  V30 20 1 20 21
M  V30 21 1 21 22
M  V30 22 2 22 23
M  V30 23 1 22 24
M  V30 24 1 24 25
M  V30 25 2 25 26
M  V30 26 1 26 27
M  V30 27 2 27 28
M  V30 28 1 28 29
M  V30 29 2 29 30
M  V30 30 1 20 31
M  V30 31 2 31 32
M  V30 32 2 13 33
M  V30 33 1 33 9
M  V30 34 1 32 14
M  V30 35 1 32 17
M  V30 36 1 30 25
M  V30 37 1 3 34
M  V30 38 1 4 35
M  V30 39 1 5 36
M  V30 40 1 8 37
M  V30 41 1 10 38
M  V30 42 1 11 39
M  V30 43 1 12 40
M  V30 44 1 16 41
M  V30 45 1 18 42
M  V30 46 1 19 43
M  V30 47 1 21 44
M  V30 48 1 24 45
M  V30 49 1 26 46
M  V30 50 1 27 47
M  V30 51 1 28 48
M  V30 52 1 29 49
M  V30 53 1 30 50
M  V30 54 1 31 51
M  V30 55 1 33 52
M  V30 END BOND
M  V30 END CTAB
M  END
>  <Dataset>  (182) 
ChEMBL_Kinases

>  <Ligand_Instance>  (182) 
nan

>  <PDB_ID>  (182) 
nan

>  <Standardized_SMILES>  (182) 
O=C(O)/C=C\C(=O)Nc1cccc(-c2n[nH]c3ccc(NC(=O)Nc4ccccc4)cc23)c1

>  <Name>  (182) 
nan

>  <Pocket>  (182) 
nan

>  <ATP_Site>  (182) 
nan

>  <Peripheral>  (182) 
nan

>  <Num_H_Atoms_ProtBoundConf>  (182) 
nan

>  <Num_Resolved_Atoms>  (182) 
nan

>  <Num_Not_Resolved_Atoms>  (182) 
nan

$$$$
CHEMBL390670
     RDKit          3D

  0  0  0  0  0  0  0  0  0  0999 V3000
M  V30 BEGIN CTAB
M  V30 COUNTS 55 59 0 0 0
M  V30 BEGIN ATOM
M  V30 1 C -3.741384 -3.640467 -2.902029 0
M  V30 2 O -4.773719 -3.389872 -1.993137 0
M  V30 3 C -4.897870 -2.273754 -1.194494 0
M  V30 4 C -4.047063 -1.188500 -1.123755 0
M  V30 5 C -4.314016 -0.134939 -0.261187 0
M  V30 6 C -3.377420 0.994476 -0.224600 0
M  V30 7 C -3.764247 2.291332 0.050261 0
M  V30 8 C -2.833052 3.328129 0.072644 0
M  V30 9 C -1.493632 3.079625 -0.181327 0
M  V30 10 C -1.138959 1.775666 -0.452213 0
M  V30 11 C -2.044873 0.728389 -0.480361 0
M  V30 12 N 0.184191 1.345897 -0.732926 0
M  V30 13 C 1.467267 1.954456 -0.822227 0
M  V30 14 C 1.635833 3.313204 -0.525541 0
M  V30 15 C 2.892626 3.870496 -0.621672 0
M  V30 16 C 3.990582 3.131537 -1.001398 0
M  V30 17 C 3.738827 1.809740 -1.274111 0
M  V30 18 C 2.542519 1.140009 -1.215809 0
M  V30 19 O 2.102341 -0.108456 -1.436931 0
M  V30 20 C 2.819464 -1.221292 -1.828069 0
M  V30 21 C 3.873894 -1.658962 -0.893627 0
M  V30 22 C 3.313617 -2.441432 0.124993 0
M  V30 23 C 4.053879 -3.011567 1.141838 0
M  V30 24 N 5.394198 -2.810063 1.165539 0
M  V30 25 C 5.990935 -2.058131 0.200018 0
M  V30 26 C 5.237142 -1.499019 -0.804373 0
M  V30 27 N 0.749566 4.343186 -0.114738 0
M  V30 28 C -0.671419 4.280979 -0.114738 0
M  V30 29 O -1.308315 5.381048 -0.050211 0
M  V30 30 C -5.429193 -0.127204 0.553803 0
M  V30 31 C -6.290782 -1.221979 0.484868 0
M  V30 32 C -6.023595 -2.269165 -0.373835 0
M  V30 33 N -6.957332 -3.320528 -0.362919 0
M  V30 34 H -4.086766 -4.296160 -3.738650 0
M  V30 35 H -2.960586 -4.228491 -2.366092 0
M  V30 36 H -3.240370 -2.749417 -3.308944 0
M  V30 37 H -3.188005 -1.232162 -1.775434 0
M  V30 38 H -4.791872 2.499785 0.248095 0
M  V30 39 H -3.144941 4.354748 0.291139 0
M  V30 40 H -1.697472 -0.265760 -0.699155 0
M  V30 41 H 0.226739 0.317092 -0.922797 0
M  V30 42 H 3.070627 4.918384 -0.401603 0
M  V30 43 H 5.011523 3.467959 -1.107563 0
M  V30 44 H 4.541276 1.167786 -1.586036 0
M  V30 45 H 3.384139 -0.963457 -2.787786 0
M  V30 46 H 2.165778 -2.091960 -2.092500 0
M  V30 47 H 2.253437 -2.698805 0.250592 0
M  V30 48 H 3.665596 -3.619558 1.944515 0
M  V30 49 H 7.026583 -1.820866 0.098179 0
M  V30 50 H 5.600035 -0.899827 -1.623750 0
M  V30 51 H 1.161290 5.239379 0.222643 0
M  V30 52 H -5.555216 0.741364 1.196531 0
M  V30 53 H -7.159791 -1.189228 1.136930 0
M  V30 54 H -6.403101 -4.155641 -0.028353 0
M  V30 55 H -7.959773 -3.519127 -0.568652 0
M  V30 END ATOM
M  V30 BEGIN BOND
M  V30 1 1 1 2
M  V30 2 1 2 3
M  V30 3 2 3 4
M  V30 4 1 4 5
M  V30 5 1 5 6
M  V30 6 2 6 7
M  V30 7 1 7 8
M  V30 8 2 8 9
M  V30 9 1 9 10
M  V30 10 2 10 11
M  V30 11 1 10 12
M  V30 12 1 12 13
M  V30 13 2 13 14
M  V30 14 1 14 15
M  V30 15 2 15 16
M  V30 16 1 16 17
M  V30 17 2 17 18
M  V30 18 1 18 19
M  V30 19 1 19 20
M  V30 20 1 20 21
M  V30 21 2 21 22
M  V30 22 1 22 23
M  V30 23 2 23 24
M  V30 24 1 24 25
M  V30 25 2 25 26
M  V30 26 1 14 27
M  V30 27 1 27 28
M  V30 28 2 28 29
M  V30 29 2 5 30
M  V30 30 1 30 31
M  V30 31 2 31 32
M  V30 32 1 32 33
M  V30 33 1 32 3
M  V30 34 1 11 6
M  V30 35 1 18 13
M  V30 36 1 26 21
M  V30 37 1 28 9
M  V30 38 1 1 34
M  V30 39 1 1 35
M  V30 40 1 1 36
M  V30 41 1 4 37
M  V30 42 1 7 38
M  V30 43 1 8 39
M  V30 44 1 11 40
M  V30 45 1 12 41
M  V30 46 1 15 42
M  V30 47 1 16 43
M  V30 48 1 17 44
M  V30 49 1 20 45
M  V30 50 1 20 46
M  V30 51 1 22 47
M  V30 52 1 23 48
M  V30 53 1 25 49
M  V30 54 1 26 50
M  V30 55 1 27 51
M  V30 56 1 30 52
M  V30 57 1 31 53
M  V30 58 1 33 54
M  V30 59 1 33 55
M  V30 END BOND
M  V30 END CTAB
M  END
>  <Dataset>  (183) 
ChEMBL_Kinases

>  <Ligand_Instance>  (183) 
nan

>  <PDB_ID>  (183) 
nan

>  <Standardized_SMILES>  (183) 
COc1cc(-c2ccc3c(c2)Nc2c(cccc2OCc2ccncc2)NC3=O)ccc1N

>  <Name>  (183) 
nan

>  <Pocket>  (183) 
nan

>  <ATP_Site>  (183) 
nan

>  <Peripheral>  (183) 
nan

>  <Num_H_Atoms_ProtBoundConf>  (183) 
nan

>  <Num_Resolved_Atoms>  (183) 
nan

>  <Num_Not_Resolved_Atoms>  (183) 
nan

$$$$
CHEMBL3901767
     RDKit          3D

  0  0  0  0  0  0  0  0  0  0999 V3000
M  V30 BEGIN CTAB
M  V30 COUNTS 53 56 0 0 0
M  V30 BEGIN ATOM
M  V30 1 O -0.772082 -3.895350 4.142276 0
M  V30 2 C -0.561072 -3.027207 3.255754 0
M  V30 3 C 0.765255 -2.711832 2.748454 0
M  V30 4 C 1.047680 -1.814396 1.822392 0
M  V30 5 C 2.386196 -1.516918 1.330939 0
M  V30 6 C 3.523837 -2.138074 1.774420 0
M  V30 7 N 4.730406 -1.813282 1.275613 0
M  V30 8 C 4.909506 -0.876878 0.326407 0
M  V30 9 N 6.020634 -0.412407 -0.295863 0
M  V30 10 C 5.644706 0.535498 -1.174187 0
M  V30 11 C 4.257499 0.674141 -1.105277 0
M  V30 12 C 3.426292 1.589274 -1.883868 0
M  V30 13 C 3.885182 2.906223 -2.000362 0
M  V30 14 C 3.121498 3.796920 -2.730746 0
M  V30 15 C 1.932041 3.482575 -3.358100 0
M  V30 16 C 1.498258 2.160611 -3.224847 0
M  V30 17 C 2.240156 1.250732 -2.501931 0
M  V30 18 C 3.789810 -0.221360 -0.153611 0
M  V30 19 C 2.554245 -0.555439 0.358648 0
M  V30 20 N -1.757101 -2.398472 2.813726 0
M  V30 21 C -3.039518 -2.739238 3.339552 0 CFG=1
M  V30 22 C -3.652121 -1.548583 4.056827 0
M  V30 23 O -4.910507 -1.846959 4.586598 0
M  V30 24 C -3.999080 -3.223498 2.272420 0
M  V30 25 C -4.234110 -2.204039 1.230729 0
M  V30 26 C -3.389517 -2.192835 0.114799 0
M  V30 27 C -3.547802 -1.270758 -0.898937 0
M  V30 28 C -4.545009 -0.320195 -0.856651 0
M  V30 29 C -5.387524 -0.315251 0.235205 0
M  V30 30 C -5.219288 -1.240910 1.240692 0
M  V30 31 H 1.583571 -3.268232 3.175348 0
M  V30 32 H 0.197544 -1.282639 1.424444 0
M  V30 33 H 3.467877 -2.888511 2.522195 0
M  V30 34 H 7.011156 -0.719045 -0.140447 0
M  V30 35 H 6.326992 1.079736 -1.811526 0
M  V30 36 H 4.813893 3.191378 -1.522447 0
M  V30 37 H 3.503578 4.809579 -2.802633 0
M  V30 38 H 1.379627 4.227078 -3.916526 0
M  V30 39 H 0.566200 1.869261 -3.702896 0
M  V30 40 H 1.910813 0.217540 -2.391924 0
M  V30 41 H 1.674072 -0.041847 -0.017036 0
M  V30 42 H -1.696215 -1.653360 2.070658 0
M  V30 43 H -2.952912 -3.532684 4.109483 0
M  V30 44 H -3.769764 -0.720504 3.324931 0
M  V30 45 H -2.983624 -1.171369 4.856556 0
M  V30 46 H -5.451214 -1.042361 4.697147 0
M  V30 47 H -4.948341 -3.589836 2.711036 0
M  V30 48 H -3.506739 -4.108728 1.793687 0
M  V30 49 H -2.566106 -2.897741 -0.026039 0
M  V30 50 H -2.924445 -1.218425 -1.780819 0
M  V30 51 H -4.700246 0.418487 -1.631693 0
M  V30 52 H -6.185601 0.427084 0.293420 0
M  V30 53 H -5.882519 -1.230937 2.091618 0
M  V30 END ATOM
M  V30 BEGIN BOND
M  V30 1 2 1 2
M  V30 2 1 2 3
M  V30 3 2 3 4
M  V30 4 1 4 5
M  V30 5 2 5 6
M  V30 6 1 6 7
M  V30 7 2 7 8
M  V30 8 1 8 9
M  V30 9 1 9 10
M  V30 10 2 10 11
M  V30 11 1 11 12
M  V30 12 2 12 13
M  V30 13 1 13 14
M  V30 14 2 14 15
M  V30 15 1 15 16
M  V30 16 2 16 17
M  V30 17 1 11 18
M  V30 18 2 18 19
M  V30 19 1 2 20
M  V30 20 1 20 21
M  V30 21 1 21 22
M  V30 22 1 22 23
M  V30 23 1 21 24
M  V30 24 1 24 25
M  V30 25 2 25 26
M  V30 26 1 26 27
M  V30 27 2 27 28
M  V30 28 1 28 29
M  V30 29 2 29 30
M  V30 30 1 19 5
M  V30 31 1 30 25
M  V30 32 1 18 8
M  V30 33 1 17 12
M  V30 34 1 3 31
M  V30 35 1 4 32
M  V30 36 1 6 33
M  V30 37 1 9 34
M  V30 38 1 10 35
M  V30 39 1 13 36
M  V30 40 1 14 37
M  V30 41 1 15 38
M  V30 42 1 16 39
M  V30 43 1 17 40
M  V30 44 1 19 41
M  V30 45 1 20 42
M  V30 46 1 21 43 CFG=1
M  V30 47 1 22 44
M  V30 48 1 22 45
M  V30 49 1 23 46
M  V30 50 1 24 47
M  V30 51 1 24 48
M  V30 52 1 26 49
M  V30 53 1 27 50
M  V30 54 1 28 51
M  V30 55 1 29 52
M  V30 56 1 30 53
M  V30 END BOND
M  V30 END CTAB
M  END
>  <Dataset>  (184) 
ChEMBL_Kinases

>  <Ligand_Instance>  (184) 
nan

>  <PDB_ID>  (184) 
nan

>  <Standardized_SMILES>  (184) 
O=C(/C=C/c1cnc2[nH]cc(-c3ccccc3)c2c1)N[C@@H](CO)Cc1ccccc1

>  <Name>  (184) 
nan

>  <Pocket>  (184) 
nan

>  <ATP_Site>  (184) 
nan

>  <Peripheral>  (184) 
nan

>  <Num_H_Atoms_ProtBoundConf>  (184) 
nan

>  <Num_Resolved_Atoms>  (184) 
nan

>  <Num_Not_Resolved_Atoms>  (184) 
nan

$$$$
CHEMBL3901743
     RDKit          3D

  0  0  0  0  0  0  0  0  0  0999 V3000
M  V30 BEGIN CTAB
M  V30 COUNTS 43 45 0 0 0
M  V30 BEGIN ATOM
M  V30 1 C 0.141801 -6.536510 -4.667647 0
M  V30 2 C 0.420140 -5.655126 -3.472352 0
M  V30 3 N 0.279519 -4.271368 -3.904626 0
M  V30 4 C 0.507832 -3.262339 -2.895634 0
M  V30 5 O 0.743483 -4.139479 -2.034871 0
M  V30 6 C 0.334106 -1.934244 -3.466023 0
M  V30 7 C 0.530037 -0.971624 -2.591008 0
M  V30 8 C 0.875670 -0.871053 -1.197883 0
M  V30 9 O 0.948047 0.350959 -0.793026 0
M  V30 10 N 1.198098 -1.457101 0.037661 0
M  V30 11 C 1.451085 -0.583072 1.132739 0
M  V30 12 C 2.787370 -0.209356 1.255620 0
M  V30 13 C 3.142607 0.645639 2.296526 0
M  V30 14 C 2.164959 1.097243 3.174002 0
M  V30 15 C 0.845883 0.728660 3.053131 0
M  V30 16 C -0.173291 1.215241 3.988994 0
M  V30 17 N -1.122911 0.425680 4.549106 0
M  V30 18 N -1.903126 1.131422 5.349191 0
M  V30 19 C -1.452934 2.399103 5.307845 0
M  V30 20 C -1.914250 3.517042 5.956739 0
M  V30 21 C -1.250466 4.700958 5.723827 0
M  V30 22 C -0.155844 4.817011 4.878921 0
M  V30 23 C 0.289807 3.670750 4.235426 0
M  V30 24 C -0.377447 2.494760 4.473100 0
M  V30 25 C 0.501189 -0.118289 2.019992 0
M  V30 26 H -0.875829 -6.341617 -5.077509 0
M  V30 27 H 0.930531 -6.415447 -5.451309 0
M  V30 28 H 0.137303 -7.616476 -4.364912 0
M  V30 29 H -0.267571 -5.949770 -2.674915 0
M  V30 30 H 1.455139 -5.871115 -3.133682 0
M  V30 31 H 0.017284 -4.089274 -4.937045 0
M  V30 32 H 0.074913 -1.743641 -4.485691 0
M  V30 33 H 0.379606 -0.010015 -3.102652 0
M  V30 34 H 1.174553 -2.482573 -0.153139 0
M  V30 35 H 3.578122 -0.550004 0.578733 0
M  V30 36 H 4.184600 0.963083 2.427062 0
M  V30 37 H 2.498589 1.764639 3.970667 0
M  V30 38 H -2.700587 0.701691 5.878104 0
M  V30 39 H -2.774950 3.475740 6.633616 0
M  V30 40 H -1.613684 5.601287 6.239786 0
M  V30 41 H 0.353622 5.749067 4.706022 0
M  V30 42 H 1.140702 3.704279 3.564420 0
M  V30 43 H -0.528741 -0.454141 1.861487 0
M  V30 END ATOM
M  V30 BEGIN BOND
M  V30 1 1 1 2
M  V30 2 1 2 3
M  V30 3 1 3 4
M  V30 4 2 4 5
M  V30 5 1 4 6
M  V30 6 2 6 7
M  V30 7 1 7 8
M  V30 8 2 8 9
M  V30 9 1 8 10
M  V30 10 1 10 11
M  V30 11 2 11 12
M  V30 12 1 12 13
M  V30 13 2 13 14
M  V30 14 1 14 15
M  V30 15 1 15 16
M  V30 16 2 16 17
M  V30 17 1 17 18
M  V30 18 1 18 19
M  V30 19 2 19 20
M  V30 20 1 20 21
M  V30 21 2 21 22
M  V30 22 1 22 23
M  V30 23 2 23 24
M  V30 24 2 15 25
M  V30 25 1 25 11
M  V30 26 1 24 16
M  V30 27 1 24 19
M  V30 28 1 1 26
M  V30 29 1 1 27
M  V30 30 1 1 28
M  V30 31 1 2 29
M  V30 32 1 2 30
M  V30 33 1 3 31
M  V30 34 1 6 32
M  V30 35 1 7 33
M  V30 36 1 10 34
M  V30 37 1 12 35
M  V30 38 1 13 36
M  V30 39 1 14 37
M  V30 40 1 18 38
M  V30 41 1 20 39
M  V30 42 1 21 40
M  V30 43 1 22 41
M  V30 44 1 23 42
M  V30 45 1 25 43
M  V30 END BOND
M  V30 END CTAB
M  END
>  <Dataset>  (185) 
ChEMBL_Kinases

>  <Ligand_Instance>  (185) 
nan

>  <PDB_ID>  (185) 
nan

>  <Standardized_SMILES>  (185) 
CCNC(=O)/C=C\C(=O)Nc1cccc(-c2n[nH]c3ccccc23)c1

>  <Name>  (185) 
nan

>  <Pocket>  (185) 
nan

>  <ATP_Site>  (185) 
nan

>  <Peripheral>  (185) 
nan

>  <Num_H_Atoms_ProtBoundConf>  (185) 
nan

>  <Num_Resolved_Atoms>  (185) 
nan

>  <Num_Not_Resolved_Atoms>  (185) 
nan

$$$$
CHEMBL603162
     RDKit          3D

  0  0  0  0  0  0  0  0  0  0999 V3000
M  V30 BEGIN CTAB
M  V30 COUNTS 60 62 0 0 0
M  V30 BEGIN ATOM
M  V30 1 C 5.693222 -1.662218 3.016936 0
M  V30 2 N 6.136586 -1.917101 1.682918 0
M  V30 3 C 5.580211 -3.113565 1.134456 0
M  V30 4 C 6.090267 -0.787527 0.806305 0
M  V30 5 C 4.748922 -0.205660 0.628888 0
M  V30 6 C 4.364375 0.804840 1.514166 0
M  V30 7 C 3.107044 1.395751 1.399822 0
M  V30 8 C 2.238147 0.975258 0.401692 0
M  V30 9 N 0.957204 1.574806 0.286400 0
M  V30 10 C 0.424109 2.682534 -0.411287 0
M  V30 11 O 1.122439 3.418046 -1.153201 0
M  V30 12 C -0.992899 2.987279 -0.266862 0
M  V30 13 C -1.462897 4.066377 -0.974047 0
M  V30 14 C -2.816291 4.387467 -0.859088 0
M  V30 15 C -3.697418 3.662712 -0.063290 0
M  V30 16 C -3.203141 2.578549 0.641150 0
M  V30 17 C -4.154118 1.814249 1.489154 0
M  V30 18 N -4.805674 0.729533 0.758076 0
M  V30 19 C -4.211356 -0.514451 0.419189 0
M  V30 20 O -3.031108 -0.816704 0.723330 0
M  V30 21 N -4.945776 -1.499212 -0.298808 0
M  V30 22 C -4.182675 -2.675325 -0.545385 0
M  V30 23 C -3.469963 -2.670944 -1.722370 0
M  V30 24 C -2.709385 -3.777874 -2.022926 0
M  V30 25 C -2.623041 -4.881027 -1.216879 0
M  V30 26 C -3.341041 -4.885805 -0.031168 0
M  V30 27 C -3.375803 -5.966207 0.953983 0
M  V30 28 N -2.586589 -7.074777 0.610287 0
M  V30 29 O -3.986013 -6.061587 2.037748 0
M  V30 30 C -4.105658 -3.785209 0.281415 0
M  V30 31 C -1.872447 2.276955 0.517391 0
M  V30 32 C 2.620795 -0.031709 -0.480842 0
M  V30 33 C 3.878772 -0.629962 -0.374382 0
M  V30 34 H 5.903967 -2.590969 3.610917 0
M  V30 35 H 6.304033 -0.866845 3.491776 0
M  V30 36 H 4.601677 -1.507676 3.125189 0
M  V30 37 H 6.303772 -3.656920 0.458741 0
M  V30 38 H 4.579714 -3.026479 0.701909 0
M  V30 39 H 5.458191 -3.831205 1.999949 0
M  V30 40 H 6.762877 0.013909 1.145282 0
M  V30 41 H 6.389982 -1.183120 -0.209250 0
M  V30 42 H 5.039086 1.132829 2.290739 0
M  V30 43 H 2.807273 2.183669 2.089802 0
M  V30 44 H 0.442555 0.923124 0.915757 0
M  V30 45 H -0.844293 4.687754 -1.619910 0
M  V30 46 H -3.224132 5.240433 -1.408442 0
M  V30 47 H -4.745685 3.957505 -0.009939 0
M  V30 48 H -3.503868 1.364698 2.299104 0
M  V30 49 H -4.877183 2.434690 2.027005 0
M  V30 50 H -5.794037 0.902172 0.467301 0
M  V30 51 H -5.940813 -1.353630 -0.603325 0
M  V30 52 H -3.450608 -1.865455 -2.445889 0
M  V30 53 H -2.098027 -3.889790 -2.932143 0
M  V30 54 H -2.038123 -5.769379 -1.415776 0
M  V30 55 H -1.758838 -7.579807 0.245243 0
M  V30 56 H -1.664728 -7.414090 0.202508 0
M  V30 57 H -4.680906 -3.729803 1.180943 0
M  V30 58 H -1.505634 1.429117 1.075739 0
M  V30 59 H 1.918275 -0.323646 -1.233872 0
M  V30 60 H 4.183351 -1.423532 -1.067263 0
M  V30 END ATOM
M  V30 BEGIN BOND
M  V30 1 1 1 2
M  V30 2 1 2 3
M  V30 3 1 2 4
M  V30 4 1 4 5
M  V30 5 2 5 6
M  V30 6 1 6 7
M  V30 7 2 7 8
M  V30 8 1 8 9
M  V30 9 1 9 10
M  V30 10 2 10 11
M  V30 11 1 10 12
M  V30 12 2 12 13
M  V30 13 1 13 14
M  V30 14 2 14 15
M  V30 15 1 15 16
M  V30 16 1 16 17
M  V30 17 1 17 18
M  V30 18 1 18 19
M  V30 19 2 19 20
M  V30 20 1 19 21
M  V30 21 1 21 22
M  V30 22 2 22 23
M  V30 23 1 23 24
M  V30 24 2 24 25
M  V30 25 1 25 26
M  V30 26 1 26 27
M  V30 27 1 27 28
M  V30 28 2 27 29
M  V30 29 2 26 30
M  V30 30 2 16 31
M  V30 31 1 8 32
M  V30 32 2 32 33
M  V30 33 1 33 5
M  V30 34 1 31 12
M  V30 35 1 30 22
M  V30 36 1 1 34
M  V30 37 1 1 35
M  V30 38 1 1 36
M  V30 39 1 3 37
M  V30 40 1 3 38
M  V30 41 1 3 39
M  V30 42 1 4 40
M  V30 43 1 4 41
M  V30 44 1 6 42
M  V30 45 1 7 43
M  V30 46 1 9 44
M  V30 47 1 13 45
M  V30 48 1 14 46
M  V30 49 1 15 47
M  V30 50 1 17 48
M  V30 51 1 17 49
M  V30 52 1 18 50
M  V30 53 1 21 51
M  V30 54 1 23 52
M  V30 55 1 24 53
M  V30 56 1 25 54
M  V30 57 1 28 55
M  V30 58 1 28 56
M  V30 59 1 30 57
M  V30 60 1 31 58
M  V30 61 1 32 59
M  V30 62 1 33 60
M  V30 END BOND
M  V30 END CTAB
M  END
>  <Dataset>  (186) 
ChEMBL_Kinases

>  <Ligand_Instance>  (186) 
nan

>  <PDB_ID>  (186) 
nan

>  <Standardized_SMILES>  (186) 
CN(C)Cc1ccc(NC(=O)c2cccc(CNC(=O)Nc3cccc(C(N)=O)c3)c2)cc1

>  <Name>  (186) 
nan

>  <Pocket>  (186) 
nan

>  <ATP_Site>  (186) 
nan

>  <Peripheral>  (186) 
nan

>  <Num_H_Atoms_ProtBoundConf>  (186) 
nan

>  <Num_Resolved_Atoms>  (186) 
nan

>  <Num_Not_Resolved_Atoms>  (186) 
nan

$$$$
CHEMBL3901442
     RDKit          3D

  0  0  0  0  0  0  0  0  0  0999 V3000
M  V30 BEGIN CTAB
M  V30 COUNTS 48 51 0 0 0
M  V30 BEGIN ATOM
M  V30 1 C -0.392746 -6.712519 -1.959841 0
M  V30 2 C 0.565379 -6.331415 -3.065972 0
M  V30 3 C 0.897995 -4.874274 -2.977294 0
M  V30 4 C 0.127039 -3.950109 -3.649202 0
M  V30 5 C 0.453964 -2.597614 -3.553393 0
M  V30 6 C 1.543846 -2.253938 -2.782429 0
M  V30 7 C 2.033053 -0.853380 -2.571497 0
M  V30 8 C 1.423296 -0.193213 -1.411642 0
M  V30 9 C 2.018104 -0.291889 -0.149637 0
M  V30 10 C 1.402082 0.348534 0.905700 0
M  V30 11 C 0.237508 1.081630 0.804514 0
M  V30 12 C -0.379528 1.743795 1.952383 0
M  V30 13 N 0.106426 1.714153 3.206918 0
M  V30 14 C -0.704052 2.427813 4.029592 0
M  V30 15 C -0.588441 2.661953 5.386554 0
M  V30 16 C -1.591657 3.439251 5.939358 0
M  V30 17 C -1.622454 3.780720 7.350122 0
M  V30 18 N -0.695412 3.409819 8.363235 0
M  V30 19 O -2.474973 4.478498 7.983742 0
M  V30 20 C -2.640698 3.952860 5.204364 0
M  V30 21 C -2.726347 3.700038 3.850787 0
M  V30 22 C -1.733199 2.918986 3.252823 0
M  V30 23 N -1.504556 2.480882 1.981629 0
M  V30 24 C -0.338391 1.170441 -0.446901 0
M  V30 25 C 0.241638 0.542687 -1.549210 0
M  V30 26 C 2.318725 -3.195750 -2.105696 0
M  V30 27 C 1.989766 -4.537232 -2.204209 0
M  V30 28 H 0.185971 -7.009468 -1.044321 0
M  V30 29 H -0.971517 -7.599948 -2.314379 0
M  V30 30 H -1.085691 -5.888420 -1.717443 0
M  V30 31 H 0.058053 -6.564168 -4.032112 0
M  V30 32 H 1.487977 -6.930856 -2.933330 0
M  V30 33 H -0.726126 -4.221926 -4.252416 0
M  V30 34 H -0.083323 -1.794438 -4.038900 0
M  V30 35 H 3.126857 -0.806069 -2.488742 0
M  V30 36 H 1.729990 -0.254247 -3.474399 0
M  V30 37 H 2.933738 -0.852968 -0.002872 0
M  V30 38 H 1.890573 0.248708 1.859680 0
M  V30 39 H 0.213366 2.281871 6.003085 0
M  V30 40 H -0.595624 2.365966 8.204914 0
M  V30 41 H -0.572762 2.372230 8.234003 0
M  V30 42 H -3.440165 4.556532 5.575747 0
M  V30 43 H -3.482645 4.036988 3.174607 0
M  V30 44 H -2.126596 2.699994 1.170842 0
M  V30 45 H -1.251085 1.747909 -0.513354 0
M  V30 46 H -0.255326 0.646201 -2.511154 0
M  V30 47 H 3.172929 -2.962713 -1.497508 0
M  V30 48 H 2.569067 -5.299117 -1.692020 0
M  V30 END ATOM
M  V30 BEGIN BOND
M  V30 1 1 1 2
M  V30 2 1 2 3
M  V30 3 2 3 4
M  V30 4 1 4 5
M  V30 5 2 5 6
M  V30 6 1 6 7
M  V30 7 1 7 8
M  V30 8 2 8 9
M  V30 9 1 9 10
M  V30 10 2 10 11
M  V30 11 1 11 12
M  V30 12 2 12 13
M  V30 13 1 13 14
M  V30 14 2 14 15
M  V30 15 1 15 16
M  V30 16 1 16 17
M  V30 17 1 17 18
M  V30 18 2 17 19
M  V30 19 2 16 20
M  V30 20 1 20 21
M  V30 21 2 21 22
M  V30 22 1 22 23
M  V30 23 1 11 24
M  V30 24 2 24 25
M  V30 25 1 6 26
M  V30 26 2 26 27
M  V30 27 1 27 3
M  V30 28 1 25 8
M  V30 29 1 23 12
M  V30 30 1 22 14
M  V30 31 1 1 28
M  V30 32 1 1 29
M  V30 33 1 1 30
M  V30 34 1 2 31
M  V30 35 1 2 32
M  V30 36 1 4 33
M  V30 37 1 5 34
M  V30 38 1 7 35
M  V30 39 1 7 36
M  V30 40 1 9 37
M  V30 41 1 10 38
M  V30 42 1 15 39
M  V30 43 1 18 40
M  V30 44 1 18 41
M  V30 45 1 20 42
M  V30 46 1 21 43
M  V30 47 1 23 44
M  V30 48 1 24 45
M  V30 49 1 25 46
M  V30 50 1 26 47
M  V30 51 1 27 48
M  V30 END BOND
M  V30 END CTAB
M  END
>  <Dataset>  (187) 
ChEMBL_Kinases

>  <Ligand_Instance>  (187) 
nan

>  <PDB_ID>  (187) 
nan

>  <Standardized_SMILES>  (187) 
CCc1ccc(Cc2ccc(-c3nc4cc(C(N)=O)ccc4[nH]3)cc2)cc1

>  <Name>  (187) 
nan

>  <Pocket>  (187) 
nan

>  <ATP_Site>  (187) 
nan

>  <Peripheral>  (187) 
nan

>  <Num_H_Atoms_ProtBoundConf>  (187) 
nan

>  <Num_Resolved_Atoms>  (187) 
nan

>  <Num_Not_Resolved_Atoms>  (187) 
nan

$$$$
CHEMBL3901204
     RDKit          3D

  0  0  0  0  0  0  0  0  0  0999 V3000
M  V30 BEGIN CTAB
M  V30 COUNTS 38 41 0 0 0
M  V30 BEGIN ATOM
M  V30 1 F 0.989902 -6.573922 4.541573 0
M  V30 2 C 1.729236 -5.923233 3.604280 0
M  V30 3 C 2.927755 -6.487444 3.246205 0
M  V30 4 C 3.712781 -5.845025 2.285955 0
M  V30 5 F 4.902398 -6.372902 1.906723 0
M  V30 6 C 3.215802 -4.676249 1.763975 0
M  V30 7 C 2.017290 -4.087360 2.104120 0
M  V30 8 C 1.509030 -2.865629 1.551614 0
M  V30 9 C 2.008342 -2.055216 0.657764 0
M  V30 10 C 1.650478 -0.823809 0.003980 0
M  V30 11 N 2.489594 -0.275307 -0.926218 0
M  V30 12 N 1.966253 0.836178 -1.386777 0
M  V30 13 C 0.778506 1.123163 -0.831300 0
M  V30 14 C -0.167676 2.122252 -0.939268 0
M  V30 15 C -1.313074 2.074996 -0.170337 0
M  V30 16 C -2.247422 3.181934 -0.363946 0
M  V30 17 C -2.358855 3.785478 -1.601538 0
M  V30 18 C -3.261719 4.836972 -1.739140 0
M  V30 19 N -4.008343 5.258787 -0.699588 0
M  V30 20 C -3.888901 4.661041 0.499640 0
M  V30 21 C -3.015080 3.607030 0.726404 0
M  V30 22 C -1.485388 1.010279 0.702349 0
M  V30 23 C -0.529400 0.024689 0.794466 0
M  V30 24 C 0.610330 0.065430 0.033865 0
M  V30 25 C 1.271112 -4.747186 3.052303 0
M  V30 26 H 3.313541 -7.408661 3.661079 0
M  V30 27 H 3.851891 -4.211665 1.025911 0
M  V30 28 H 0.556547 -2.502480 1.892575 0
M  V30 29 H 2.961445 -2.523772 0.392338 0
M  V30 30 H 2.455856 1.405074 -2.107164 0
M  V30 31 H 0.075567 2.912382 -1.660251 0
M  V30 32 H -1.761856 3.457284 -2.456638 0
M  V30 33 H -3.331351 5.298370 -2.730634 0
M  V30 34 H -4.450788 4.942098 1.374934 0
M  V30 35 H -2.909406 3.113102 1.697084 0
M  V30 36 H -2.384005 1.007783 1.280817 0
M  V30 37 H -0.717011 -0.770218 1.484271 0
M  V30 38 H 0.311336 -4.395378 3.410756 0
M  V30 END ATOM
M  V30 BEGIN BOND
M  V30 1 1 1 2
M  V30 2 2 2 3
M  V30 3 1 3 4
M  V30 4 1 4 5
M  V30 5 2 4 6
M  V30 6 1 6 7
M  V30 7 1 7 8
M  V30 8 2 8 9
M  V30 9 1 9 10
M  V30 10 2 10 11
M  V30 11 1 11 12
M  V30 12 1 12 13
M  V30 13 2 13 14
M  V30 14 1 14 15
M  V30 15 1 15 16
M  V30 16 2 16 17
M  V30 17 1 17 18
M  V30 18 2 18 19
M  V30 19 1 19 20
M  V30 20 2 20 21
M  V30 21 2 15 22
M  V30 22 1 22 23
M  V30 23 2 23 24
M  V30 24 2 7 25
M  V30 25 1 25 2
M  V30 26 1 24 10
M  V30 27 1 24 13
M  V30 28 1 21 16
M  V30 29 1 3 26
M  V30 30 1 6 27
M  V30 31 1 8 28
M  V30 32 1 9 29
M  V30 33 1 12 30
M  V30 34 1 14 31
M  V30 35 1 17 32
M  V30 36 1 18 33
M  V30 37 1 20 34
M  V30 38 1 21 35
M  V30 39 1 22 36
M  V30 40 1 23 37
M  V30 41 1 25 38
M  V30 END BOND
M  V30 END CTAB
M  END
>  <Dataset>  (188) 
ChEMBL_Kinases

>  <Ligand_Instance>  (188) 
nan

>  <PDB_ID>  (188) 
nan

>  <Standardized_SMILES>  (188) 
Fc1cc(F)cc(/C=C/c2n[nH]c3cc(-c4ccncc4)ccc23)c1

>  <Name>  (188) 
nan

>  <Pocket>  (188) 
nan

>  <ATP_Site>  (188) 
nan

>  <Peripheral>  (188) 
nan

>  <Num_H_Atoms_ProtBoundConf>  (188) 
nan

>  <Num_Resolved_Atoms>  (188) 
nan

>  <Num_Not_Resolved_Atoms>  (188) 
nan

$$$$
CHEMBL602931
     RDKit          3D

  0  0  0  0  0  0  0  0  0  0999 V3000
M  V30 BEGIN CTAB
M  V30 COUNTS 40 43 0 0 0
M  V30 BEGIN ATOM
M  V30 1 N -2.033647 -6.273650 2.099215 0
M  V30 2 C -2.038384 -4.895128 2.435185 0
M  V30 3 O -2.490855 -5.477107 3.437510 0
M  V30 4 C -1.592414 -3.825042 1.563922 0
M  V30 5 C -1.665927 -2.548529 2.082376 0
M  V30 6 C -1.240534 -1.537165 1.242518 0
M  V30 7 C -0.786924 -1.873547 -0.016843 0
M  V30 8 C -0.357435 -0.747918 -0.837938 0
M  V30 9 C 0.438689 0.201197 -0.241439 0
M  V30 10 C 0.917982 1.317180 -0.893697 0
M  V30 11 C 1.760026 2.352355 -0.340687 0
M  V30 12 S 2.352026 3.784629 -1.160150 0
M  V30 13 C 3.275138 4.498806 0.203059 0
M  V30 14 C 3.065472 3.519394 1.315011 0
M  V30 15 C 2.294505 2.458531 0.982749 0
M  V30 16 O 2.101721 1.553148 2.011706 0
M  V30 17 C 1.952630 1.919218 3.382328 0
M  V30 18 C 2.624506 3.224730 3.681933 0
M  V30 19 O 3.531716 3.528569 2.618356 0
M  V30 20 C 0.567114 1.469572 -2.215871 0
M  V30 21 N -0.209045 0.546228 -2.802345 0
M  V30 22 C -0.676149 -0.540901 -2.167874 0
M  V30 23 N -1.506810 -1.533250 -2.786906 0
M  V30 24 C -0.739010 -3.174656 -0.475535 0
M  V30 25 C -1.151591 -4.222635 0.321667 0
M  V30 26 H -1.603220 -6.948875 1.414116 0
M  V30 27 H -1.773808 -7.134320 1.578796 0
M  V30 28 H -2.043020 -2.420546 3.084389 0
M  V30 29 H -1.279240 -0.526376 1.602301 0
M  V30 30 H 0.734420 0.116996 0.793969 0
M  V30 31 H 3.927991 5.459143 0.370797 0
M  V30 32 H 0.876617 1.999728 3.603068 0
M  V30 33 H 2.428398 1.089883 3.970459 0
M  V30 34 H 1.843710 4.024571 3.671952 0
M  V30 35 H 3.135149 3.157689 4.660555 0
M  V30 36 H 0.894792 2.316878 -2.817423 0
M  V30 37 H -1.296993 -2.252711 -3.518396 0
M  V30 38 H -2.521944 -1.817861 -2.694769 0
M  V30 39 H -0.373901 -3.382103 -1.474138 0
M  V30 40 H -1.138271 -5.254569 0.021903 0
M  V30 END ATOM
M  V30 BEGIN BOND
M  V30 1 1 1 2
M  V30 2 2 2 3
M  V30 3 1 2 4
M  V30 4 2 4 5
M  V30 5 1 5 6
M  V30 6 2 6 7
M  V30 7 1 7 8
M  V30 8 2 8 9
M  V30 9 1 9 10
M  V30 10 1 10 11
M  V30 11 1 11 12
M  V30 12 1 12 13
M  V30 13 2 13 14
M  V30 14 1 14 15
M  V30 15 1 15 16
M  V30 16 1 16 17
M  V30 17 1 17 18
M  V30 18 1 18 19
M  V30 19 2 10 20
M  V30 20 1 20 21
M  V30 21 2 21 22
M  V30 22 1 22 23
M  V30 23 1 7 24
M  V30 24 2 24 25
M  V30 25 1 25 4
M  V30 26 1 22 8
M  V30 27 2 15 11
M  V30 28 1 19 14
M  V30 29 1 1 26
M  V30 30 1 1 27
M  V30 31 1 5 28
M  V30 32 1 6 29
M  V30 33 1 9 30
M  V30 34 1 13 31
M  V30 35 1 17 32
M  V30 36 1 17 33
M  V30 37 1 18 34
M  V30 38 1 18 35
M  V30 39 1 20 36
M  V30 40 1 23 37
M  V30 41 1 23 38
M  V30 42 1 24 39
M  V30 43 1 25 40
M  V30 END BOND
M  V30 END CTAB
M  END
>  <Dataset>  (189) 
ChEMBL_Kinases

>  <Ligand_Instance>  (189) 
nan

>  <PDB_ID>  (189) 
nan

>  <Standardized_SMILES>  (189) 
NC(=O)c1ccc(-c2cc(-c3scc4c3OCCO4)cnc2N)cc1

>  <Name>  (189) 
nan

>  <Pocket>  (189) 
nan

>  <ATP_Site>  (189) 
nan

>  <Peripheral>  (189) 
nan

>  <Num_H_Atoms_ProtBoundConf>  (189) 
nan

>  <Num_Resolved_Atoms>  (189) 
nan

>  <Num_Not_Resolved_Atoms>  (189) 
nan

$$$$
CHEMBL3902691
     RDKit          3D

  0  0  0  0  0  0  0  0  0  0999 V3000
M  V30 BEGIN CTAB
M  V30 COUNTS 61 66 0 0 0
M  V30 BEGIN ATOM
M  V30 1 C 5.359005 1.359668 0.345486 0
M  V30 2 O 4.238631 1.690376 1.139346 0
M  V30 3 C 3.986947 1.020994 2.328291 0
M  V30 4 C 4.750721 0.006017 2.859848 0
M  V30 5 C 4.462222 -0.631498 4.046422 0
M  V30 6 C 3.331642 -0.243793 4.774254 0
M  V30 7 F 2.991624 -0.828458 5.946619 0
M  V30 8 C 2.578223 0.776012 4.224616 0
M  V30 9 C 2.866705 1.423611 3.024510 0
M  V30 10 C 1.926820 2.474089 2.640608 0
M  V30 11 C 2.065138 3.816521 3.015103 0
M  V30 12 C 1.096237 4.697666 2.578624 0
M  V30 13 N 0.037600 4.351284 1.823386 0
M  V30 14 C -0.099319 3.042193 1.456863 0
M  V30 15 N -1.075014 2.491864 0.712065 0
M  V30 16 C -0.737882 1.189748 0.652407 0
M  V30 17 C -1.524248 0.188786 -0.064894 0
M  V30 18 C -2.636161 0.480985 -0.713871 0
M  V30 19 C -3.237503 -0.396136 -1.738268 0
M  V30 20 C -2.459499 -0.163265 -3.041604 0
M  V30 21 C -1.110824 -0.735503 -2.587326 0
M  V30 22 C -1.465843 -1.768088 -1.526484 0
M  V30 23 C -1.137054 -1.245921 -0.123880 0
M  V30 24 N -2.936894 -1.802526 -1.557026 0
M  V30 25 C -3.970756 -2.777325 -1.468629 0
M  V30 26 O -5.210560 -2.462959 -1.524460 0
M  V30 27 C -3.948636 -4.228853 -1.310807 0
M  V30 28 N -2.630350 -4.818112 -1.221018 0
M  V30 29 C -2.719955 -6.286358 -1.100698 0
M  V30 30 C -1.420518 -6.181908 -0.299693 0
M  V30 31 O -0.307970 -5.919388 -1.113033 0
M  V30 32 C -2.075141 -4.864791 0.142565 0
M  V30 33 C 0.424027 0.912697 1.341320 0
M  V30 34 C 0.841058 2.118916 1.865964 0
M  V30 35 H 5.480444 0.279992 0.187386 0
M  V30 36 H 5.210998 1.820759 -0.653159 0
M  V30 37 H 6.291465 1.789960 0.789045 0
M  V30 38 H 5.634651 -0.284793 2.274228 0
M  V30 39 H 5.083646 -1.423605 4.433136 0
M  V30 40 H 1.704190 1.054555 4.815799 0
M  V30 41 H 2.911943 4.085392 3.617287 0
M  V30 42 H 1.219440 5.719480 2.875196 0
M  V30 43 H -1.899197 2.965810 0.282215 0
M  V30 44 H -3.147371 1.417216 -0.490820 0
M  V30 45 H -4.306421 -0.170981 -1.865522 0
M  V30 46 H -2.371574 0.920623 -3.191687 0
M  V30 47 H -2.894293 -0.723128 -3.873027 0
M  V30 48 H -0.512735 -1.139569 -3.402218 0
M  V30 49 H -0.526398 0.070355 -2.078546 0
M  V30 50 H -1.033124 -2.748985 -1.724196 0
M  V30 51 H -1.849517 -1.748507 0.595826 0
M  V30 52 H -0.094091 -1.443185 0.154147 0
M  V30 53 H -4.444348 -4.497963 -0.333363 0
M  V30 54 H -4.512303 -4.725027 -2.148053 0
M  V30 55 H -3.539815 -6.604593 -0.440307 0
M  V30 56 H -2.632490 -6.812222 -2.050384 0
M  V30 57 H -1.289568 -6.932531 0.480048 0
M  V30 58 H -0.501114 -6.010967 -2.071326 0
M  V30 59 H -2.827565 -5.078436 0.914587 0
M  V30 60 H -1.343607 -4.078979 0.363708 0
M  V30 61 H 0.908464 -0.047831 1.448828 0
M  V30 END ATOM
M  V30 BEGIN BOND
M  V30 1 1 1 2
M  V30 2 1 2 3
M  V30 3 2 3 4
M  V30 4 1 4 5
M  V30 5 2 5 6
M  V30 6 1 6 7
M  V30 7 1 6 8
M  V30 8 2 8 9
M  V30 9 1 9 10
M  V30 10 2 10 11
M  V30 11 1 11 12
M  V30 12 2 12 13
M  V30 13 1 13 14
M  V30 14 1 14 15
M  V30 15 1 15 16
M  V30 16 1 16 17
M  V30 17 2 17 18
M  V30 18 1 18 19
M  V30 19 1 19 20
M  V30 20 1 20 21
M  V30 21 1 21 22
M  V30 22 1 22 23
M  V30 23 1 22 24
M  V30 24 1 24 25
M  V30 25 2 25 26
M  V30 26 1 25 27
M  V30 27 1 27 28
M  V30 28 1 28 29
M  V30 29 1 29 30
M  V30 30 1 30 31
M  V30 31 1 30 32
M  V30 32 2 16 33
M  V30 33 1 33 34
M  V30 34 1 9 3
M  V30 35 1 34 10
M  V30 36 2 34 14
M  V30 37 1 23 17
M  V30 38 1 32 28
M  V30 39 1 24 19
M  V30 40 1 1 35
M  V30 41 1 1 36
M  V30 42 1 1 37
M  V30 43 1 4 38
M  V30 44 1 5 39
M  V30 45 1 8 40
M  V30 46 1 11 41
M  V30 47 1 12 42
M  V30 48 1 15 43
M  V30 49 1 18 44
M  V30 50 1 19 45
M  V30 51 1 20 46
M  V30 52 1 20 47
M  V30 53 1 21 48
M  V30 54 1 21 49
M  V30 55 1 22 50
M  V30 56 1 23 51
M  V30 57 1 23 52
M  V30 58 1 27 53
M  V30 59 1 27 54
M  V30 60 1 29 55
M  V30 61 1 29 56
M  V30 62 1 30 57
M  V30 63 1 31 58
M  V30 64 1 32 59
M  V30 65 1 32 60
M  V30 66 1 33 61
M  V30 END BOND
M  V30 END CTAB
M  END
>  <Dataset>  (190) 
ChEMBL_Kinases

>  <Ligand_Instance>  (190) 
nan

>  <PDB_ID>  (190) 
nan

>  <Standardized_SMILES>  (190) 
COc1ccc(F)cc1-c1ccnc2[nH]c(C3=CC4CCC(C3)N4C(=O)CN3CC(O)C3)cc12

>  <Name>  (190) 
nan

>  <Pocket>  (190) 
nan

>  <ATP_Site>  (190) 
nan

>  <Peripheral>  (190) 
nan

>  <Num_H_Atoms_ProtBoundConf>  (190) 
nan

>  <Num_Resolved_Atoms>  (190) 
nan

>  <Num_Not_Resolved_Atoms>  (190) 
nan

$$$$
CHEMBL602909
     RDKit          3D

  0  0  0  0  0  0  0  0  0  0999 V3000
M  V30 BEGIN CTAB
M  V30 COUNTS 52 54 0 0 0
M  V30 BEGIN ATOM
M  V30 1 C 1.902151 -8.253996 1.954700 0
M  V30 2 C 2.387211 -7.710841 0.632078 0
M  V30 3 O 2.284321 -6.300653 0.581265 0
M  V30 4 C 2.678980 -5.584434 -0.555182 0
M  V30 5 O 3.143619 -6.168156 -1.583230 0
M  V30 6 C 2.530536 -4.132766 -0.501454 0
M  V30 7 C 2.026570 -3.471462 0.608767 0
M  V30 8 C 1.881107 -2.097413 0.672247 0
M  V30 9 C 2.256666 -1.338881 -0.426816 0
M  V30 10 N 2.080611 0.070518 -0.294668 0
M  V30 11 C 0.815227 0.497376 -0.726294 0
M  V30 12 O 0.049670 -0.432820 -1.156601 0
M  V30 13 N 0.422506 1.884793 -0.681645 0
M  V30 14 C 1.101526 3.090901 -0.246147 0
M  V30 15 C 0.413464 3.764716 0.901377 0
M  V30 16 N -0.988969 3.418733 0.994851 0
M  V30 17 C -1.252013 2.404781 1.972306 0
M  V30 18 C -2.658049 2.016524 2.108901 0
M  V30 19 C -3.267654 1.004276 1.387386 0
M  V30 20 C -4.579008 0.611420 1.486103 0
M  V30 21 C -5.367707 1.304119 2.404803 0
M  V30 22 C -4.833243 2.325205 3.160952 0
M  V30 23 C -3.493832 2.672047 3.009807 0
M  V30 24 C -1.601393 3.211738 -0.279124 0
M  V30 25 C -0.922221 2.213769 -1.157294 0
M  V30 26 C 2.770321 -1.949631 -1.571977 0
M  V30 27 C 2.887554 -3.325972 -1.564802 0
M  V30 28 H 2.664682 -8.113368 2.764157 0
M  V30 29 H 1.739234 -9.347731 1.826129 0
M  V30 30 H 0.933296 -7.818009 2.248036 0
M  V30 31 H 1.719756 -8.109029 -0.139187 0
M  V30 32 H 3.452180 -7.952960 0.522652 0
M  V30 33 H 1.734205 -4.070412 1.466763 0
M  V30 34 H 1.479094 -1.656466 1.575926 0
M  V30 35 H 2.779505 0.760424 0.075663 0
M  V30 36 H 1.168971 3.758282 -1.106499 0
M  V30 37 H 2.114091 2.780815 0.079505 0
M  V30 38 H 0.436641 4.859016 0.718233 0
M  V30 39 H 0.934751 3.606814 1.868158 0
M  V30 40 H -0.645188 1.507819 1.667887 0
M  V30 41 H -0.898582 2.742147 2.950824 0
M  V30 42 H -2.656204 0.469569 0.677351 0
M  V30 43 H -4.953661 -0.202835 0.865178 0
M  V30 44 H -6.415706 1.012917 2.504809 0
M  V30 45 H -5.497860 2.818289 3.851370 0
M  V30 46 H -3.113816 3.483688 3.626390 0
M  V30 47 H -2.641989 2.867901 -0.099732 0
M  V30 48 H -1.652213 4.185411 -0.799330 0
M  V30 49 H -1.531500 1.293877 -1.276537 0
M  V30 50 H -0.787238 2.622686 -2.161746 0
M  V30 51 H 3.047131 -1.323251 -2.396257 0
M  V30 52 H 3.286810 -3.796026 -2.456361 0
M  V30 END ATOM
M  V30 BEGIN BOND
M  V30 1 1 1 2
M  V30 2 1 2 3
M  V30 3 1 3 4
M  V30 4 2 4 5
M  V30 5 1 4 6
M  V30 6 2 6 7
M  V30 7 1 7 8
M  V30 8 2 8 9
M  V30 9 1 9 10
M  V30 10 1 10 11
M  V30 11 2 11 12
M  V30 12 1 11 13
M  V30 13 1 13 14
M  V30 14 1 14 15
M  V30 15 1 15 16
M  V30 16 1 16 17
M  V30 17 1 17 18
M  V30 18 2 18 19
M  V30 19 1 19 20
M  V30 20 2 20 21
M  V30 21 1 21 22
M  V30 22 2 22 23
M  V30 23 1 16 24
M  V30 24 1 24 25
M  V30 25 1 9 26
M  V30 26 2 26 27
M  V30 27 1 27 6
M  V30 28 1 25 13
M  V30 29 1 23 18
M  V30 30 1 1 28
M  V30 31 1 1 29
M  V30 32 1 1 30
M  V30 33 1 2 31
M  V30 34 1 2 32
M  V30 35 1 7 33
M  V30 36 1 8 34
M  V30 37 1 10 35
M  V30 38 1 14 36
M  V30 39 1 14 37
M  V30 40 1 15 38
M  V30 41 1 15 39
M  V30 42 1 17 40
M  V30 43 1 17 41
M  V30 44 1 19 42
M  V30 45 1 20 43
M  V30 46 1 21 44
M  V30 47 1 22 45
M  V30 48 1 23 46
M  V30 49 1 24 47
M  V30 50 1 24 48
M  V30 51 1 25 49
M  V30 52 1 25 50
M  V30 53 1 26 51
M  V30 54 1 27 52
M  V30 END BOND
M  V30 END CTAB
M  END
>  <Dataset>  (191) 
ChEMBL_Kinases

>  <Ligand_Instance>  (191) 
nan

>  <PDB_ID>  (191) 
nan

>  <Standardized_SMILES>  (191) 
CCOC(=O)c1ccc(NC(=O)N2CCN(Cc3ccccc3)CC2)cc1

>  <Name>  (191) 
nan

>  <Pocket>  (191) 
nan

>  <ATP_Site>  (191) 
nan

>  <Peripheral>  (191) 
nan

>  <Num_H_Atoms_ProtBoundConf>  (191) 
nan

>  <Num_Resolved_Atoms>  (191) 
nan

>  <Num_Not_Resolved_Atoms>  (191) 
nan

$$$$
CHEMBL602753
     RDKit          3D

  0  0  0  0  0  0  0  0  0  0999 V3000
M  V30 BEGIN CTAB
M  V30 COUNTS 54 57 0 0 0
M  V30 BEGIN ATOM
M  V30 1 C 1.325182 -4.631069 3.352203 0
M  V30 2 N 0.356903 -3.765399 2.804702 0
M  V30 3 C -0.501440 -3.066766 3.683476 0
M  V30 4 C -0.067472 -1.601213 3.658424 0
M  V30 5 C 0.790926 -1.359976 2.439170 0
M  V30 6 N 0.034245 -1.422174 1.213924 0
M  V30 7 C 0.193014 -0.278954 0.402297 0
M  V30 8 N 1.205311 0.564036 0.653297 0
M  V30 9 C 1.456301 1.654876 -0.085076 0
M  V30 10 C 2.600197 2.460257 0.330676 0
M  V30 11 C 3.351107 2.085077 1.424727 0
M  V30 12 C 4.456619 2.809800 1.874193 0
M  V30 13 N 4.811698 3.926605 1.214711 0
M  V30 14 C 4.106248 4.320509 0.149206 0
M  V30 15 C 3.015008 3.611337 -0.300094 0
M  V30 16 C 0.672780 1.981694 -1.168165 0
M  V30 17 N -0.367107 1.143280 -1.449795 0
M  V30 18 C -0.574457 0.062779 -0.676311 0
M  V30 19 N -1.711635 -0.670902 -1.092585 0
M  V30 20 C -3.032850 -1.028806 -0.594857 0
M  V30 21 C -4.141685 -0.436273 -1.417778 0
M  V30 22 C -4.066208 -1.097131 -2.797220 0
M  V30 23 C -2.703308 -0.760829 -3.331957 0
M  V30 24 C -1.638925 -1.291084 -2.423353 0
M  V30 25 C -0.717283 -2.603408 1.004872 0
M  V30 26 C -0.000670 -3.889241 1.455569 0
M  V30 27 H 2.272399 -4.499354 2.759860 0
M  V30 28 H 1.093092 -5.695893 3.407705 0
M  V30 29 H 1.599329 -4.211338 4.362470 0
M  V30 30 H -1.573517 -3.077759 3.404324 0
M  V30 31 H -0.439347 -3.439962 4.745327 0
M  V30 32 H -0.938495 -0.918559 3.589483 0
M  V30 33 H 0.561706 -1.373056 4.545049 0
M  V30 34 H 1.580698 -2.147690 2.381823 0
M  V30 35 H 1.301391 -0.409029 2.562908 0
M  V30 36 H 3.115047 1.195138 1.997226 0
M  V30 37 H 5.023660 2.469330 2.752320 0
M  V30 38 H 4.436816 5.229075 -0.345502 0
M  V30 39 H 2.457393 3.941169 -1.159423 0
M  V30 40 H 0.867175 2.850337 -1.762338 0
M  V30 41 H -3.183674 -2.122528 -0.564806 0
M  V30 42 H -3.177986 -0.669571 0.453141 0
M  V30 43 H -5.091676 -0.644744 -0.927919 0
M  V30 44 H -3.949899 0.649865 -1.587625 0
M  V30 45 H -4.874577 -0.787328 -3.467119 0
M  V30 46 H -4.097006 -2.197819 -2.574677 0
M  V30 47 H -2.626586 0.354595 -3.365066 0
M  V30 48 H -2.563925 -1.215942 -4.319347 0
M  V30 49 H -1.712581 -2.373977 -2.301085 0
M  V30 50 H -0.664480 -1.070745 -2.923685 0
M  V30 51 H -1.714512 -2.538749 1.456182 0
M  V30 52 H -0.875057 -2.801883 -0.101783 0
M  V30 53 H -0.698956 -4.720718 1.224980 0
M  V30 54 H 0.912027 -4.013348 0.842019 0
M  V30 END ATOM
M  V30 BEGIN BOND
M  V30 1 1 1 2
M  V30 2 1 2 3
M  V30 3 1 3 4
M  V30 4 1 4 5
M  V30 5 1 5 6
M  V30 6 1 6 7
M  V30 7 2 7 8
M  V30 8 1 8 9
M  V30 9 1 9 10
M  V30 10 2 10 11
M  V30 11 1 11 12
M  V30 12 2 12 13
M  V30 13 1 13 14
M  V30 14 2 14 15
M  V30 15 2 9 16
M  V30 16 1 16 17
M  V30 17 2 17 18
M  V30 18 1 18 19
M  V30 19 1 19 20
M  V30 20 1 20 21
M  V30 21 1 21 22
M  V30 22 1 22 23
M  V30 23 1 23 24
M  V30 24 1 6 25
M  V30 25 1 25 26
M  V30 26 1 26 2
M  V30 27 1 18 7
M  V30 28 1 24 19
M  V30 29 1 15 10
M  V30 30 1 1 27
M  V30 31 1 1 28
M  V30 32 1 1 29
M  V30 33 1 3 30
M  V30 34 1 3 31
M  V30 35 1 4 32
M  V30 36 1 4 33
M  V30 37 1 5 34
M  V30 38 1 5 35
M  V30 39 1 11 36
M  V30 40 1 12 37
M  V30 41 1 14 38
M  V30 42 1 15 39
M  V30 43 1 16 40
M  V30 44 1 20 41
M  V30 45 1 20 42
M  V30 46 1 21 43
M  V30 47 1 21 44
M  V30 48 1 22 45
M  V30 49 1 22 46
M  V30 50 1 23 47
M  V30 51 1 23 48
M  V30 52 1 24 49
M  V30 53 1 24 50
M  V30 54 1 25 51
M  V30 55 1 25 52
M  V30 56 1 26 53
M  V30 57 1 26 54
M  V30 END BOND
M  V30 END CTAB
M  END
>  <Dataset>  (192) 
ChEMBL_Kinases

>  <Ligand_Instance>  (192) 
nan

>  <PDB_ID>  (192) 
nan

>  <Standardized_SMILES>  (192) 
CN1CCCN(c2nc(-c3ccncc3)cnc2N2CCCCC2)CC1

>  <Name>  (192) 
nan

>  <Pocket>  (192) 
nan

>  <ATP_Site>  (192) 
nan

>  <Peripheral>  (192) 
nan

>  <Num_H_Atoms_ProtBoundConf>  (192) 
nan

>  <Num_Resolved_Atoms>  (192) 
nan

>  <Num_Not_Resolved_Atoms>  (192) 
nan

$$$$
CHEMBL3906753
     RDKit          3D

  0  0  0  0  0  0  0  0  0  0999 V3000
M  V30 BEGIN CTAB
M  V30 COUNTS 53 56 0 0 0
M  V30 BEGIN ATOM
M  V30 1 C 9.124370 -1.291678 0.974188 0
M  V30 2 C 9.282738 0.024308 0.253385 0
M  V30 3 O 8.227663 0.256030 -0.661123 0
M  V30 4 C 6.907076 0.336071 -0.320880 0
M  V30 5 O 7.204084 0.137292 0.875365 0
M  V30 6 N 5.823237 0.568061 -1.211568 0
M  V30 7 C 4.509073 0.617273 -0.657808 0
M  V30 8 N 4.184563 1.880627 -0.288417 0
M  V30 9 C 2.941539 1.914812 0.233240 0
M  V30 10 C 2.061065 2.834661 0.769577 0
M  V30 11 C 0.803140 2.429743 1.216077 0
M  V30 12 C 0.424083 1.086677 1.123477 0
M  V30 13 C -0.908590 0.769294 1.622730 0
M  V30 14 O -1.798737 1.669881 1.659544 0
M  V30 15 C -1.206807 -0.583345 2.076799 0
M  V30 16 C -0.281238 -1.219040 2.877088 0
M  V30 17 C -0.560545 -2.495637 3.304033 0
M  V30 18 C -1.733770 -3.150980 2.954795 0
M  V30 19 C -2.682706 -2.542243 2.153936 0
M  V30 20 C -2.353831 -1.274778 1.758474 0
M  V30 21 C -3.336867 -0.616572 0.918330 0
M  V30 22 O -3.716570 0.367397 0.259126 0
M  V30 23 O -4.543910 -1.164481 0.508064 0
M  V30 24 C -5.482832 -0.495586 -0.310811 0
M  V30 25 C -6.623156 -1.462976 -0.491881 0
M  V30 26 C -6.499960 -2.303322 -1.596538 0
M  V30 27 C -7.516710 -3.226501 -1.831104 0
M  V30 28 C -8.607002 -3.287969 -0.977667 0
M  V30 29 C -8.707171 -2.445210 0.110294 0
M  V30 30 C -7.713587 -1.521304 0.365395 0
M  V30 31 C 1.279587 0.143790 0.593105 0
M  V30 32 C 2.515047 0.589023 0.163520 0
M  V30 33 O 3.471561 -0.132109 -0.367117 0
M  V30 34 H 10.048981 -1.903440 0.873929 0
M  V30 35 H 9.008704 -1.140559 2.086231 0
M  V30 36 H 8.304878 -1.924272 0.573628 0
M  V30 37 H 10.211566 -0.032730 -0.368044 0
M  V30 38 H 9.364485 0.829421 1.011775 0
M  V30 39 H 6.096984 0.683382 -2.210808 0
M  V30 40 H 2.393369 3.845050 0.819612 0
M  V30 41 H 0.133256 3.183395 1.633951 0
M  V30 42 H 0.626398 -0.710488 3.146727 0
M  V30 43 H 0.193086 -2.963095 3.933031 0
M  V30 44 H -1.906592 -4.162913 3.319907 0
M  V30 45 H -3.603418 -3.030451 1.868230 0
M  V30 46 H -5.083692 -0.194317 -1.298241 0
M  V30 47 H -5.900295 0.398499 0.177864 0
M  V30 48 H -5.666709 -2.277040 -2.273164 0
M  V30 49 H -7.517642 -3.933610 -2.672031 0
M  V30 50 H -9.415348 -3.976031 -1.109961 0
M  V30 51 H -9.521656 -2.440833 0.807571 0
M  V30 52 H -7.648157 -0.802199 1.165156 0
M  V30 53 H 0.983035 -0.872961 0.526610 0
M  V30 END ATOM
M  V30 BEGIN BOND
M  V30 1 1 1 2
M  V30 2 1 2 3
M  V30 3 1 3 4
M  V30 4 2 4 5
M  V30 5 1 4 6
M  V30 6 1 6 7
M  V30 7 2 7 8
M  V30 8 1 8 9
M  V30 9 2 9 10
M  V30 10 1 10 11
M  V30 11 2 11 12
M  V30 12 1 12 13
M  V30 13 2 13 14
M  V30 14 1 13 15
M  V30 15 2 15 16
M  V30 16 1 16 17
M  V30 17 2 17 18
M  V30 18 1 18 19
M  V30 19 2 19 20
M  V30 20 1 20 21
M  V30 21 2 21 22
M  V30 22 1 21 23
M  V30 23 1 23 24
M  V30 24 1 24 25
M  V30 25 2 25 26
M  V30 26 1 26 27
M  V30 27 2 27 28
M  V30 28 1 28 29
M  V30 29 2 29 30
M  V30 30 1 12 31
M  V30 31 2 31 32
M  V30 32 1 32 33
M  V30 33 1 33 7
M  V30 34 1 32 9
M  V30 35 1 20 15
M  V30 36 1 30 25
M  V30 37 1 1 34
M  V30 38 1 1 35
M  V30 39 1 1 36
M  V30 40 1 2 37
M  V30 41 1 2 38
M  V30 42 1 6 39
M  V30 43 1 10 40
M  V30 44 1 11 41
M  V30 45 1 16 42
M  V30 46 1 17 43
M  V30 47 1 18 44
M  V30 48 1 19 45
M  V30 49 1 24 46
M  V30 50 1 24 47
M  V30 51 1 26 48
M  V30 52 1 27 49
M  V30 53 1 28 50
M  V30 54 1 29 51
M  V30 55 1 30 52
M  V30 56 1 31 53
M  V30 END BOND
M  V30 END CTAB
M  END
>  <Dataset>  (193) 
ChEMBL_Kinases

>  <Ligand_Instance>  (193) 
nan

>  <PDB_ID>  (193) 
nan

>  <Standardized_SMILES>  (193) 
CCOC(=O)Nc1nc2ccc(C(=O)c3ccccc3C(=O)OCc3ccccc3)cc2o1

>  <Name>  (193) 
nan

>  <Pocket>  (193) 
nan

>  <ATP_Site>  (193) 
nan

>  <Peripheral>  (193) 
nan

>  <Num_H_Atoms_ProtBoundConf>  (193) 
nan

>  <Num_Resolved_Atoms>  (193) 
nan

>  <Num_Not_Resolved_Atoms>  (193) 
nan

$$$$
CHEMBL3901021
     RDKit          3D

  0  0  0  0  0  0  0  0  0  0999 V3000
M  V30 BEGIN CTAB
M  V30 COUNTS 55 59 0 0 0
M  V30 BEGIN ATOM
M  V30 1 C 5.267449 -2.385192 5.338140 0
M  V30 2 O 5.542885 -2.116543 3.960087 0
M  V30 3 C 4.512748 -1.684252 3.150226 0
M  V30 4 O 3.367019 -1.549355 3.684930 0
M  V30 5 N 4.703764 -1.395857 1.770543 0
M  V30 6 C 3.589701 -0.954560 1.001901 0
M  V30 7 N 2.337990 -0.786524 1.503941 0
M  V30 8 C 1.508952 -0.357888 0.510711 0
M  V30 9 C 0.158695 -0.041724 0.487622 0
M  V30 10 C -0.358282 0.365650 -0.718066 0
M  V30 11 C -1.805974 0.719780 -0.796331 0
M  V30 12 O -2.207063 0.980898 -2.086391 0
M  V30 13 C -1.915246 1.983628 0.020956 0
M  V30 14 C -1.276452 3.164278 -0.365690 0
M  V30 15 C -1.372883 4.296640 0.451275 0
M  V30 16 C -2.108965 4.179507 1.616612 0
M  V30 17 C -2.721997 2.993241 1.955313 0
M  V30 18 C -2.647265 1.876913 1.182237 0
M  V30 19 C -3.125441 0.488155 1.113654 0
M  V30 20 O -3.846213 0.158170 2.125734 0
M  V30 21 N -2.665897 -0.183004 -0.089279 0
M  V30 22 C -3.153724 -1.522101 -0.302153 0
M  V30 23 C -4.124762 -1.632612 -1.474305 0
M  V30 24 C -2.141522 -2.586232 -0.328732 0
M  V30 25 C -1.137768 -2.732583 -1.261152 0
M  V30 26 C -0.202480 -3.741434 -1.302060 0
M  V30 27 C -0.252639 -4.713518 -0.327356 0
M  V30 28 C -1.204795 -4.666815 0.643290 0
M  V30 29 C -2.096687 -3.627600 0.609666 0
M  V30 30 F -3.038854 -3.625536 1.612174 0
M  V30 31 C 0.445452 0.453738 -1.859304 0
M  V30 32 C 1.785469 0.133329 -1.808373 0
M  V30 33 C 2.318248 -0.275970 -0.610005 0
M  V30 34 N 3.575318 -0.638167 -0.306101 0
M  V30 35 H 5.786978 -1.702940 6.018416 0
M  V30 36 H 5.505111 -3.467649 5.544403 0
M  V30 37 H 4.177427 -2.289928 5.534561 0
M  V30 38 H 5.637663 -1.501509 1.317400 0
M  V30 39 H -0.453600 -0.115431 1.384210 0
M  V30 40 H -1.936413 0.317288 -2.740039 0
M  V30 41 H -0.696371 3.312729 -1.252119 0
M  V30 42 H -0.909996 5.228732 0.214852 0
M  V30 43 H -2.225916 5.013250 2.295810 0
M  V30 44 H -3.305608 2.882448 2.869251 0
M  V30 45 H -3.826707 -1.794880 0.581914 0
M  V30 46 H -4.456653 -2.683509 -1.484096 0
M  V30 47 H -4.944609 -0.916849 -1.258178 0
M  V30 48 H -3.667848 -1.388627 -2.434855 0
M  V30 49 H -1.053094 -2.013906 -2.062512 0
M  V30 50 H 0.559098 -3.790827 -2.067288 0
M  V30 51 H 0.467344 -5.510924 -0.339549 0
M  V30 52 H -1.243838 -5.417616 1.395995 0
M  V30 53 H 0.048201 0.775322 -2.821735 0
M  V30 54 H 2.377332 0.215463 -2.720469 0
M  V30 55 H 4.397799 -0.668030 -0.972442 0
M  V30 END ATOM
M  V30 BEGIN BOND
M  V30 1 1 1 2
M  V30 2 1 2 3
M  V30 3 2 3 4
M  V30 4 1 3 5
M  V30 5 1 5 6
M  V30 6 2 6 7
M  V30 7 1 7 8
M  V30 8 2 8 9
M  V30 9 1 9 10
M  V30 10 1 10 11
M  V30 11 1 11 12
M  V30 12 1 11 13
M  V30 13 2 13 14
M  V30 14 1 14 15
M  V30 15 2 15 16
M  V30 16 1 16 17
M  V30 17 2 17 18
M  V30 18 1 18 19
M  V30 19 2 19 20
M  V30 20 1 19 21
M  V30 21 1 21 22
M  V30 22 1 22 23
M  V30 23 1 22 24
M  V30 24 2 24 25
M  V30 25 1 25 26
M  V30 26 2 26 27
M  V30 27 1 27 28
M  V30 28 2 28 29
M  V30 29 1 29 30
M  V30 30 2 10 31
M  V30 31 1 31 32
M  V30 32 2 32 33
M  V30 33 1 33 34
M  V30 34 1 34 6
M  V30 35 1 33 8
M  V30 36 1 21 11
M  V30 37 1 29 24
M  V30 38 1 18 13
M  V30 39 1 1 35
M  V30 40 1 1 36
M  V30 41 1 1 37
M  V30 42 1 5 38
M  V30 43 1 9 39
M  V30 44 1 12 40
M  V30 45 1 14 41
M  V30 46 1 15 42
M  V30 47 1 16 43
M  V30 48 1 17 44
M  V30 49 1 22 45
M  V30 50 1 23 46
M  V30 51 1 23 47
M  V30 52 1 23 48
M  V30 53 1 25 49
M  V30 54 1 26 50
M  V30 55 1 27 51
M  V30 56 1 28 52
M  V30 57 1 31 53
M  V30 58 1 32 54
M  V30 59 1 34 55
M  V30 END BOND
M  V30 END CTAB
M  END
>  <Dataset>  (194) 
ChEMBL_Kinases

>  <Ligand_Instance>  (194) 
nan

>  <PDB_ID>  (194) 
nan

>  <Standardized_SMILES>  (194) 
COC(=O)Nc1nc2cc(C3(O)c4ccccc4C(=O)N3C(C)c3ccccc3F)ccc2[nH]1

>  <Name>  (194) 
nan

>  <Pocket>  (194) 
nan

>  <ATP_Site>  (194) 
nan

>  <Peripheral>  (194) 
nan

>  <Num_H_Atoms_ProtBoundConf>  (194) 
nan

>  <Num_Resolved_Atoms>  (194) 
nan

>  <Num_Not_Resolved_Atoms>  (194) 
nan

$$$$
CHEMBL3900978
     RDKit          3D

  0  0  0  0  0  0  0  0  0  0999 V3000
M  V30 BEGIN CTAB
M  V30 COUNTS 63 65 0 0 0
M  V30 BEGIN ATOM
M  V30 1 C -4.350597 3.488881 0.418120 0
M  V30 2 C -2.961592 2.835981 0.277403 0 CFG=2
M  V30 3 C -3.022516 1.416036 0.101730 0
M  V30 4 C -2.654743 0.511979 -0.765954 0
M  V30 5 C -1.971440 0.883096 -1.960839 0
M  V30 6 O -1.741255 2.113343 -2.067071 0
M  V30 7 C -1.269401 1.071342 -3.241474 0 CFG=1
M  V30 8 O -0.859240 2.405922 -3.331919 0
M  V30 9 C -0.103366 0.189060 -3.519930 0 CFG=1
M  V30 10 O 0.317850 0.456610 -4.849781 0
M  V30 11 C 1.038847 0.135353 -2.611189 0
M  V30 12 C 0.873459 -0.318985 -1.227363 0
M  V30 13 C 1.325663 0.359705 -0.213029 0
M  V30 14 C 1.384242 0.289913 1.213382 0
M  V30 15 C 2.611550 -0.341543 1.495068 0
M  V30 16 C 3.176910 -0.673685 2.736142 0
M  V30 17 C 4.415334 -1.318651 3.103180 0
M  V30 18 C 4.512593 -2.732599 3.432098 0
M  V30 19 C 4.171214 -3.803949 2.483742 0
M  V30 20 N 2.819008 -3.847332 2.054842 0
M  V30 21 C 1.899528 -3.502397 1.163794 0
M  V30 22 C 0.613677 -3.917200 1.418872 0
M  V30 23 N 0.733502 -4.583258 2.573150 0
M  V30 24 C 2.023939 -4.536133 2.934577 0
M  V30 25 C 2.373182 -0.305948 3.811645 0
M  V30 26 C 1.144573 0.325665 3.572218 0
M  V30 27 O 0.381731 0.670709 4.709437 0
M  V30 28 C 0.663001 0.615936 2.313994 0
M  V30 29 C -0.628663 1.289076 2.313186 0
M  V30 30 O -1.499990 0.748556 3.084009 0
M  V30 31 O -0.904633 2.439797 1.534535 0
M  V30 32 C -2.193948 3.041143 1.600410 0 CFG=1
M  V30 33 C -2.201409 4.447643 2.067091 0
M  V30 34 H -4.912061 3.058110 1.263515 0
M  V30 35 H -4.822812 3.386889 -0.565293 0
M  V30 36 H -4.152684 4.576841 0.578121 0
M  V30 37 H -2.442037 3.470274 -0.428296 0
M  V30 38 H -3.459461 0.698194 0.769000 0
M  V30 39 H -2.487964 -0.377966 -1.257154 0
M  V30 40 H -2.039101 0.900486 -4.099571 0
M  V30 41 H 0.062957 2.537907 -3.016582 0
M  V30 42 H -0.533217 -0.861360 -3.610669 0
M  V30 43 H -0.492486 0.671629 -5.350991 0
M  V30 44 H 1.644674 1.082469 -2.583339 0
M  V30 45 H 1.782209 -0.598678 -3.072871 0
M  V30 46 H 0.340091 -1.271557 -1.129775 0
M  V30 47 H 1.855931 1.281048 -0.406570 0
M  V30 48 H 3.331293 -0.660970 0.713037 0
M  V30 49 H 4.867508 -0.697076 3.934232 0
M  V30 50 H 5.139808 -1.127447 2.248806 0
M  V30 51 H 4.081493 -2.962679 4.479931 0
M  V30 52 H 5.629278 -2.903251 3.677608 0
M  V30 53 H 4.847586 -3.640004 1.566187 0
M  V30 54 H 4.539786 -4.820735 2.826656 0
M  V30 55 H 2.347290 -2.926930 0.335618 0
M  V30 56 H -0.164048 -3.648859 0.705258 0
M  V30 57 H 2.148302 -5.081279 3.887926 0
M  V30 58 H 2.654250 -0.486440 4.839703 0
M  V30 59 H 0.220024 -0.002206 5.461889 0
M  V30 60 H -2.757547 2.409859 2.350436 0
M  V30 61 H -3.110603 4.619927 2.685797 0
M  V30 62 H -2.204039 5.210656 1.262236 0
M  V30 63 H -1.349110 4.569102 2.763807 0
M  V30 END ATOM
M  V30 BEGIN BOND
M  V30 1 1 1 2
M  V30 2 1 2 3
M  V30 3 2 3 4
M  V30 4 1 4 5
M  V30 5 2 5 6
M  V30 6 1 5 7
M  V30 7 1 7 8
M  V30 8 1 7 9
M  V30 9 1 9 10
M  V30 10 1 9 11
M  V30 11 1 11 12
M  V30 12 2 12 13
M  V30 13 1 13 14
M  V30 14 2 14 15
M  V30 15 1 15 16
M  V30 16 1 16 17
M  V30 17 1 17 18
M  V30 18 1 18 19
M  V30 19 1 19 20
M  V30 20 1 20 21
M  V30 21 2 21 22
M  V30 22 1 22 23
M  V30 23 2 23 24
M  V30 24 2 16 25
M  V30 25 1 25 26
M  V30 26 1 26 27
M  V30 27 2 26 28
M  V30 28 1 28 29
M  V30 29 2 29 30
M  V30 30 1 29 31
M  V30 31 1 31 32
M  V30 32 1 32 33
M  V30 33 1 32 2
M  V30 34 1 28 14
M  V30 35 1 24 20
M  V30 36 1 1 34
M  V30 37 1 1 35
M  V30 38 1 1 36
M  V30 39 1 2 37 CFG=3
M  V30 40 1 3 38
M  V30 41 1 4 39
M  V30 42 1 7 40 CFG=3
M  V30 43 1 8 41
M  V30 44 1 9 42 CFG=3
M  V30 45 1 10 43
M  V30 46 1 11 44
M  V30 47 1 11 45
M  V30 48 1 12 46
M  V30 49 1 13 47
M  V30 50 1 15 48
M  V30 51 1 17 49
M  V30 52 1 17 50
M  V30 53 1 18 51
M  V30 54 1 18 52
M  V30 55 1 19 53
M  V30 56 1 19 54
M  V30 57 1 21 55
M  V30 58 1 22 56
M  V30 59 1 24 57
M  V30 60 1 25 58
M  V30 61 1 27 59
M  V30 62 1 32 60 CFG=1
M  V30 63 1 33 61
M  V30 64 1 33 62
M  V30 65 1 33 63
M  V30 END BOND
M  V30 END CTAB
M  END
>  <Dataset>  (195) 
ChEMBL_Kinases

>  <Ligand_Instance>  (195) 
nan

>  <PDB_ID>  (195) 
nan

>  <Standardized_SMILES>  (195) 
C[C@@H]1/C=C\C(=O)[C@@H](O)[C@@H](O)C/C=C/c2cc(CCCn3ccnc3)cc(O)c2C(=O)O[C@H]1C

>  <Name>  (195) 
nan

>  <Pocket>  (195) 
nan

>  <ATP_Site>  (195) 
nan

>  <Peripheral>  (195) 
nan

>  <Num_H_Atoms_ProtBoundConf>  (195) 
nan

>  <Num_Resolved_Atoms>  (195) 
nan

>  <Num_Not_Resolved_Atoms>  (195) 
nan

$$$$
CHEMBL3906984
     RDKit          3D

  0  0  0  0  0  0  0  0  0  0999 V3000
M  V30 BEGIN CTAB
M  V30 COUNTS 43 46 0 0 0
M  V30 BEGIN ATOM
M  V30 1 C 0.491755 -3.169282 -3.423149 0
M  V30 2 C 1.920847 -3.542583 -3.325619 0
M  V30 3 C 2.422793 -4.793294 -3.598890 0
M  V30 4 C 3.765921 -5.089461 -3.496331 0
M  V30 5 C 4.598855 -4.052629 -3.099136 0
M  V30 6 Cl 6.297626 -4.454683 -2.976973 0
M  V30 7 C 4.090414 -2.778680 -2.820329 0
M  V30 8 C 2.720123 -2.507432 -2.933327 0
M  V30 9 O 2.478412 -1.204000 -2.610033 0
M  V30 10 C 1.679552 -0.723258 -1.594017 0
M  V30 11 C 0.351969 -0.356672 -1.531801 0
M  V30 12 C -0.189582 0.100010 -0.349400 0
M  V30 13 C 0.561593 0.207771 0.802414 0
M  V30 14 C -0.048284 0.695617 2.034850 0
M  V30 15 N -1.331399 1.072437 2.179905 0
M  V30 16 C -1.539239 1.468342 3.465475 0
M  V30 17 C -2.678179 1.934248 4.089403 0
M  V30 18 C -2.574124 2.261517 5.426099 0
M  V30 19 C -3.665205 2.768290 6.251164 0
M  V30 20 N -5.013459 3.025120 5.877116 0
M  V30 21 O -3.636038 3.087462 7.484324 0
M  V30 22 C -1.387555 2.132483 6.118970 0
M  V30 23 C -0.256352 1.665172 5.482042 0
M  V30 24 C -0.315809 1.321899 4.129343 0
M  V30 25 N 0.562225 0.849869 3.222866 0
M  V30 26 C 1.892183 -0.152367 0.767126 0
M  V30 27 C 2.452066 -0.617749 -0.429703 0
M  V30 28 H 0.026106 -3.083326 -2.425059 0
M  V30 29 H 0.318679 -2.265388 -4.006026 0
M  V30 30 H -0.049232 -3.996665 -3.955410 0
M  V30 31 H 1.740291 -5.567110 -3.903672 0
M  V30 32 H 4.136037 -6.066982 -3.712920 0
M  V30 33 H 4.879548 -2.094597 -2.525565 0
M  V30 34 H -0.124757 -0.482481 -2.484703 0
M  V30 35 H -1.238353 0.363392 -0.398654 0
M  V30 36 H -3.622236 2.059081 3.621737 0
M  V30 37 H -5.284252 1.998673 5.825413 0
M  V30 38 H -5.450004 3.967184 5.737362 0
M  V30 39 H -1.194489 2.355788 7.152252 0
M  V30 40 H 0.703023 1.531924 5.933237 0
M  V30 41 H 1.555303 0.656551 3.481145 0
M  V30 42 H 2.427598 -0.047198 1.694737 0
M  V30 43 H 3.500594 -0.856373 -0.287472 0
M  V30 END ATOM
M  V30 BEGIN BOND
M  V30 1 1 1 2
M  V30 2 2 2 3
M  V30 3 1 3 4
M  V30 4 2 4 5
M  V30 5 1 5 6
M  V30 6 1 5 7
M  V30 7 2 7 8
M  V30 8 1 8 9
M  V30 9 1 9 10
M  V30 10 2 10 11
M  V30 11 1 11 12
M  V30 12 2 12 13
M  V30 13 1 13 14
M  V30 14 2 14 15
M  V30 15 1 15 16
M  V30 16 2 16 17
M  V30 17 1 17 18
M  V30 18 1 18 19
M  V30 19 1 19 20
M  V30 20 2 19 21
M  V30 21 2 18 22
M  V30 22 1 22 23
M  V30 23 2 23 24
M  V30 24 1 24 25
M  V30 25 1 13 26
M  V30 26 2 26 27
M  V30 27 1 8 2
M  V30 28 1 27 10
M  V30 29 1 25 14
M  V30 30 1 24 16
M  V30 31 1 1 28
M  V30 32 1 1 29
M  V30 33 1 1 30
M  V30 34 1 3 31
M  V30 35 1 4 32
M  V30 36 1 7 33
M  V30 37 1 11 34
M  V30 38 1 12 35
M  V30 39 1 17 36
M  V30 40 1 20 37
M  V30 41 1 20 38
M  V30 42 1 22 39
M  V30 43 1 23 40
M  V30 44 1 25 41
M  V30 45 1 26 42
M  V30 46 1 27 43
M  V30 END BOND
M  V30 END CTAB
M  END
>  <Dataset>  (196) 
ChEMBL_Kinases

>  <Ligand_Instance>  (196) 
nan

>  <PDB_ID>  (196) 
nan

>  <Standardized_SMILES>  (196) 
Cc1ccc(Cl)cc1Oc1ccc(-c2nc3cc(C(N)=O)ccc3[nH]2)cc1

>  <Name>  (196) 
nan

>  <Pocket>  (196) 
nan

>  <ATP_Site>  (196) 
nan

>  <Peripheral>  (196) 
nan

>  <Num_H_Atoms_ProtBoundConf>  (196) 
nan

>  <Num_Resolved_Atoms>  (196) 
nan

>  <Num_Not_Resolved_Atoms>  (196) 
nan

$$$$
CHEMBL390066
     RDKit          3D

  0  0  0  0  0  0  0  0  0  0999 V3000
M  V30 BEGIN CTAB
M  V30 COUNTS 19 20 0 0 0
M  V30 BEGIN ATOM
M  V30 1 C -1.460176 -1.857313 0.287879 0
M  V30 2 C -1.142157 -1.552069 1.591980 0
M  V30 3 C -0.056049 -0.740189 1.908768 0
M  V30 4 C 0.718863 -0.229908 0.887125 0
M  V30 5 C 1.847585 0.608528 1.275371 0
M  V30 6 C 2.733382 0.677300 2.318133 0
M  V30 7 N 3.555102 1.732600 2.084424 0
M  V30 8 N 3.227789 2.321962 0.954863 0
M  V30 9 C 2.190806 1.671294 0.425110 0
M  V30 10 C 0.426334 -0.516579 -0.423984 0
M  V30 11 C -0.668431 -1.334918 -0.734378 0
M  V30 12 H -2.301637 -2.484190 0.024710 0
M  V30 13 H -1.749319 -1.952895 2.414727 0
M  V30 14 H 0.161225 -0.527108 2.954877 0
M  V30 15 H 2.632498 -0.069033 3.096571 0
M  V30 16 H 3.712472 3.168313 0.546944 0
M  V30 17 H 1.746276 1.991056 -0.528764 0
M  V30 18 H 1.077684 -0.084876 -1.173915 0
M  V30 19 H -0.853750 -1.530348 -1.779514 0
M  V30 END ATOM
M  V30 BEGIN BOND
M  V30 1 2 1 2
M  V30 2 1 2 3
M  V30 3 2 3 4
M  V30 4 1 4 5
M  V30 5 1 5 6
M  V30 6 2 6 7
M  V30 7 1 7 8
M  V30 8 1 8 9
M  V30 9 1 4 10
M  V30 10 2 10 11
M  V30 11 1 11 1
M  V30 12 2 9 5
M  V30 13 1 1 12
M  V30 14 1 2 13
M  V30 15 1 3 14
M  V30 16 1 6 15
M  V30 17 1 8 16
M  V30 18 1 9 17
M  V30 19 1 10 18
M  V30 20 1 11 19
M  V30 END BOND
M  V30 END CTAB
M  END
>  <Dataset>  (197) 
ChEMBL_Kinases

>  <Ligand_Instance>  (197) 
nan

>  <PDB_ID>  (197) 
nan

>  <Standardized_SMILES>  (197) 
c1ccc(-c2cn[nH]c2)cc1

>  <Name>  (197) 
nan

>  <Pocket>  (197) 
nan

>  <ATP_Site>  (197) 
nan

>  <Peripheral>  (197) 
nan

>  <Num_H_Atoms_ProtBoundConf>  (197) 
nan

>  <Num_Resolved_Atoms>  (197) 
nan

>  <Num_Not_Resolved_Atoms>  (197) 
nan

$$$$
CHEMBL4878370
     RDKit          3D

  0  0  0  0  0  0  0  0  0  0999 V3000
M  V30 BEGIN CTAB
M  V30 COUNTS 58 60 0 0 0
M  V30 BEGIN ATOM
M  V30 1 C 3.007844 -5.312103 3.063867 0
M  V30 2 O 3.087614 -4.176286 2.262224 0
M  V30 3 C 1.861140 -3.813523 1.737611 0 CFG=1
M  V30 4 C 1.427812 -2.413177 2.194525 0
M  V30 5 C 2.656792 -1.540734 2.146543 0
M  V30 6 C 3.274006 -1.659814 0.777758 0 CFG=2
M  V30 7 N 3.547403 -0.309460 0.302606 0
M  V30 8 C 2.601258 0.723692 0.121374 0
M  V30 9 N 2.885500 1.950323 -0.318799 0
M  V30 10 C 1.947881 2.889353 -0.468486 0
M  V30 11 C 0.675111 2.513064 -0.141285 0
M  V30 12 C -0.343164 3.534086 -0.267491 0
M  V30 13 N 0.019794 4.834450 -0.774360 0
M  V30 14 O -1.475505 3.999912 -0.186137 0
M  V30 15 C 0.296252 1.271720 0.317760 0
M  V30 16 N -1.003887 0.838347 0.634023 0
M  V30 17 C -2.378656 1.140254 0.680454 0 CFG=2
M  V30 18 C -3.192854 0.051896 1.366754 0
M  V30 19 C -3.023643 -1.299661 0.737956 0
M  V30 20 C -2.897871 -1.112394 -0.762444 0 CFG=1
M  V30 21 C -3.292817 -2.363013 -1.512537 0
M  V30 22 C -3.744808 0.068020 -1.108181 0 CFG=2
M  V30 23 O -4.104572 0.104131 -2.452588 0
M  V30 24 C -3.004553 1.318855 -0.694860 0
M  V30 25 N 1.344328 0.436762 0.416748 0
M  V30 26 C 2.360910 -2.333040 -0.208487 0
M  V30 27 C 2.010346 -3.743663 0.227062 0
M  V30 28 H 4.016512 -5.532545 3.439147 0
M  V30 29 H 2.594158 -6.188608 2.516731 0
M  V30 30 H 2.357778 -5.116900 3.942047 0
M  V30 31 H 1.062678 -4.500811 2.061730 0
M  V30 32 H 1.011138 -2.452609 3.220745 0
M  V30 33 H 0.681021 -2.073241 1.449907 0
M  V30 34 H 3.393114 -1.886411 2.920896 0
M  V30 35 H 2.417744 -0.486043 2.397193 0
M  V30 36 H 4.249215 -2.217523 0.837261 0
M  V30 37 H 4.540769 -0.038828 0.059228 0
M  V30 38 H 2.214842 3.871909 -0.827446 0
M  V30 39 H 0.026437 5.220608 -1.762700 0
M  V30 40 H 0.370030 5.681921 -0.243389 0
M  V30 41 H -0.962203 -0.159785 1.006857 0
M  V30 42 H -2.568300 2.046224 1.273863 0
M  V30 43 H -2.820078 0.042408 2.427654 0
M  V30 44 H -4.232791 0.409741 1.413149 0
M  V30 45 H -3.990570 -1.856227 0.896451 0
M  V30 46 H -2.176201 -1.862354 1.174670 0
M  V30 47 H -1.864382 -0.878586 -1.089845 0
M  V30 48 H -2.978088 -2.225293 -2.564471 0
M  V30 49 H -2.682779 -3.193736 -1.108361 0
M  V30 50 H -4.366012 -2.619318 -1.412616 0
M  V30 51 H -4.707000 0.040616 -0.526094 0
M  V30 52 H -4.476059 -0.787326 -2.662125 0
M  V30 53 H -2.269895 1.628449 -1.458429 0
M  V30 54 H -3.771529 2.116993 -0.631288 0
M  V30 55 H 1.447862 -1.780363 -0.415002 0
M  V30 56 H 2.906987 -2.420839 -1.168456 0
M  V30 57 H 1.022629 -3.982229 -0.206043 0
M  V30 58 H 2.755921 -4.435145 -0.165606 0
M  V30 END ATOM
M  V30 BEGIN BOND
M  V30 1 1 1 2
M  V30 2 1 2 3
M  V30 3 1 3 4
M  V30 4 1 4 5
M  V30 5 1 5 6
M  V30 6 1 6 7
M  V30 7 1 7 8
M  V30 8 2 8 9
M  V30 9 1 9 10
M  V30 10 2 10 11
M  V30 11 1 11 12
M  V30 12 1 12 13
M  V30 13 2 12 14
M  V30 14 1 11 15
M  V30 15 1 15 16
M  V30 16 1 16 17
M  V30 17 1 17 18
M  V30 18 1 18 19
M  V30 19 1 19 20
M  V30 20 1 20 21
M  V30 21 1 20 22
M  V30 22 1 22 23
M  V30 23 1 22 24
M  V30 24 2 15 25
M  V30 25 1 6 26
M  V30 26 1 26 27
M  V30 27 1 27 3
M  V30 28 1 25 8
M  V30 29 1 24 17
M  V30 30 1 1 28
M  V30 31 1 1 29
M  V30 32 1 1 30
M  V30 33 1 3 31 CFG=3
M  V30 34 1 4 32
M  V30 35 1 4 33
M  V30 36 1 5 34
M  V30 37 1 5 35
M  V30 38 1 6 36 CFG=1
M  V30 39 1 7 37
M  V30 40 1 10 38
M  V30 41 1 13 39
M  V30 42 1 13 40
M  V30 43 1 16 41
M  V30 44 1 17 42 CFG=1
M  V30 45 1 18 43
M  V30 46 1 18 44
M  V30 47 1 19 45
M  V30 48 1 19 46
M  V30 49 1 20 47 CFG=1
M  V30 50 1 21 48
M  V30 51 1 21 49
M  V30 52 1 21 50
M  V30 53 1 22 51 CFG=1
M  V30 54 1 23 52
M  V30 55 1 24 53
M  V30 56 1 24 54
M  V30 57 1 26 55
M  V30 58 1 26 56
M  V30 59 1 27 57
M  V30 60 1 27 58
M  V30 END BOND
M  V30 END CTAB
M  END
>  <Dataset>  (198) 
ChEMBL_Kinases

>  <Ligand_Instance>  (198) 
nan

>  <PDB_ID>  (198) 
nan

>  <Standardized_SMILES>  (198) 
CO[C@H]1CC[C@H](Nc2ncc(C(N)=O)c(N[C@@H]3CC[C@@H](C)[C@H](O)C3)n2)CC1

>  <Name>  (198) 
nan

>  <Pocket>  (198) 
nan

>  <ATP_Site>  (198) 
nan

>  <Peripheral>  (198) 
nan

>  <Num_H_Atoms_ProtBoundConf>  (198) 
nan

>  <Num_Resolved_Atoms>  (198) 
nan

>  <Num_Not_Resolved_Atoms>  (198) 
nan

$$$$
CHEMBL3907057
     RDKit          3D

  0  0  0  0  0  0  0  0  0  0999 V3000
M  V30 BEGIN CTAB
M  V30 COUNTS 58 62 0 0 0
M  V30 BEGIN ATOM
M  V30 1 C -0.404682 -3.522996 3.982474 0
M  V30 2 C -1.238679 -2.462526 3.355568 0
M  V30 3 C -2.375474 -1.893788 3.894518 0
M  V30 4 C -3.075289 -0.912755 3.223508 0
M  V30 5 C -4.280987 -0.340961 3.844932 0
M  V30 6 C -2.655797 -0.469079 1.985896 0
M  V30 7 N -3.357583 0.546617 1.262690 0
M  V30 8 C -4.656526 0.807045 1.025634 0
M  V30 9 C -4.767224 1.938738 0.250616 0
M  V30 10 N -3.508808 2.368053 0.016588 0
M  V30 11 N -2.823780 3.332712 -0.608142 0
M  V30 12 C -1.502919 3.160815 -0.430325 0
M  V30 13 C -0.423511 3.993256 -0.947371 0
M  V30 14 C -0.723655 5.099911 -1.714769 0
M  V30 15 C 0.345449 5.855555 -2.180353 0
M  V30 16 C 1.663039 5.525516 -1.895186 0
M  V30 17 N 1.918217 4.430318 -1.137660 0
M  V30 18 C 0.881843 3.674694 -0.670600 0
M  V30 19 C -1.368825 2.028416 0.346304 0
M  V30 20 C -2.644111 1.525013 0.630012 0
M  V30 21 C -1.519092 -1.031665 1.437200 0
M  V30 22 C -0.794303 -2.028358 2.101408 0
M  V30 23 N 0.345424 -2.488360 1.384951 0
M  V30 24 C 0.278224 -3.576992 0.475569 0
M  V30 25 O -0.844954 -4.120853 0.331384 0
M  V30 26 C 1.431706 -4.085687 -0.286669 0
M  V30 27 C 1.167387 -5.170618 -1.129504 0
M  V30 28 C 2.227826 -5.691329 -1.876562 0
M  V30 29 C 1.967672 -6.819187 -2.756651 0
M  V30 30 N 1.758103 -7.725958 -3.457532 0
M  V30 31 C 3.531150 -5.189649 -1.827625 0
M  V30 32 C 3.547520 -4.149403 -0.951162 0
M  V30 33 S 5.343770 -3.310652 -0.801293 0
M  V30 34 F 5.878419 -1.521174 -1.444580 0
M  V30 35 F 6.168371 -1.991425 -0.529355 0
M  V30 36 F 6.568068 -2.913140 -0.886367 0
M  V30 37 F 6.570162 -2.215360 -1.674545 0
M  V30 38 F 5.770011 -1.503684 -2.453985 0
M  V30 39 C 2.669332 -3.502383 -0.149507 0
M  V30 40 H -0.488256 -3.484394 5.093099 0
M  V30 41 H -0.775629 -4.483729 3.562671 0
M  V30 42 H 0.678343 -3.363496 3.770799 0
M  V30 43 H -2.670293 -2.271394 4.869088 0
M  V30 44 H -5.149614 -0.984453 3.520025 0
M  V30 45 H -4.459363 0.714317 3.563972 0
M  V30 46 H -4.236734 -0.486749 4.946515 0
M  V30 47 H -5.419305 0.165804 1.426623 0
M  V30 48 H -5.720030 2.344205 -0.069190 0
M  V30 49 H -1.754944 5.346796 -1.930191 0
M  V30 50 H 0.072765 6.714318 -2.777643 0
M  V30 51 H 2.422124 6.185706 -2.309997 0
M  V30 52 H 1.173183 2.814100 -0.071192 0
M  V30 53 H -0.440877 1.609719 0.673949 0
M  V30 54 H -1.215806 -0.651866 0.448706 0
M  V30 55 H 1.260484 -2.010478 1.532409 0
M  V30 56 H 0.169277 -5.616441 -1.219344 0
M  V30 57 H 4.356215 -5.557608 -2.377499 0
M  V30 58 H 2.877576 -2.670885 0.494953 0
M  V30 END ATOM
M  V30 BEGIN BOND
M  V30 1 1 1 2
M  V30 2 2 2 3
M  V30 3 1 3 4
M  V30 4 1 4 5
M  V30 5 2 4 6
M  V30 6 1 6 7
M  V30 7 1 7 8
M  V30 8 2 8 9
M  V30 9 1 9 10
M  V30 10 1 10 11
M  V30 11 2 11 12
M  V30 12 1 12 13
M  V30 13 2 13 14
M  V30 14 1 14 15
M  V30 15 2 15 16
M  V30 16 1 16 17
M  V30 17 2 17 18
M  V30 18 1 12 19
M  V30 19 2 19 20
M  V30 20 1 6 21
M  V30 21 2 21 22
M  V30 22 1 22 23
M  V30 23 1 23 24
M  V30 24 2 24 25
M  V30 25 1 24 26
M  V30 26 2 26 27
M  V30 27 1 27 28
M  V30 28 1 28 29
M  V30 29 3 29 30
M  V30 30 2 28 31
M  V30 31 1 31 32
M  V30 32 1 32 33
M  V30 33 1 33 34
M  V30 34 1 33 35
M  V30 35 1 33 36
M  V30 36 1 33 37
M  V30 37 1 33 38
M  V30 38 2 32 39
M  V30 39 1 22 2
M  V30 40 1 39 26
M  V30 41 1 20 7
M  V30 42 1 20 10
M  V30 43 1 18 13
M  V30 44 1 1 40
M  V30 45 1 1 41
M  V30 46 1 1 42
M  V30 47 1 3 43
M  V30 48 1 5 44
M  V30 49 1 5 45
M  V30 50 1 5 46
M  V30 51 1 8 47
M  V30 52 1 9 48
M  V30 53 1 14 49
M  V30 54 1 15 50
M  V30 55 1 16 51
M  V30 56 1 18 52
M  V30 57 1 19 53
M  V30 58 1 21 54
M  V30 59 1 23 55
M  V30 60 1 27 56
M  V30 61 1 31 57
M  V30 62 1 39 58
M  V30 END BOND
M  V30 END CTAB
M  END
>  <Dataset>  (199) 
ChEMBL_Kinases

>  <Ligand_Instance>  (199) 
nan

>  <PDB_ID>  (199) 
nan

>  <Standardized_SMILES>  (199) 
Cc1cc(C)c(-n2ccn3nc(-c4cccnc4)cc23)cc1NC(=O)c1cc(C#N)cc(S(F)(F)(F)(F)F)c1

>  <Name>  (199) 
BAY-826

>  <Pocket>  (199) 
nan

>  <ATP_Site>  (199) 
nan

>  <Peripheral>  (199) 
nan

>  <Num_H_Atoms_ProtBoundConf>  (199) 
nan

>  <Num_Resolved_Atoms>  (199) 
nan

>  <Num_Not_Resolved_Atoms>  (199) 
nan

$$$$
CHEMBL3901181
     RDKit          3D

  0  0  0  0  0  0  0  0  0  0999 V3000
M  V30 BEGIN CTAB
M  V30 COUNTS 63 66 0 0 0
M  V30 BEGIN ATOM
M  V30 1 C 2.291131 0.672080 1.758578 0
M  V30 2 C 2.858361 1.979616 1.237478 0
M  V30 3 C 3.458417 2.785692 2.382699 0
M  V30 4 C 3.975414 1.628280 0.291756 0
M  V30 5 O 1.870645 2.729275 0.563893 0
M  V30 6 C 0.713210 3.168403 1.151031 0
M  V30 7 O 0.431941 2.942883 2.334753 0
M  V30 8 N -0.313464 3.925376 0.520403 0
M  V30 9 C -1.465647 4.316659 1.248063 0
M  V30 10 C -2.745173 4.336222 0.488603 0
M  V30 11 C -2.647031 4.261662 -0.978929 0
M  V30 12 C -1.409594 3.684382 -1.560155 0
M  V30 13 C -1.325096 2.185794 -1.439650 0
M  V30 14 O -1.353984 1.756117 -0.092286 0
M  V30 15 C -1.280124 0.367359 0.128510 0
M  V30 16 C -1.185930 -0.471773 -0.964278 0
M  V30 17 C -1.111406 -1.841112 -0.788577 0
M  V30 18 C -1.128498 -2.409542 0.472550 0
M  V30 19 C -1.050202 -3.856788 0.666363 0
M  V30 20 N -0.957256 -4.745128 -0.340371 0
M  V30 21 C -0.901144 -6.006180 0.128190 0
M  V30 22 C -0.802244 -7.206441 -0.565044 0
M  V30 23 C -0.761098 -8.385494 0.155743 0
M  V30 24 C -0.658485 -9.690701 -0.475672 0
M  V30 25 N -0.599599 -9.723679 -1.906236 0
M  V30 26 O -0.620883 -10.768977 0.188004 0
M  V30 27 C -0.821762 -8.285237 1.525128 0
M  V30 28 C -0.920565 -7.084759 2.215506 0
M  V30 29 C -0.961867 -5.904421 1.496798 0
M  V30 30 N -1.051359 -4.595021 1.791611 0
M  V30 31 C -1.223176 -1.555764 1.555785 0
M  V30 32 C -1.299963 -0.164369 1.403385 0
M  V30 33 C -0.219598 4.318608 -0.870244 0
M  V30 34 H 1.314319 0.781582 2.228153 0
M  V30 35 H 3.003312 0.221239 2.475875 0
M  V30 36 H 2.211362 -0.020614 0.882415 0
M  V30 37 H 4.253437 2.176619 2.849407 0
M  V30 38 H 2.723755 2.996626 3.184539 0
M  V30 39 H 3.847957 3.715310 1.922765 0
M  V30 40 H 3.897038 2.084665 -0.704589 0
M  V30 41 H 4.982808 1.865169 0.744146 0
M  V30 42 H 4.048437 0.519227 0.097851 0
M  V30 43 H -1.579742 3.648417 2.127290 0
M  V30 44 H -1.242405 5.331492 1.680505 0
M  V30 45 H -3.422418 3.502401 0.835511 0
M  V30 46 H -3.305305 5.255305 0.762279 0
M  V30 47 H -3.505550 3.668900 -1.412284 0
M  V30 48 H -2.795687 5.278816 -1.444782 0
M  V30 49 H -1.338829 3.970761 -2.618273 0
M  V30 50 H -0.365718 1.813771 -1.850152 0
M  V30 51 H -2.114033 1.699571 -2.049735 0
M  V30 52 H -1.166304 -0.112561 -1.979531 0
M  V30 53 H -1.037420 -2.507343 -1.636299 0
M  V30 54 H -0.756124 -7.255364 -1.645940 0
M  V30 55 H -1.373315 -9.685278 -2.610626 0
M  V30 56 H 0.371368 -9.797780 -2.300938 0
M  V30 57 H -0.789432 -9.215439 2.098034 0
M  V30 58 H -0.966985 -7.026834 3.292018 0
M  V30 59 H -1.113584 -4.193512 2.752462 0
M  V30 60 H -1.241014 -1.939495 2.563436 0
M  V30 61 H -1.373598 0.482054 2.271210 0
M  V30 62 H -0.341116 5.430482 -0.881138 0
M  V30 63 H 0.735354 4.016225 -1.336708 0
M  V30 END ATOM
M  V30 BEGIN BOND
M  V30 1 1 1 2
M  V30 2 1 2 3
M  V30 3 1 2 4
M  V30 4 1 2 5
M  V30 5 1 5 6
M  V30 6 2 6 7
M  V30 7 1 6 8
M  V30 8 1 8 9
M  V30 9 1 9 10
M  V30 10 1 10 11
M  V30 11 1 11 12
M  V30 12 1 12 13
M  V30 13 1 13 14
M  V30 14 1 14 15
M  V30 15 2 15 16
M  V30 16 1 16 17
M  V30 17 2 17 18
M  V30 18 1 18 19
M  V30 19 2 19 20
M  V30 20 1 20 21
M  V30 21 2 21 22
M  V30 22 1 22 23
M  V30 23 1 23 24
M  V30 24 1 24 25
M  V30 25 2 24 26
M  V30 26 2 23 27
M  V30 27 1 27 28
M  V30 28 2 28 29
M  V30 29 1 29 30
M  V30 30 1 18 31
M  V30 31 2 31 32
M  V30 32 1 12 33
M  V30 33 1 33 8
M  V30 34 1 32 15
M  V30 35 1 30 19
M  V30 36 1 29 21
M  V30 37 1 1 34
M  V30 38 1 1 35
M  V30 39 1 1 36
M  V30 40 1 3 37
M  V30 41 1 3 38
M  V30 42 1 3 39
M  V30 43 1 4 40
M  V30 44 1 4 41
M  V30 45 1 4 42
M  V30 46 1 9 43
M  V30 47 1 9 44
M  V30 48 1 10 45
M  V30 49 1 10 46
M  V30 50 1 11 47
M  V30 51 1 11 48
M  V30 52 1 12 49
M  V30 53 1 13 50
M  V30 54 1 13 51
M  V30 55 1 16 52
M  V30 56 1 17 53
M  V30 57 1 22 54
M  V30 58 1 25 55
M  V30 59 1 25 56
M  V30 60 1 27 57
M  V30 61 1 28 58
M  V30 62 1 30 59
M  V30 63 1 31 60
M  V30 64 1 32 61
M  V30 65 1 33 62
M  V30 66 1 33 63
M  V30 END BOND
M  V30 END CTAB
M  END
>  <Dataset>  (200) 
ChEMBL_Kinases

>  <Ligand_Instance>  (200) 
nan

>  <PDB_ID>  (200) 
nan

>  <Standardized_SMILES>  (200) 
CC(C)(C)OC(=O)N1CCCC(COc2ccc(-c3nc4cc(C(N)=O)ccc4[nH]3)cc2)C1

>  <Name>  (200) 
nan

>  <Pocket>  (200) 
nan

>  <ATP_Site>  (200) 
nan

>  <Peripheral>  (200) 
nan

>  <Num_H_Atoms_ProtBoundConf>  (200) 
nan

>  <Num_Resolved_Atoms>  (200) 
nan

>  <Num_Not_Resolved_Atoms>  (200) 
nan

$$$$
CHEMBL390256
     RDKit          3D

  0  0  0  0  0  0  0  0  0  0999 V3000
M  V30 BEGIN CTAB
M  V30 COUNTS 37 39 0 0 0
M  V30 BEGIN ATOM
M  V30 1 O 0.364910 -5.634151 2.695242 0
M  V30 2 C 0.524780 -4.410064 2.498308 0
M  V30 3 O -0.827504 -4.262557 2.581757 0
M  V30 4 C 1.782854 -3.694827 2.292307 0
M  V30 5 C 2.875452 -4.516916 2.335973 0
M  V30 6 C 4.112936 -3.917790 2.151787 0
M  V30 7 C 4.180487 -2.554552 1.938842 0
M  V30 8 C 3.089550 -1.735111 1.895308 0
M  V30 9 C 1.880170 -2.337867 2.077763 0
M  V30 10 N 0.671468 -1.597543 2.051690 0
M  V30 11 C 0.527294 -0.197353 1.846788 0
M  V30 12 N 0.414965 0.232871 0.574573 0
M  V30 13 C 0.268556 1.518925 0.210288 0
M  V30 14 N 0.169152 1.773693 -1.185549 0
M  V30 15 C -1.138889 1.711638 -1.797107 0
M  V30 16 C -2.221263 1.409543 -1.000499 0
M  V30 17 C -3.478622 1.348657 -1.613150 0
M  V30 18 C -3.563010 1.592446 -2.967605 0
M  V30 19 C -2.474367 1.894471 -3.758249 0
M  V30 20 C -1.204034 1.962354 -3.173324 0
M  V30 21 N 0.230927 2.455141 1.196950 0
M  V30 22 C 0.336165 2.111940 2.491830 0
M  V30 23 C 0.485329 0.782968 2.828738 0
M  V30 24 Br 0.643614 0.171123 4.640250 0
M  V30 25 H -1.443602 -4.219980 1.783316 0
M  V30 26 H 2.855264 -5.579628 2.499373 0
M  V30 27 H 5.037275 -4.490302 2.169388 0
M  V30 28 H 5.164259 -2.113611 1.797673 0
M  V30 29 H 3.095232 -0.668422 1.732029 0
M  V30 30 H -0.267960 -2.029919 2.186452 0
M  V30 31 H 1.017930 1.994769 -1.730006 0
M  V30 32 H -2.109838 1.226019 0.056350 0
M  V30 33 H -4.370889 1.117070 -1.051482 0
M  V30 34 H -4.489499 1.568773 -3.526975 0
M  V30 35 H -2.552053 2.086994 -4.839866 0
M  V30 36 H -0.296279 2.193820 -3.722708 0
M  V30 37 H 0.306884 2.850953 3.276517 0
M  V30 END ATOM
M  V30 BEGIN BOND
M  V30 1 2 1 2
M  V30 2 1 2 3
M  V30 3 1 2 4
M  V30 4 2 4 5
M  V30 5 1 5 6
M  V30 6 2 6 7
M  V30 7 1 7 8
M  V30 8 2 8 9
M  V30 9 1 9 10
M  V30 10 1 10 11
M  V30 11 2 11 12
M  V30 12 1 12 13
M  V30 13 1 13 14
M  V30 14 1 14 15
M  V30 15 2 15 16
M  V30 16 1 16 17
M  V30 17 2 17 18
M  V30 18 1 18 19
M  V30 19 2 19 20
M  V30 20 2 13 21
M  V30 21 1 21 22
M  V30 22 2 22 23
M  V30 23 1 23 24
M  V30 24 1 9 4
M  V30 25 1 23 11
M  V30 26 1 20 15
M  V30 27 1 3 25
M  V30 28 1 5 26
M  V30 29 1 6 27
M  V30 30 1 7 28
M  V30 31 1 8 29
M  V30 32 1 10 30
M  V30 33 1 14 31
M  V30 34 1 16 32
M  V30 35 1 17 33
M  V30 36 1 18 34
M  V30 37 1 19 35
M  V30 38 1 20 36
M  V30 39 1 22 37
M  V30 END BOND
M  V30 END CTAB
M  END
>  <Dataset>  (201) 
ChEMBL_Kinases

>  <Ligand_Instance>  (201) 
nan

>  <PDB_ID>  (201) 
nan

>  <Standardized_SMILES>  (201) 
O=C(O)c1ccccc1Nc1nc(Nc2ccccc2)ncc1Br

>  <Name>  (201) 
nan

>  <Pocket>  (201) 
nan

>  <ATP_Site>  (201) 
nan

>  <Peripheral>  (201) 
nan

>  <Num_H_Atoms_ProtBoundConf>  (201) 
nan

>  <Num_Resolved_Atoms>  (201) 
nan

>  <Num_Not_Resolved_Atoms>  (201) 
nan

$$$$
CHEMBL3906156
     RDKit          3D

  0  0  0  0  0  0  0  0  0  0999 V3000
M  V30 BEGIN CTAB
M  V30 COUNTS 46 50 0 0 0
M  V30 BEGIN ATOM
M  V30 1 N 0.944725 -6.226199 0.364877 0
M  V30 2 C 0.401032 -4.903823 0.346655 0
M  V30 3 N 1.025809 -3.719874 0.202629 0
M  V30 4 C 0.106003 -2.714862 0.246953 0
M  V30 5 C 0.173797 -1.336306 0.154989 0
M  V30 6 C -0.976221 -0.554351 0.239313 0
M  V30 7 C -0.959781 0.907828 0.148053 0
M  V30 8 O -2.277576 1.356722 0.275285 0
M  V30 9 C -0.435853 1.397517 -1.149780 0
M  V30 10 C -0.869999 1.038637 -2.415302 0
M  V30 11 C -0.269262 1.584649 -3.537122 0
M  V30 12 C 0.762798 2.487243 -3.404022 0
M  V30 13 C 1.164767 2.817960 -2.131986 0
M  V30 14 C 0.595988 2.299700 -0.986484 0
M  V30 15 C 0.764608 2.428980 0.458332 0
M  V30 16 O 1.679307 3.224807 0.856493 0
M  V30 17 N -0.188600 1.585831 1.139048 0
M  V30 18 C -0.159796 1.612811 2.582834 0
M  V30 19 C 0.762602 0.591051 3.136247 0
M  V30 20 C 2.086812 0.959595 3.336089 0
M  V30 21 C 3.029919 0.076321 3.852273 0
M  V30 22 C 2.673235 -1.216617 4.187926 0
M  V30 23 C 1.357325 -1.572908 3.986068 0
M  V30 24 C 0.418380 -0.707142 3.476624 0
M  V30 25 C -2.151870 -1.279948 0.418652 0
M  V30 26 C -2.273150 -2.650711 0.516289 0
M  V30 27 C -1.104099 -3.378965 0.426488 0
M  V30 28 N -0.923476 -4.710109 0.486987 0
M  V30 29 H 1.243889 -6.861093 1.140281 0
M  V30 30 H 1.199579 -6.738555 1.260498 0
M  V30 31 H 1.121832 -0.859410 0.017014 0
M  V30 32 H -2.341335 2.251099 0.685046 0
M  V30 33 H -1.677377 0.334410 -2.631270 0
M  V30 34 H -0.547678 1.358115 -4.560047 0
M  V30 35 H 1.294090 2.967242 -4.235767 0
M  V30 36 H 1.977460 3.528344 -2.004165 0
M  V30 37 H 0.033572 2.620747 3.001059 0
M  V30 38 H -1.184952 1.335642 2.951267 0
M  V30 39 H 2.516653 1.924658 3.125547 0
M  V30 40 H 4.066077 0.325759 4.021365 0
M  V30 41 H 3.394832 -1.912356 4.589357 0
M  V30 42 H 1.036858 -2.585669 4.239040 0
M  V30 43 H -0.613356 -0.985362 3.318049 0
M  V30 44 H -3.051211 -0.670265 0.484762 0
M  V30 45 H -3.261766 -3.059482 0.654785 0
M  V30 46 H -1.676294 -5.418130 0.616674 0
M  V30 END ATOM
M  V30 BEGIN BOND
M  V30 1 1 1 2
M  V30 2 2 2 3
M  V30 3 1 3 4
M  V30 4 2 4 5
M  V30 5 1 5 6
M  V30 6 1 6 7
M  V30 7 1 7 8
M  V30 8 1 7 9
M  V30 9 2 9 10
M  V30 10 1 10 11
M  V30 11 2 11 12
M  V30 12 1 12 13
M  V30 13 2 13 14
M  V30 14 1 14 15
M  V30 15 2 15 16
M  V30 16 1 15 17
M  V30 17 1 17 18
M  V30 18 1 18 19
M  V30 19 2 19 20
M  V30 20 1 20 21
M  V30 21 2 21 22
M  V30 22 1 22 23
M  V30 23 2 23 24
M  V30 24 2 6 25
M  V30 25 1 25 26
M  V30 26 2 26 27
M  V30 27 1 27 28
M  V30 28 1 28 2
M  V30 29 1 27 4
M  V30 30 1 17 7
M  V30 31 1 24 19
M  V30 32 1 14 9
M  V30 33 1 1 29
M  V30 34 1 1 30
M  V30 35 1 5 31
M  V30 36 1 8 32
M  V30 37 1 10 33
M  V30 38 1 11 34
M  V30 39 1 12 35
M  V30 40 1 13 36
M  V30 41 1 18 37
M  V30 42 1 18 38
M  V30 43 1 20 39
M  V30 44 1 21 40
M  V30 45 1 22 41
M  V30 46 1 23 42
M  V30 47 1 24 43
M  V30 48 1 25 44
M  V30 49 1 26 45
M  V30 50 1 28 46
M  V30 END BOND
M  V30 END CTAB
M  END
>  <Dataset>  (202) 
ChEMBL_Kinases

>  <Ligand_Instance>  (202) 
nan

>  <PDB_ID>  (202) 
nan

>  <Standardized_SMILES>  (202) 
Nc1nc2cc(C3(O)c4ccccc4C(=O)N3Cc3ccccc3)ccc2[nH]1

>  <Name>  (202) 
nan

>  <Pocket>  (202) 
nan

>  <ATP_Site>  (202) 
nan

>  <Peripheral>  (202) 
nan

>  <Num_H_Atoms_ProtBoundConf>  (202) 
nan

>  <Num_Resolved_Atoms>  (202) 
nan

>  <Num_Not_Resolved_Atoms>  (202) 
nan

$$$$
CHEMBL3906161
     RDKit          3D

  0  0  0  0  0  0  0  0  0  0999 V3000
M  V30 BEGIN CTAB
M  V30 COUNTS 41 44 0 0 0
M  V30 BEGIN ATOM
M  V30 1 N 0.962626 -6.887620 7.550474 0
M  V30 2 C 1.246131 -6.378893 6.554466 0
M  V30 3 C 1.595353 -5.766210 5.304654 0
M  V30 4 C 2.676937 -4.900406 5.187467 0
M  V30 5 C 2.944583 -4.353819 3.949409 0
M  V30 6 C 2.187786 -4.627726 2.823910 0
M  V30 7 O 2.478959 -4.070653 1.613675 0
M  V30 8 C 1.969657 -2.864546 1.149657 0
M  V30 9 C 0.780764 -2.852089 0.424732 0
M  V30 10 C 0.302131 -1.636111 -0.021885 0
M  V30 11 C 0.929337 -0.425582 0.204994 0
M  V30 12 C 0.391097 0.839724 -0.284179 0
M  V30 13 N -0.742755 0.938254 -0.986584 0
M  V30 14 C -0.985103 2.240568 -1.300459 0
M  V30 15 C -1.965239 2.926180 -1.984373 0
M  V30 16 C -1.906360 4.286431 -2.122393 0
M  V30 17 C -2.939709 5.015416 -2.844210 0
M  V30 18 N -4.035753 4.317538 -3.421752 0
M  V30 19 O -2.888222 6.284525 -2.975135 0
M  V30 20 C -0.852086 4.987140 -1.570549 0
M  V30 21 C 0.155650 4.341007 -0.874889 0
M  V30 22 C 0.075839 2.952463 -0.745986 0
M  V30 23 N 0.899727 2.076061 -0.132746 0
M  V30 24 C 2.103974 -0.491464 0.928072 0
M  V30 25 C 2.636289 -1.672884 1.402933 0
M  V30 26 C 1.133937 -5.492995 3.016915 0
M  V30 27 C 0.792942 -6.084063 4.211137 0
M  V30 28 H 3.289158 -4.667753 6.057668 0
M  V30 29 H 3.810392 -3.676977 3.914703 0
M  V30 30 H 0.258656 -3.773284 0.224821 0
M  V30 31 H -0.622875 -1.640219 -0.584143 0
M  V30 32 H -2.775976 2.350148 -2.403988 0
M  V30 33 H -4.764036 3.675312 -3.034478 0
M  V30 34 H -4.240290 4.397976 -4.439480 0
M  V30 35 H -0.759049 6.061557 -1.651256 0
M  V30 36 H 0.981029 4.877758 -0.441348 0
M  V30 37 H 1.786021 2.323667 0.374813 0
M  V30 38 H 2.622681 0.435404 1.125193 0
M  V30 39 H 3.543499 -1.692153 1.957358 0
M  V30 40 H 0.530676 -5.716511 2.138633 0
M  V30 41 H -0.055545 -6.751220 4.259230 0
M  V30 END ATOM
M  V30 BEGIN BOND
M  V30 1 3 1 2
M  V30 2 1 2 3
M  V30 3 2 3 4
M  V30 4 1 4 5
M  V30 5 2 5 6
M  V30 6 1 6 7
M  V30 7 1 7 8
M  V30 8 2 8 9
M  V30 9 1 9 10
M  V30 10 2 10 11
M  V30 11 1 11 12
M  V30 12 2 12 13
M  V30 13 1 13 14
M  V30 14 2 14 15
M  V30 15 1 15 16
M  V30 16 1 16 17
M  V30 17 1 17 18
M  V30 18 2 17 19
M  V30 19 2 16 20
M  V30 20 1 20 21
M  V30 21 2 21 22
M  V30 22 1 22 23
M  V30 23 1 11 24
M  V30 24 2 24 25
M  V30 25 1 6 26
M  V30 26 2 26 27
M  V30 27 1 27 3
M  V30 28 1 25 8
M  V30 29 1 23 12
M  V30 30 1 22 14
M  V30 31 1 4 28
M  V30 32 1 5 29
M  V30 33 1 9 30
M  V30 34 1 10 31
M  V30 35 1 15 32
M  V30 36 1 18 33
M  V30 37 1 18 34
M  V30 38 1 20 35
M  V30 39 1 21 36
M  V30 40 1 23 37
M  V30 41 1 24 38
M  V30 42 1 25 39
M  V30 43 1 26 40
M  V30 44 1 27 41
M  V30 END BOND
M  V30 END CTAB
M  END
>  <Dataset>  (203) 
ChEMBL_Kinases

>  <Ligand_Instance>  (203) 
nan

>  <PDB_ID>  (203) 
nan

>  <Standardized_SMILES>  (203) 
N#Cc1ccc(Oc2ccc(-c3nc4cc(C(N)=O)ccc4[nH]3)cc2)cc1

>  <Name>  (203) 
nan

>  <Pocket>  (203) 
nan

>  <ATP_Site>  (203) 
nan

>  <Peripheral>  (203) 
nan

>  <Num_H_Atoms_ProtBoundConf>  (203) 
nan

>  <Num_Resolved_Atoms>  (203) 
nan

>  <Num_Not_Resolved_Atoms>  (203) 
nan

$$$$
CHEMBL3902533
     RDKit          3D

  0  0  0  0  0  0  0  0  0  0999 V3000
M  V30 BEGIN CTAB
M  V30 COUNTS 51 54 0 0 0
M  V30 BEGIN ATOM
M  V30 1 C 1.891753 3.372517 -2.231954 0
M  V30 2 C 3.044934 3.152284 -1.312531 0
M  V30 3 N 3.517204 1.780054 -1.235082 0
M  V30 4 N 4.497667 1.215070 -1.974001 0
M  V30 5 C 4.678437 -0.065918 -1.641674 0
M  V30 6 C 3.746570 -0.298879 -0.633344 0
M  V30 7 C 3.546292 -1.497125 0.017465 0
M  V30 8 C 2.555589 -1.407991 0.932691 0
M  V30 9 N 1.861268 -0.283525 1.172808 0
M  V30 10 C 2.014083 0.895156 0.575920 0
M  V30 11 C 3.016464 0.844140 -0.370243 0
M  V30 12 C 1.229861 2.073721 0.907447 0
M  V30 13 C 0.327845 1.831948 2.092223 0 CFG=2
M  V30 14 O 1.020086 1.304668 3.180341 0
M  V30 15 C -0.942595 1.078495 1.904332 0
M  V30 16 O -0.840372 -0.246818 1.595106 0
M  V30 17 C -2.039108 -0.940676 1.632590 0
M  V30 18 C -1.826446 -2.410339 1.145984 0 CFG=2
M  V30 19 C -3.017072 -3.192271 1.112670 0
M  V30 20 C -4.257944 -2.613656 1.273020 0
M  V30 21 C -5.355662 -3.445245 1.226903 0
M  V30 22 C -5.223096 -4.814155 1.026935 0
M  V30 23 C -3.967636 -5.386900 0.866481 0
M  V30 24 Cl -3.775937 -7.105988 0.613415 0
M  V30 25 C -2.875401 -4.540719 0.914950 0
M  V30 26 N -0.767122 -3.024999 1.984032 0
M  V30 27 C 0.679956 -3.018942 2.205569 0
M  V30 28 O 0.252034 -2.245070 1.344953 0
M  V30 29 N 1.927208 -2.408097 1.787723 0
M  V30 30 H 1.324378 2.400339 -2.254935 0
M  V30 31 H 2.112099 3.617853 -3.267832 0
M  V30 32 H 1.165816 4.131728 -1.851691 0
M  V30 33 H 3.122602 3.748596 -0.414774 0
M  V30 34 H 3.887636 3.655538 -1.907938 0
M  V30 35 H 5.384267 -0.779305 -2.051245 0
M  V30 36 H 3.979840 -2.465232 -0.020276 0
M  V30 37 H 0.518357 2.274919 0.076352 0
M  V30 38 H 1.811505 2.951569 1.235257 0
M  V30 39 H -0.022686 2.845507 2.513948 0
M  V30 40 H 0.792296 0.337279 3.339655 0
M  V30 41 H -1.487106 1.175500 2.884704 0
M  V30 42 H -1.570010 1.634227 1.144390 0
M  V30 43 H -2.531286 -0.971215 2.607510 0
M  V30 44 H -2.708888 -0.426726 0.915133 0
M  V30 45 H -1.430762 -2.240035 0.127460 0
M  V30 46 H -4.329119 -1.546917 1.427099 0
M  V30 47 H -6.342716 -3.033908 1.347746 0
M  V30 48 H -6.075377 -5.499270 0.985902 0
M  V30 49 H -1.912670 -5.026636 0.785279 0
M  V30 50 H -1.108470 -3.735675 2.706617 0
M  V30 51 H 2.749139 -2.775585 2.281573 0
M  V30 END ATOM
M  V30 BEGIN BOND
M  V30 1 1 1 2
M  V30 2 1 2 3
M  V30 3 1 3 4
M  V30 4 2 4 5
M  V30 5 1 5 6
M  V30 6 2 6 7
M  V30 7 1 7 8
M  V30 8 2 8 9
M  V30 9 1 9 10
M  V30 10 2 10 11
M  V30 11 1 10 12
M  V30 12 1 12 13
M  V30 13 1 13 14
M  V30 14 1 13 15
M  V30 15 1 15 16
M  V30 16 1 16 17
M  V30 17 1 17 18
M  V30 18 1 18 19
M  V30 19 2 19 20
M  V30 20 1 20 21
M  V30 21 2 21 22
M  V30 22 1 22 23
M  V30 23 1 23 24
M  V30 24 2 23 25
M  V30 25 1 18 26
M  V30 26 1 26 27
M  V30 27 2 27 28
M  V30 28 1 27 29
M  V30 29 1 11 3
M  V30 30 1 25 19
M  V30 31 1 11 6
M  V30 32 1 29 8
M  V30 33 1 1 30
M  V30 34 1 1 31
M  V30 35 1 1 32
M  V30 36 1 2 33
M  V30 37 1 2 34
M  V30 38 1 5 35
M  V30 39 1 7 36
M  V30 40 1 12 37
M  V30 41 1 12 38
M  V30 42 1 13 39 CFG=1
M  V30 43 1 14 40
M  V30 44 1 15 41
M  V30 45 1 15 42
M  V30 46 1 17 43
M  V30 47 1 17 44
M  V30 48 1 18 45 CFG=3
M  V30 49 1 20 46
M  V30 50 1 21 47
M  V30 51 1 22 48
M  V30 52 1 25 49
M  V30 53 1 26 50
M  V30 54 1 29 51
M  V30 END BOND
M  V30 END CTAB
M  END
>  <Dataset>  (204) 
ChEMBL_Kinases

>  <Ligand_Instance>  (204) 
nan

>  <PDB_ID>  (204) 
nan

>  <Standardized_SMILES>  (204) 
CCn1ncc2cc3nc(c21)C[C@H](O)COC[C@H](c1cccc(Cl)c1)NC(=O)N3

>  <Name>  (204) 
nan

>  <Pocket>  (204) 
nan

>  <ATP_Site>  (204) 
nan

>  <Peripheral>  (204) 
nan

>  <Num_H_Atoms_ProtBoundConf>  (204) 
nan

>  <Num_Resolved_Atoms>  (204) 
nan

>  <Num_Not_Resolved_Atoms>  (204) 
nan

$$$$
CHEMBL4878227
     RDKit          3D

  0  0  0  0  0  0  0  0  0  0999 V3000
M  V30 BEGIN CTAB
M  V30 COUNTS 58 63 0 0 0
M  V30 BEGIN ATOM
M  V30 1 C 4.389090 -4.035022 3.868033 0
M  V30 2 O 3.260074 -4.379495 3.126612 0
M  V30 3 C 2.589293 -3.430725 2.340174 0
M  V30 4 C 2.991480 -2.116966 2.247061 0
M  V30 5 C 2.262680 -1.236056 1.437568 0
M  V30 6 C 2.676958 0.158900 1.329121 0
M  V30 7 N 3.940583 0.639025 1.148530 0
M  V30 8 N 3.938312 1.961191 1.096214 0
M  V30 9 C 2.696401 2.424425 1.236494 0
M  V30 10 C 2.116551 3.679282 1.260670 0
M  V30 11 C 0.752644 3.864662 1.427595 0
M  V30 12 C -0.064750 2.737179 1.576914 0
M  V30 13 C -1.528354 2.843085 1.759751 0
M  V30 14 N -2.255217 3.629325 2.592535 0
M  V30 15 N -3.543828 3.353738 2.380500 0
M  V30 16 C -3.619138 2.401460 1.421304 0
M  V30 17 N -2.362789 2.082718 1.033931 0
M  V30 18 C -2.187199 1.091178 0.022044 0
M  V30 19 C -2.665588 -0.238201 0.587546 0
M  V30 20 C -3.164462 1.402521 -1.119046 0
M  V30 21 C 0.552527 1.493544 1.547508 0
M  V30 22 C 1.891222 1.304816 1.383940 0
M  V30 23 C 1.174288 -1.748020 0.776786 0
M  V30 24 C 0.762390 -3.071676 0.865597 0
M  V30 25 N -0.406662 -3.432572 0.099129 0
M  V30 26 C -1.541578 -4.049500 0.437400 0
M  V30 27 N -2.329451 -4.152098 -0.650046 0
M  V30 28 C -1.668552 -3.586954 -1.682940 0
M  V30 29 C -2.151209 -3.465629 -3.096871 0
M  V30 30 C -1.812466 -2.240847 -3.841749 0
M  V30 31 C -1.185320 -3.550899 -4.216746 0
M  V30 32 C -0.443119 -3.122124 -1.230897 0
M  V30 33 C 1.492667 -3.929607 1.669305 0
M  V30 34 H 4.136841 -3.649038 4.894563 0
M  V30 35 H 4.924873 -5.003813 4.090281 0
M  V30 36 H 5.089686 -3.383341 3.335117 0
M  V30 37 H 3.863783 -1.787642 2.800953 0
M  V30 38 H 4.800179 2.558002 0.962318 0
M  V30 39 H 2.719249 4.545103 1.149197 0
M  V30 40 H 0.290513 4.852777 1.447350 0
M  V30 41 H -4.612256 2.063921 1.131327 0
M  V30 42 H -1.196162 1.050832 -0.435749 0
M  V30 43 H -2.219271 -0.447891 1.570010 0
M  V30 44 H -3.760066 -0.123154 0.760199 0
M  V30 45 H -2.538204 -1.055692 -0.150572 0
M  V30 46 H -4.185431 1.269469 -0.718641 0
M  V30 47 H -3.024648 2.441000 -1.441309 0
M  V30 48 H -3.019672 0.651679 -1.909860 0
M  V30 49 H -0.094974 0.665080 1.663198 0
M  V30 50 H 0.634528 -1.064766 0.168016 0
M  V30 51 H -1.624835 -4.343391 1.471627 0
M  V30 52 H -3.159578 -3.892661 -3.287819 0
M  V30 53 H -2.543159 -1.827785 -4.591982 0
M  V30 54 H -1.082908 -1.484687 -3.492204 0
M  V30 55 H -1.530589 -4.032155 -5.166783 0
M  V30 56 H -0.108272 -3.747395 -4.026347 0
M  V30 57 H 0.283701 -2.619278 -1.885020 0
M  V30 58 H 1.143803 -4.953681 1.715429 0
M  V30 END ATOM
M  V30 BEGIN BOND
M  V30 1 1 1 2
M  V30 2 1 2 3
M  V30 3 2 3 4
M  V30 4 1 4 5
M  V30 5 1 5 6
M  V30 6 2 6 7
M  V30 7 1 7 8
M  V30 8 1 8 9
M  V30 9 2 9 10
M  V30 10 1 10 11
M  V30 11 2 11 12
M  V30 12 1 12 13
M  V30 13 2 13 14
M  V30 14 1 14 15
M  V30 15 2 15 16
M  V30 16 1 16 17
M  V30 17 1 17 18
M  V30 18 1 18 19
M  V30 19 1 18 20
M  V30 20 1 12 21
M  V30 21 2 21 22
M  V30 22 2 5 23
M  V30 23 1 23 24
M  V30 24 1 24 25
M  V30 25 1 25 26
M  V30 26 2 26 27
M  V30 27 1 27 28
M  V30 28 1 28 29
M  V30 29 1 29 30
M  V30 30 1 30 31
M  V30 31 2 28 32
M  V30 32 2 24 33
M  V30 33 1 33 3
M  V30 34 1 22 6
M  V30 35 1 32 25
M  V30 36 1 22 9
M  V30 37 1 31 29
M  V30 38 1 17 13
M  V30 39 1 1 34
M  V30 40 1 1 35
M  V30 41 1 1 36
M  V30 42 1 4 37
M  V30 43 1 8 38
M  V30 44 1 10 39
M  V30 45 1 11 40
M  V30 46 1 16 41
M  V30 47 1 18 42
M  V30 48 1 19 43
M  V30 49 1 19 44
M  V30 50 1 19 45
M  V30 51 1 20 46
M  V30 52 1 20 47
M  V30 53 1 20 48
M  V30 54 1 21 49
M  V30 55 1 23 50
M  V30 56 1 26 51
M  V30 57 1 29 52
M  V30 58 1 30 53
M  V30 59 1 30 54
M  V30 60 1 31 55
M  V30 61 1 31 56
M  V30 62 1 32 57
M  V30 63 1 33 58
M  V30 END BOND
M  V30 END CTAB
M  END
>  <Dataset>  (205) 
ChEMBL_Kinases

>  <Ligand_Instance>  (205) 
nan

>  <PDB_ID>  (205) 
nan

>  <Standardized_SMILES>  (205) 
COc1cc(-c2n[nH]c3ccc(-c4nncn4C(C)C)cc23)cc(-n2cnc(C3CC3)c2)c1

>  <Name>  (205) 
nan

>  <Pocket>  (205) 
nan

>  <ATP_Site>  (205) 
nan

>  <Peripheral>  (205) 
nan

>  <Num_H_Atoms_ProtBoundConf>  (205) 
nan

>  <Num_Resolved_Atoms>  (205) 
nan

>  <Num_Not_Resolved_Atoms>  (205) 
nan

$$$$
CHEMBL390222
     RDKit          3D

  0  0  0  0  0  0  0  0  0  0999 V3000
M  V30 BEGIN CTAB
M  V30 COUNTS 56 60 0 0 0
M  V30 BEGIN ATOM
M  V30 1 C 2.018867 -5.733828 3.492323 0
M  V30 2 C 2.272830 -4.269041 3.375203 0 CFG=1
M  V30 3 C 1.081005 -3.442513 3.005906 0
M  V30 4 C 1.574562 -2.070911 2.594851 0
M  V30 5 C 2.387912 -1.356928 3.638526 0 CFG=2
M  V30 6 N 3.234925 -0.411353 3.042565 0
M  V30 7 C 2.854526 0.715592 2.352515 0
M  V30 8 C 2.093938 0.660270 1.114024 0
M  V30 9 C 2.827423 0.459977 -0.066859 0
M  V30 10 C 2.315163 0.403362 -1.345120 0
M  V30 11 C 0.957580 0.553266 -1.523058 0
M  V30 12 C 0.177257 0.753541 -0.404140 0
M  V30 13 C 0.724194 0.804277 0.857353 0
M  V30 14 C -1.287426 0.905830 -0.707199 0
M  V30 15 C -1.267729 0.765536 -2.191420 0
M  V30 16 C -2.087013 0.763488 -3.301112 0
M  V30 17 C -3.522323 0.944497 -3.259225 0
M  V30 18 C -4.327333 0.113633 -4.003721 0
M  V30 19 C -5.684801 0.327340 -3.928665 0
M  V30 20 C -6.127830 1.344268 -3.123868 0
M  V30 21 N -7.508979 1.564316 -3.046578 0
M  V30 22 C -5.324277 2.196651 -2.361791 0
M  V30 23 C -3.958777 1.969428 -2.447379 0
M  V30 24 N -1.300802 0.566559 -4.374614 0
M  V30 25 N -0.032744 0.446719 -3.979660 0
M  V30 26 C 0.022360 0.564524 -2.640306 0
M  V30 27 C 3.304833 -2.295953 4.417184 0
M  V30 28 C 2.774587 -3.646217 4.680903 0
M  V30 29 H 2.519348 -6.070572 4.431470 0
M  V30 30 H 0.958061 -5.990491 3.462657 0
M  V30 31 H 2.566021 -6.252163 2.680137 0
M  V30 32 H 3.057124 -4.053762 2.616026 0
M  V30 33 H 0.511495 -3.840784 2.149928 0
M  V30 34 H 0.449194 -3.316997 3.909811 0
M  V30 35 H 0.632941 -1.498234 2.411304 0
M  V30 36 H 2.204341 -2.179608 1.687941 0
M  V30 37 H 1.709902 -0.935710 4.427422 0
M  V30 38 H 4.126471 -0.254802 3.570439 0
M  V30 39 H 3.806842 1.291765 2.092406 0
M  V30 40 H 2.338475 1.499004 3.022946 0
M  V30 41 H 3.914799 0.331290 -0.018794 0
M  V30 42 H 2.938669 0.245696 -2.211160 0
M  V30 43 H 0.165870 0.959837 1.790725 0
M  V30 44 H -1.822108 0.099008 -0.202506 0
M  V30 45 H -1.577048 1.916555 -0.365347 0
M  V30 46 H -3.941292 -0.677325 -4.626059 0
M  V30 47 H -6.388702 -0.276520 -4.478452 0
M  V30 48 H -8.375723 1.144156 -2.611638 0
M  V30 49 H -8.522333 1.745918 -3.003838 0
M  V30 50 H -5.759029 2.975957 -1.751945 0
M  V30 51 H -3.306666 2.604697 -1.876298 0
M  V30 52 H 0.803517 0.286362 -4.594348 0
M  V30 53 H 4.287709 -2.361726 3.904469 0
M  V30 54 H 3.526517 -1.798044 5.403800 0
M  V30 55 H 1.988349 -3.706035 5.445971 0
M  V30 56 H 3.618834 -4.289663 4.989144 0
M  V30 END ATOM
M  V30 BEGIN BOND
M  V30 1 1 1 2
M  V30 2 1 2 3
M  V30 3 1 3 4
M  V30 4 1 4 5
M  V30 5 1 5 6
M  V30 6 1 6 7
M  V30 7 1 7 8
M  V30 8 2 8 9
M  V30 9 1 9 10
M  V30 10 2 10 11
M  V30 11 1 11 12
M  V30 12 2 12 13
M  V30 13 1 12 14
M  V30 14 1 14 15
M  V30 15 1 15 16
M  V30 16 1 16 17
M  V30 17 2 17 18
M  V30 18 1 18 19
M  V30 19 2 19 20
M  V30 20 1 20 21
M  V30 21 1 20 22
M  V30 22 2 22 23
M  V30 23 2 16 24
M  V30 24 1 24 25
M  V30 25 1 25 26
M  V30 26 1 5 27
M  V30 27 1 27 28
M  V30 28 1 28 2
M  V30 29 1 13 8
M  V30 30 2 26 15
M  V30 31 1 26 11
M  V30 32 1 23 17
M  V30 33 1 1 29
M  V30 34 1 1 30
M  V30 35 1 1 31
M  V30 36 1 2 32 CFG=3
M  V30 37 1 3 33
M  V30 38 1 3 34
M  V30 39 1 4 35
M  V30 40 1 4 36
M  V30 41 1 5 37 CFG=1
M  V30 42 1 6 38
M  V30 43 1 7 39
M  V30 44 1 7 40
M  V30 45 1 9 41
M  V30 46 1 10 42
M  V30 47 1 13 43
M  V30 48 1 14 44
M  V30 49 1 14 45
M  V30 50 1 18 46
M  V30 51 1 19 47
M  V30 52 1 21 48
M  V30 53 1 21 49
M  V30 54 1 22 50
M  V30 55 1 23 51
M  V30 56 1 25 52
M  V30 57 1 27 53
M  V30 58 1 27 54
M  V30 59 1 28 55
M  V30 60 1 28 56
M  V30 END BOND
M  V30 END CTAB
M  END
>  <Dataset>  (206) 
ChEMBL_Kinases

>  <Ligand_Instance>  (206) 
nan

>  <PDB_ID>  (206) 
nan

>  <Standardized_SMILES>  (206) 
C[C@H]1CC[C@H](NCc2ccc3c(c2)Cc2c(-c4ccc(N)cc4)n[nH]c2-3)CC1

>  <Name>  (206) 
nan

>  <Pocket>  (206) 
nan

>  <ATP_Site>  (206) 
nan

>  <Peripheral>  (206) 
nan

>  <Num_H_Atoms_ProtBoundConf>  (206) 
nan

>  <Num_Resolved_Atoms>  (206) 
nan

>  <Num_Not_Resolved_Atoms>  (206) 
nan

$$$$
CHEMBL390626
     RDKit          3D

  0  0  0  0  0  0  0  0  0  0999 V3000
M  V30 BEGIN CTAB
M  V30 COUNTS 50 54 0 0 0
M  V30 BEGIN ATOM
M  V30 1 N 8.031443 -2.007029 1.720633 0
M  V30 2 C 7.486754 -2.592926 0.552775 0
M  V30 3 O 8.065417 -3.551517 -0.018451 0
M  V30 4 C 6.232067 -1.968696 0.124566 0
M  V30 5 C 5.582574 -0.921246 0.740981 0
M  V30 6 C 4.400524 -0.420317 0.236179 0
M  V30 7 C 3.822292 -0.945438 -0.902217 0
M  V30 8 C 2.568810 -0.428561 -1.452930 0
M  V30 9 N 2.229868 -0.137576 -2.724750 0
M  V30 10 N 0.969655 0.312045 -2.766150 0
M  V30 11 C 0.506536 0.304587 -1.501184 0
M  V30 12 C 1.473134 -0.154083 -0.625693 0
M  V30 13 C 0.950661 -0.158241 0.771434 0
M  V30 14 C -0.436431 0.353270 0.597954 0
M  V30 15 C -1.393344 0.558234 1.572617 0
M  V30 16 C -2.654018 1.040414 1.285522 0
M  V30 17 C -3.748179 1.296604 2.234289 0
M  V30 18 N -4.633422 0.210123 2.470409 0
M  V30 19 C -4.066635 -0.982191 3.004175 0
M  V30 20 C -3.972635 -2.118325 2.045670 0
M  V30 21 O -4.273111 -1.774559 0.742887 0
M  V30 22 C -5.563252 -1.247560 0.720737 0
M  V30 23 C -5.668480 0.029233 1.511850 0
M  V30 24 C -2.924810 1.316182 -0.050774 0
M  V30 25 C -1.959525 1.110208 -1.039420 0
M  V30 26 C -0.700673 0.627220 -0.742106 0
M  V30 27 C 4.438171 -1.996496 -1.553767 0
M  V30 28 C 5.627949 -2.470034 -1.010146 0
M  V30 29 H 8.509001 -1.561539 2.525621 0
M  V30 30 H 7.529550 -1.923723 2.645709 0
M  V30 31 H 6.069977 -0.527741 1.643943 0
M  V30 32 H 3.933369 0.401399 0.758573 0
M  V30 33 H 0.431440 0.616976 -3.620881 0
M  V30 34 H 1.552991 0.550206 1.405315 0
M  V30 35 H 0.976229 -1.188858 1.172840 0
M  V30 36 H -1.193522 0.348820 2.610878 0
M  V30 37 H -4.336597 2.196945 1.982616 0
M  V30 38 H -3.285965 1.545011 3.235038 0
M  V30 39 H -4.750839 -1.303069 3.844426 0
M  V30 40 H -3.110906 -0.760587 3.518069 0
M  V30 41 H -4.618138 -2.964486 2.333367 0
M  V30 42 H -2.929691 -2.535944 2.069518 0
M  V30 43 H -5.800287 -1.055046 -0.351479 0
M  V30 44 H -6.320267 -1.978587 1.073577 0
M  V30 45 H -5.693860 0.900208 0.825900 0
M  V30 46 H -6.646022 0.032481 2.054918 0
M  V30 47 H -3.841499 1.695882 -0.473027 0
M  V30 48 H -2.112850 1.306269 -2.091116 0
M  V30 49 H 4.010489 -2.427941 -2.445779 0
M  V30 50 H 6.137579 -3.291438 -1.493848 0
M  V30 END ATOM
M  V30 BEGIN BOND
M  V30 1 1 1 2
M  V30 2 2 2 3
M  V30 3 1 2 4
M  V30 4 2 4 5
M  V30 5 1 5 6
M  V30 6 2 6 7
M  V30 7 1 7 8
M  V30 8 2 8 9
M  V30 9 1 9 10
M  V30 10 1 10 11
M  V30 11 2 11 12
M  V30 12 1 12 13
M  V30 13 1 13 14
M  V30 14 2 14 15
M  V30 15 1 15 16
M  V30 16 1 16 17
M  V30 17 1 17 18
M  V30 18 1 18 19
M  V30 19 1 19 20
M  V30 20 1 20 21
M  V30 21 1 21 22
M  V30 22 1 22 23
M  V30 23 2 16 24
M  V30 24 1 24 25
M  V30 25 2 25 26
M  V30 26 1 7 27
M  V30 27 2 27 28
M  V30 28 1 28 4
M  V30 29 1 12 8
M  V30 30 1 26 14
M  V30 31 1 26 11
M  V30 32 1 23 18
M  V30 33 1 1 29
M  V30 34 1 1 30
M  V30 35 1 5 31
M  V30 36 1 6 32
M  V30 37 1 10 33
M  V30 38 1 13 34
M  V30 39 1 13 35
M  V30 40 1 15 36
M  V30 41 1 17 37
M  V30 42 1 17 38
M  V30 43 1 19 39
M  V30 44 1 19 40
M  V30 45 1 20 41
M  V30 46 1 20 42
M  V30 47 1 22 43
M  V30 48 1 22 44
M  V30 49 1 23 45
M  V30 50 1 23 46
M  V30 51 1 24 47
M  V30 52 1 25 48
M  V30 53 1 27 49
M  V30 54 1 28 50
M  V30 END BOND
M  V30 END CTAB
M  END
>  <Dataset>  (207) 
ChEMBL_Kinases

>  <Ligand_Instance>  (207) 
nan

>  <PDB_ID>  (207) 
nan

>  <Standardized_SMILES>  (207) 
NC(=O)c1ccc(-c2n[nH]c3c2Cc2cc(CN4CCOCC4)ccc2-3)cc1

>  <Name>  (207) 
nan

>  <Pocket>  (207) 
nan

>  <ATP_Site>  (207) 
nan

>  <Peripheral>  (207) 
nan

>  <Num_H_Atoms_ProtBoundConf>  (207) 
nan

>  <Num_Resolved_Atoms>  (207) 
nan

>  <Num_Not_Resolved_Atoms>  (207) 
nan

$$$$
CHEMBL4878234
     RDKit          3D

  0  0  0  0  0  0  0  0  0  0999 V3000
M  V30 BEGIN CTAB
M  V30 COUNTS 36 39 0 0 0
M  V30 BEGIN ATOM
M  V30 1 O 1.757199 -4.679618 2.039923 0
M  V30 2 C 1.445625 -3.682308 2.742203 0
M  V30 3 N 1.044256 -2.456848 2.150316 0
M  V30 4 C 0.992793 -2.352985 0.729361 0
M  V30 5 N 1.323483 -3.411850 -0.032919 0
M  V30 6 C 1.286055 -3.349285 -1.392531 0
M  V30 7 C 0.903767 -2.186752 -2.064970 0
M  V30 8 C 0.569078 -1.113731 -1.259254 0
M  V30 9 C 0.604961 -1.170336 0.129196 0
M  V30 10 N 0.228143 0.022361 0.648542 0
M  V30 11 C -0.059147 0.876319 -0.352642 0
M  V30 12 C -0.481198 2.185410 -0.445405 0
M  V30 13 C -0.703606 2.829843 -1.640135 0
M  V30 14 O -1.133106 4.167407 -1.598309 0
M  V30 15 C -2.535104 4.452456 -1.562321 0
M  V30 16 F -2.775736 5.799588 -1.524171 0
M  V30 17 F -3.105508 3.955650 -2.732760 0
M  V30 18 F -3.134982 3.872375 -0.467562 0
M  V30 19 C -0.496648 2.138610 -2.838856 0
M  V30 20 C -0.074315 0.829002 -2.736801 0
M  V30 21 C 0.147502 0.186678 -1.535030 0
M  V30 22 C 1.472745 -3.707609 4.234022 0
M  V30 23 C 0.505822 -2.814709 4.981327 0
M  V30 24 C 1.914852 -2.365739 4.894872 0
M  V30 25 H 0.785698 -1.629220 2.732947 0
M  V30 26 H 1.550919 -4.197108 -1.996519 0
M  V30 27 H 0.858562 -2.088011 -3.122291 0
M  V30 28 H 0.164800 0.260110 1.676113 0
M  V30 29 H -0.638000 2.710158 0.488425 0
M  V30 30 H -0.674102 2.653636 -3.770998 0
M  V30 31 H 0.085082 0.296267 -3.668715 0
M  V30 32 H 1.769057 -4.607956 4.778147 0
M  V30 33 H -0.290284 -2.377049 4.312214 0
M  V30 34 H 0.114132 -3.113010 5.962365 0
M  V30 35 H 2.508123 -2.452977 5.832767 0
M  V30 36 H 2.282748 -1.605641 4.204433 0
M  V30 END ATOM
M  V30 BEGIN BOND
M  V30 1 2 1 2
M  V30 2 1 2 3
M  V30 3 1 3 4
M  V30 4 2 4 5
M  V30 5 1 5 6
M  V30 6 2 6 7
M  V30 7 1 7 8
M  V30 8 2 8 9
M  V30 9 1 9 10
M  V30 10 1 10 11
M  V30 11 2 11 12
M  V30 12 1 12 13
M  V30 13 1 13 14
M  V30 14 1 14 15
M  V30 15 1 15 16
M  V30 16 1 15 17
M  V30 17 1 15 18
M  V30 18 2 13 19
M  V30 19 1 19 20
M  V30 20 2 20 21
M  V30 21 1 2 22
M  V30 22 1 22 23
M  V30 23 1 23 24
M  V30 24 1 9 4
M  V30 25 1 21 11
M  V30 26 1 24 22
M  V30 27 1 21 8
M  V30 28 1 3 25
M  V30 29 1 6 26
M  V30 30 1 7 27
M  V30 31 1 10 28
M  V30 32 1 12 29
M  V30 33 1 19 30
M  V30 34 1 20 31
M  V30 35 1 22 32
M  V30 36 1 23 33
M  V30 37 1 23 34
M  V30 38 1 24 35
M  V30 39 1 24 36
M  V30 END BOND
M  V30 END CTAB
M  END
>  <Dataset>  (208) 
ChEMBL_Kinases

>  <Ligand_Instance>  (208) 
nan

>  <PDB_ID>  (208) 
nan

>  <Standardized_SMILES>  (208) 
O=C(Nc1nccc2c1[nH]c1cc(OC(F)(F)F)ccc12)C1CC1

>  <Name>  (208) 
nan

>  <Pocket>  (208) 
nan

>  <ATP_Site>  (208) 
nan

>  <Peripheral>  (208) 
nan

>  <Num_H_Atoms_ProtBoundConf>  (208) 
nan

>  <Num_Resolved_Atoms>  (208) 
nan

>  <Num_Not_Resolved_Atoms>  (208) 
nan

$$$$
CHEMBL390186
     RDKit          3D

  0  0  0  0  0  0  0  0  0  0999 V3000
M  V30 BEGIN CTAB
M  V30 COUNTS 44 47 0 0 0
M  V30 BEGIN ATOM
M  V30 1 N -1.289003 -3.369909 5.987799 0
M  V30 2 C -0.570118 -2.874586 5.237382 0
M  V30 3 C 0.341519 -2.264892 4.321042 0
M  V30 4 C 1.647292 -2.187321 4.778696 0
M  V30 5 N 2.542961 -1.623391 3.955675 0
M  V30 6 C 2.213188 -1.157693 2.759793 0
M  V30 7 N 3.234336 -0.582059 1.970904 0
M  V30 8 C 3.224831 -0.001969 0.674909 0
M  V30 9 C 4.364623 0.521568 0.054655 0
M  V30 10 C 4.310493 1.073074 -1.199284 0
M  V30 11 C 3.143113 1.147584 -1.923869 0
M  V30 12 C 3.178280 1.756449 -3.263371 0
M  V30 13 C 2.915864 3.244584 -3.146853 0
M  V30 14 O 3.947779 3.746048 -2.324617 0
M  V30 15 C 2.025610 0.643987 -1.337327 0
M  V30 16 C 2.100619 0.097935 -0.085555 0
M  V30 17 N 0.947503 -1.265222 2.388209 0
M  V30 18 C -0.053897 -1.802289 3.100366 0
M  V30 19 C -1.407459 -1.873904 2.606346 0
M  V30 20 C -1.722449 -1.379087 1.351799 0
M  V30 21 C -3.053349 -1.529603 1.044035 0
M  V30 22 C -3.871268 -1.227474 -0.024285 0
M  V30 23 C -5.212287 -1.541939 0.028338 0
M  V30 24 C -5.754237 -2.159259 1.141780 0
M  V30 25 C -4.945278 -2.465676 2.215292 0
M  V30 26 C -3.609460 -2.143545 2.143091 0
M  V30 27 N -2.595015 -2.308213 3.000104 0
M  V30 28 H 1.976088 -2.540643 5.723982 0
M  V30 29 H 4.215134 -0.555431 2.384846 0
M  V30 30 H 5.313786 0.480868 0.599511 0
M  V30 31 H 5.260118 1.451057 -1.586447 0
M  V30 32 H 4.121946 1.574122 -3.799144 0
M  V30 33 H 2.381019 1.330028 -3.938322 0
M  V30 34 H 1.941650 3.413077 -2.650113 0
M  V30 35 H 2.930379 3.733304 -4.142197 0
M  V30 36 H 4.243005 4.621278 -2.681920 0
M  V30 37 H 1.102161 0.708721 -1.923442 0
M  V30 38 H 1.149832 -0.265900 0.269574 0
M  V30 39 H -1.085178 -0.910350 0.615361 0
M  V30 40 H -3.442566 -0.744989 -0.892124 0
M  V30 41 H -5.895593 -1.318485 -0.799644 0
M  V30 42 H -6.811465 -2.426996 1.227403 0
M  V30 43 H -5.330890 -2.944287 3.095291 0
M  V30 44 H -2.725729 -2.749388 3.919921 0
M  V30 END ATOM
M  V30 BEGIN BOND
M  V30 1 3 1 2
M  V30 2 1 2 3
M  V30 3 2 3 4
M  V30 4 1 4 5
M  V30 5 2 5 6
M  V30 6 1 6 7
M  V30 7 1 7 8
M  V30 8 2 8 9
M  V30 9 1 9 10
M  V30 10 2 10 11
M  V30 11 1 11 12
M  V30 12 1 12 13
M  V30 13 1 13 14
M  V30 14 1 11 15
M  V30 15 2 15 16
M  V30 16 1 6 17
M  V30 17 2 17 18
M  V30 18 1 18 19
M  V30 19 2 19 20
M  V30 20 1 20 21
M  V30 21 2 21 22
M  V30 22 1 22 23
M  V30 23 2 23 24
M  V30 24 1 24 25
M  V30 25 2 25 26
M  V30 26 1 26 27
M  V30 27 1 18 3
M  V30 28 1 27 19
M  V30 29 1 16 8
M  V30 30 1 26 21
M  V30 31 1 4 28
M  V30 32 1 7 29
M  V30 33 1 9 30
M  V30 34 1 10 31
M  V30 35 1 12 32
M  V30 36 1 12 33
M  V30 37 1 13 34
M  V30 38 1 13 35
M  V30 39 1 14 36
M  V30 40 1 15 37
M  V30 41 1 16 38
M  V30 42 1 20 39
M  V30 43 1 22 40
M  V30 44 1 23 41
M  V30 45 1 24 42
M  V30 46 1 25 43
M  V30 47 1 27 44
M  V30 END BOND
M  V30 END CTAB
M  END
>  <Dataset>  (209) 
ChEMBL_Kinases

>  <Ligand_Instance>  (209) 
nan

>  <PDB_ID>  (209) 
nan

>  <Standardized_SMILES>  (209) 
N#Cc1cnc(Nc2ccc(CCO)cc2)nc1-c1cc2ccccc2[nH]1

>  <Name>  (209) 
nan

>  <Pocket>  (209) 
nan

>  <ATP_Site>  (209) 
nan

>  <Peripheral>  (209) 
nan

>  <Num_H_Atoms_ProtBoundConf>  (209) 
nan

>  <Num_Resolved_Atoms>  (209) 
nan

>  <Num_Not_Resolved_Atoms>  (209) 
nan

$$$$
CHEMBL3902000
     RDKit          3D

  0  0  0  0  0  0  0  0  0  0999 V3000
M  V30 BEGIN CTAB
M  V30 COUNTS 46 50 0 0 0
M  V30 BEGIN ATOM
M  V30 1 O 2.591131 3.478304 1.244543 0
M  V30 2 C 2.596637 2.215352 1.281536 0
M  V30 3 N 3.851800 1.628012 1.594269 0
M  V30 4 C 5.049334 2.355261 1.856232 0
M  V30 5 C 5.485158 2.806153 3.105107 0
M  V30 6 C 6.679803 3.497102 3.149072 0
M  V30 7 C 7.440616 3.751487 2.026158 0
M  V30 8 O 8.616668 4.459788 2.244329 0
M  V30 9 C 6.999967 3.303668 0.813575 0
M  V30 10 C 5.824017 2.618317 0.737767 0
M  V30 11 C 1.419032 1.390361 1.027019 0
M  V30 12 C 1.361874 0.011249 1.055834 0
M  V30 13 C 0.188207 -0.661075 0.797029 0
M  V30 14 C -0.984175 -0.010057 0.497815 0
M  V30 15 C -2.247624 -0.466799 0.210823 0
M  V30 16 C -2.796490 -1.804267 0.121041 0
M  V30 17 N -4.094328 -2.001367 -0.182373 0
M  V30 18 C -4.422304 -3.297646 -0.220726 0
M  V30 19 C -5.601942 -3.965488 -0.481512 0
M  V30 20 C -5.568829 -5.329953 -0.431623 0
M  V30 21 C -6.812220 -6.082771 -0.704762 0
M  V30 22 F -7.926477 -5.282923 -0.495570 0
M  V30 23 F -6.794338 -6.438543 -2.056097 0
M  V30 24 F -6.895890 -7.245885 0.039057 0
M  V30 25 C -4.429630 -6.055090 -0.137658 0
M  V30 26 C -3.249574 -5.371672 0.122720 0
M  V30 27 C -3.273915 -3.998558 0.074685 0
M  V30 28 N -2.346804 -3.049227 0.266548 0
M  V30 29 N -2.925168 0.686792 0.013923 0
M  V30 30 N -2.156746 1.743004 0.164518 0
M  V30 31 C -0.904659 1.365347 0.474437 0
M  V30 32 C 0.248177 2.077213 0.727070 0
M  V30 33 H 3.976384 0.592134 1.652900 0
M  V30 34 H 4.837941 2.565815 3.912752 0
M  V30 35 H 6.947373 3.814370 4.165508 0
M  V30 36 H 9.384741 3.881534 2.616087 0
M  V30 37 H 7.632829 3.527135 -0.047480 0
M  V30 38 H 5.548334 2.297561 -0.273048 0
M  V30 39 H 2.286573 -0.490474 1.291580 0
M  V30 40 H 0.216185 -1.723801 0.836370 0
M  V30 41 H -6.495824 -3.401762 -0.712080 0
M  V30 42 H -4.350133 -7.124592 -0.085831 0
M  V30 43 H -2.323057 -5.860188 0.358656 0
M  V30 44 H -1.379515 -3.292537 0.504727 0
M  V30 45 H -2.546276 2.699603 0.042430 0
M  V30 46 H 0.231431 3.142641 0.690541 0
M  V30 END ATOM
M  V30 BEGIN BOND
M  V30 1 2 1 2
M  V30 2 1 2 3
M  V30 3 1 3 4
M  V30 4 2 4 5
M  V30 5 1 5 6
M  V30 6 2 6 7
M  V30 7 1 7 8
M  V30 8 1 7 9
M  V30 9 2 9 10
M  V30 10 1 2 11
M  V30 11 2 11 12
M  V30 12 1 12 13
M  V30 13 2 13 14
M  V30 14 1 14 15
M  V30 15 1 15 16
M  V30 16 2 16 17
M  V30 17 1 17 18
M  V30 18 2 18 19
M  V30 19 1 19 20
M  V30 20 1 20 21
M  V30 21 1 21 22
M  V30 22 1 21 23
M  V30 23 1 21 24
M  V30 24 2 20 25
M  V30 25 1 25 26
M  V30 26 2 26 27
M  V30 27 1 27 28
M  V30 28 2 15 29
M  V30 29 1 29 30
M  V30 30 1 30 31
M  V30 31 2 31 32
M  V30 32 1 10 4
M  V30 33 1 32 11
M  V30 34 1 31 14
M  V30 35 1 28 16
M  V30 36 1 27 18
M  V30 37 1 3 33
M  V30 38 1 5 34
M  V30 39 1 6 35
M  V30 40 1 8 36
M  V30 41 1 9 37
M  V30 42 1 10 38
M  V30 43 1 12 39
M  V30 44 1 13 40
M  V30 45 1 19 41
M  V30 46 1 25 42
M  V30 47 1 26 43
M  V30 48 1 28 44
M  V30 49 1 30 45
M  V30 50 1 32 46
M  V30 END BOND
M  V30 END CTAB
M  END
>  <Dataset>  (210) 
ChEMBL_Kinases

>  <Ligand_Instance>  (210) 
nan

>  <PDB_ID>  (210) 
nan

>  <Standardized_SMILES>  (210) 
O=C(Nc1ccc(O)cc1)c1ccc2c(-c3nc4cc(C(F)(F)F)ccc4[nH]3)n[nH]c2c1

>  <Name>  (210) 
nan

>  <Pocket>  (210) 
nan

>  <ATP_Site>  (210) 
nan

>  <Peripheral>  (210) 
nan

>  <Num_H_Atoms_ProtBoundConf>  (210) 
nan

>  <Num_Resolved_Atoms>  (210) 
nan

>  <Num_Not_Resolved_Atoms>  (210) 
nan

$$$$
CHEMBL3906261
     RDKit          3D

  0  0  0  0  0  0  0  0  0  0999 V3000
M  V30 BEGIN CTAB
M  V30 COUNTS 38 41 0 0 0
M  V30 BEGIN ATOM
M  V30 1 C 0.961344 -5.272653 1.809845 0
M  V30 2 C 2.156739 -4.541111 1.259997 0
M  V30 3 N 3.251180 -5.206931 0.860165 0
M  V30 4 C 4.144157 -4.346457 0.423977 0
M  V30 5 C 3.525974 -3.095689 0.581221 0
M  V30 6 S 3.682686 -1.227704 0.369811 0
M  V30 7 C 1.961189 -0.993615 1.062304 0
M  V30 8 C 1.087782 0.148709 1.332372 0
M  V30 9 O 0.687689 0.349660 2.493388 0
M  V30 10 N 0.801936 0.917929 0.145916 0
M  V30 11 C 1.195760 0.801586 -1.246053 0
M  V30 12 C -0.021911 1.313771 -1.991957 0
M  V30 13 C -0.499672 2.420037 -1.094534 0
M  V30 14 C -0.050062 2.060720 0.267636 0
M  V30 15 C -1.232700 1.683821 1.105314 0
M  V30 16 C -1.837503 0.460439 0.815575 0
M  V30 17 C -2.933894 0.015490 1.527822 0
M  V30 18 C -3.474367 0.774241 2.561596 0
M  V30 19 F -4.546105 0.342624 3.260100 0
M  V30 20 C -2.860647 1.969007 2.822976 0
M  V30 21 C -1.761602 2.457077 2.138418 0
M  V30 22 N 1.555564 -2.128165 1.318967 0
M  V30 23 N 2.267222 -3.198610 1.109157 0
M  V30 24 H 1.258221 -6.221755 2.247771 0
M  V30 25 H 0.445560 -4.653001 2.572551 0
M  V30 26 H 0.264735 -5.467884 0.971734 0
M  V30 27 H 5.141706 -4.352459 0.012477 0
M  V30 28 H 2.058418 1.470172 -1.471420 0
M  V30 29 H 1.428035 -0.246195 -1.523325 0
M  V30 30 H -0.811899 0.540437 -2.086707 0
M  V30 31 H 0.271666 1.698762 -3.004939 0
M  V30 32 H -1.602544 2.571511 -1.176258 0
M  V30 33 H -0.032636 3.370706 -1.446003 0
M  V30 34 H 0.477681 2.938248 0.714404 0
M  V30 35 H -1.544685 -0.228425 0.062547 0
M  V30 36 H -3.445572 -0.928471 1.346626 0
M  V30 37 H -3.229733 2.599183 3.606876 0
M  V30 38 H -1.264994 3.383864 2.321831 0
M  V30 END ATOM
M  V30 BEGIN BOND
M  V30 1 1 1 2
M  V30 2 2 2 3
M  V30 3 1 3 4
M  V30 4 2 4 5
M  V30 5 1 5 6
M  V30 6 1 6 7
M  V30 7 1 7 8
M  V30 8 2 8 9
M  V30 9 1 8 10
M  V30 10 1 10 11
M  V30 11 1 11 12
M  V30 12 1 12 13
M  V30 13 1 13 14
M  V30 14 1 14 15
M  V30 15 2 15 16
M  V30 16 1 16 17
M  V30 17 2 17 18
M  V30 18 1 18 19
M  V30 19 1 18 20
M  V30 20 2 20 21
M  V30 21 2 7 22
M  V30 22 1 22 23
M  V30 23 1 23 2
M  V30 24 1 23 5
M  V30 25 1 14 10
M  V30 26 1 21 15
M  V30 27 1 1 24
M  V30 28 1 1 25
M  V30 29 1 1 26
M  V30 30 1 4 27
M  V30 31 1 11 28
M  V30 32 1 11 29
M  V30 33 1 12 30
M  V30 34 1 12 31
M  V30 35 1 13 32
M  V30 36 1 13 33
M  V30 37 1 14 34
M  V30 38 1 16 35
M  V30 39 1 17 36
M  V30 40 1 20 37
M  V30 41 1 21 38
M  V30 END BOND
M  V30 END CTAB
M  END
>  <Dataset>  (211) 
ChEMBL_Kinases

>  <Ligand_Instance>  (211) 
nan

>  <PDB_ID>  (211) 
nan

>  <Standardized_SMILES>  (211) 
Cc1ncc2sc(C(=O)N3CCCC3c3ccc(F)cc3)nn12

>  <Name>  (211) 
nan

>  <Pocket>  (211) 
nan

>  <ATP_Site>  (211) 
nan

>  <Peripheral>  (211) 
nan

>  <Num_H_Atoms_ProtBoundConf>  (211) 
nan

>  <Num_Resolved_Atoms>  (211) 
nan

>  <Num_Not_Resolved_Atoms>  (211) 
nan

$$$$
CHEMBL390627
     RDKit          3D

  0  0  0  0  0  0  0  0  0  0999 V3000
M  V30 BEGIN CTAB
M  V30 COUNTS 66 70 0 0 0
M  V30 BEGIN ATOM
M  V30 1 C 3.202027 0.410480 2.896467 0
M  V30 2 C 4.555036 1.114063 2.823662 0 CFG=1
M  V30 3 C 5.340535 0.661516 1.619596 0
M  V30 4 C 4.805856 1.233821 0.330472 0
M  V30 5 C 3.991416 2.479843 0.553639 0 CFG=2
M  V30 6 N 3.866906 3.339044 -0.571448 0
M  V30 7 C 3.197899 2.796977 -1.717272 0
M  V30 8 C 1.780886 2.436767 -1.455350 0
M  V30 9 C 0.897131 3.496301 -1.687178 0
M  V30 10 C -0.467852 3.395386 -1.512044 0
M  V30 11 C -1.017743 2.202134 -1.087728 0
M  V30 12 C -0.147150 1.155547 -0.858558 0
M  V30 13 C 1.217799 1.253050 -1.032699 0
M  V30 14 C -0.851569 -0.075810 -0.406150 0
M  V30 15 C -2.244530 0.361535 -0.392551 0
M  V30 16 C -3.555573 -0.023425 -0.135216 0
M  V30 17 C -3.942600 -1.358068 0.316049 0
M  V30 18 C -4.994621 -2.116973 -0.165700 0
M  V30 19 C -5.240677 -3.369645 0.361802 0
M  V30 20 C -4.454124 -3.890258 1.369826 0
M  V30 21 S -4.744856 -5.473083 2.054649 0
M  V30 22 O -6.194216 -5.836905 2.057111 0
M  V30 23 O -4.278240 -5.474317 3.470534 0
M  V30 24 N -3.869115 -6.694816 1.191483 0
M  V30 25 C -4.355853 -6.684485 -0.173131 0
M  V30 26 C -3.640088 -7.730932 -1.011908 0
M  V30 27 O -3.849452 -9.012154 -0.480442 0
M  V30 28 C -3.396412 -3.156616 1.871629 0
M  V30 29 C -3.164754 -1.907008 1.333199 0
M  V30 30 N -4.361674 1.028538 -0.372814 0
M  V30 31 N -3.661899 2.083189 -0.770940 0
M  V30 32 C -2.359732 1.699469 -0.791235 0
M  V30 33 C 4.724892 3.260567 1.635440 0
M  V30 34 C 4.387701 2.589014 2.949164 0
M  V30 35 H 2.399977 1.125372 3.190550 0
M  V30 36 H 2.970117 -0.079678 1.925311 0
M  V30 37 H 3.189304 -0.403474 3.649912 0
M  V30 38 H 5.120695 0.759842 3.721176 0
M  V30 39 H 5.245200 -0.442330 1.569799 0
M  V30 40 H 6.408604 0.894232 1.751392 0
M  V30 41 H 5.699778 1.483508 -0.303454 0
M  V30 42 H 4.227748 0.467989 -0.215529 0
M  V30 43 H 3.019150 2.134733 0.968487 0
M  V30 44 H 4.806509 3.655305 -0.876900 0
M  V30 45 H 3.268833 3.450958 -2.599114 0
M  V30 46 H 3.743409 1.846255 -1.990953 0
M  V30 47 H 1.217813 4.492661 -2.026868 0
M  V30 48 H -1.142974 4.220246 -1.693902 0
M  V30 49 H 1.942805 0.478981 -0.873302 0
M  V30 50 H -0.629553 -0.918658 -1.070795 0
M  V30 51 H -0.456844 -0.309157 0.623781 0
M  V30 52 H -5.578518 -1.662108 -0.954677 0
M  V30 53 H -6.072289 -3.939484 -0.036876 0
M  V30 54 H -2.847405 -6.483707 1.170124 0
M  V30 55 H -4.152413 -5.701926 -0.642729 0
M  V30 56 H -5.430359 -6.917709 -0.224068 0
M  V30 57 H -4.055667 -7.772981 -2.038131 0
M  V30 58 H -2.581744 -7.469195 -1.106618 0
M  V30 59 H -3.407642 -9.143239 0.384207 0
M  V30 60 H -2.773502 -3.560231 2.664489 0
M  V30 61 H -2.323768 -1.359443 1.753522 0
M  V30 62 H -3.974477 3.041370 -1.031980 0
M  V30 63 H 4.462998 4.336550 1.634271 0
M  V30 64 H 5.829365 3.164209 1.472671 0
M  V30 65 H 3.302843 2.813030 3.116568 0
M  V30 66 H 4.953437 3.031032 3.794518 0
M  V30 END ATOM
M  V30 BEGIN BOND
M  V30 1 1 1 2
M  V30 2 1 2 3
M  V30 3 1 3 4
M  V30 4 1 4 5
M  V30 5 1 5 6
M  V30 6 1 6 7
M  V30 7 1 7 8
M  V30 8 2 8 9
M  V30 9 1 9 10
M  V30 10 2 10 11
M  V30 11 1 11 12
M  V30 12 2 12 13
M  V30 13 1 12 14
M  V30 14 1 14 15
M  V30 15 1 15 16
M  V30 16 1 16 17
M  V30 17 2 17 18
M  V30 18 1 18 19
M  V30 19 2 19 20
M  V30 20 1 20 21
M  V30 21 2 21 22
M  V30 22 2 21 23
M  V30 23 1 21 24
M  V30 24 1 24 25
M  V30 25 1 25 26
M  V30 26 1 26 27
M  V30 27 1 20 28
M  V30 28 2 28 29
M  V30 29 2 16 30
M  V30 30 1 30 31
M  V30 31 1 31 32
M  V30 32 1 5 33
M  V30 33 1 33 34
M  V30 34 1 34 2
M  V30 35 1 13 8
M  V30 36 2 32 15
M  V30 37 1 32 11
M  V30 38 1 29 17
M  V30 39 1 1 35
M  V30 40 1 1 36
M  V30 41 1 1 37
M  V30 42 1 2 38 CFG=1
M  V30 43 1 3 39
M  V30 44 1 3 40
M  V30 45 1 4 41
M  V30 46 1 4 42
M  V30 47 1 5 43 CFG=1
M  V30 48 1 6 44
M  V30 49 1 7 45
M  V30 50 1 7 46
M  V30 51 1 9 47
M  V30 52 1 10 48
M  V30 53 1 13 49
M  V30 54 1 14 50
M  V30 55 1 14 51
M  V30 56 1 18 52
M  V30 57 1 19 53
M  V30 58 1 24 54
M  V30 59 1 25 55
M  V30 60 1 25 56
M  V30 61 1 26 57
M  V30 62 1 26 58
M  V30 63 1 27 59
M  V30 64 1 28 60
M  V30 65 1 29 61
M  V30 66 1 31 62
M  V30 67 1 33 63
M  V30 68 1 33 64
M  V30 69 1 34 65
M  V30 70 1 34 66
M  V30 END BOND
M  V30 END CTAB
M  END
>  <Dataset>  (212) 
ChEMBL_Kinases

>  <Ligand_Instance>  (212) 
nan

>  <PDB_ID>  (212) 
nan

>  <Standardized_SMILES>  (212) 
C[C@H]1CC[C@H](NCc2ccc3c(c2)Cc2c(-c4ccc(S(=O)(=O)NCCO)cc4)n[nH]c2-3)CC1

>  <Name>  (212) 
nan

>  <Pocket>  (212) 
nan

>  <ATP_Site>  (212) 
nan

>  <Peripheral>  (212) 
nan

>  <Num_H_Atoms_ProtBoundConf>  (212) 
nan

>  <Num_Resolved_Atoms>  (212) 
nan

>  <Num_Not_Resolved_Atoms>  (212) 
nan

$$$$
CHEMBL3901971
     RDKit          3D

  0  0  0  0  0  0  0  0  0  0999 V3000
M  V30 BEGIN CTAB
M  V30 COUNTS 64 68 0 0 0
M  V30 BEGIN ATOM
M  V30 1 C 2.198262 -3.623181 2.217330 0
M  V30 2 C 1.765524 -2.292626 2.738031 0
M  V30 3 C 2.881784 -1.346167 2.481960 0
M  V30 4 N 4.214849 -1.160593 2.446041 0
M  V30 5 N 4.525392 0.081386 2.095470 0
M  V30 6 C 3.372173 0.728753 1.896168 0
M  V30 7 N 3.293632 2.113500 1.500426 0
M  V30 8 C 3.235416 3.196460 2.421523 0
M  V30 9 O 3.259026 2.835253 3.621244 0
M  V30 10 C 3.156241 4.579369 1.955158 0
M  V30 11 C 3.126422 4.994554 0.640709 0
M  V30 12 C 3.052345 6.323555 0.295195 0
M  V30 13 C 3.005100 7.290973 1.290344 0
M  V30 14 C 3.032841 6.908565 2.627175 0
M  V30 15 C 3.108464 5.551204 2.933829 0
M  V30 16 C 2.324966 -0.158577 2.136122 0
M  V30 17 C 0.840927 -0.269203 2.149455 0
M  V30 18 N 0.680159 -1.690043 1.948454 0
M  V30 19 C -0.214428 -2.498133 1.224876 0
M  V30 20 O -0.426806 -1.273720 1.137337 0
M  V30 21 N -1.128926 -3.226947 0.490817 0
M  V30 22 C -0.891315 -4.641670 0.578382 0
M  V30 23 C -1.647974 -5.462713 -0.384499 0
M  V30 24 N -2.265537 -4.850307 -1.486576 0
M  V30 25 C -2.245448 -5.592230 -2.721944 0
M  V30 26 C -2.083775 -3.445645 -1.653771 0
M  V30 27 C -2.245174 -2.770078 -0.312904 0 CFG=2
M  V30 28 C -2.403583 -1.298212 -0.400834 0
M  V30 29 C -3.596469 -0.964217 -1.258212 0
M  V30 30 C -4.848763 -0.838985 -0.682704 0
M  V30 31 C -6.032547 -0.536453 -1.320571 0
M  V30 32 C -5.947766 -0.340396 -2.672150 0
M  V30 33 C -4.719750 -0.451305 -3.313285 0
M  V30 34 C -3.579327 -0.753014 -2.633311 0
M  V30 35 H 2.188230 -3.638583 1.110625 0
M  V30 36 H 1.618546 -4.471176 2.657717 0
M  V30 37 H 3.258021 -3.792552 2.537041 0
M  V30 38 H 1.518930 -2.315016 3.807904 0
M  V30 39 H 4.888553 -1.925129 2.672101 0
M  V30 40 H 3.282499 2.261717 0.463781 0
M  V30 41 H 3.164508 4.218104 -0.105685 0
M  V30 42 H 3.030761 6.615681 -0.732768 0
M  V30 43 H 2.945542 8.341217 0.976265 0
M  V30 44 H 2.994616 7.680256 3.400992 0
M  V30 45 H 3.126866 5.326704 3.990268 0
M  V30 46 H 0.404527 0.378723 1.395545 0
M  V30 47 H 0.430006 -0.070589 3.177873 0
M  V30 48 H -1.125309 -4.921083 1.647504 0
M  V30 49 H 0.198440 -4.833571 0.481608 0
M  V30 50 H -2.437720 -6.036078 0.186549 0
M  V30 51 H -0.977743 -6.285692 -0.773214 0
M  V30 52 H -1.263615 -6.053490 -2.946888 0
M  V30 53 H -2.559665 -4.867957 -3.517694 0
M  V30 54 H -2.994300 -6.396494 -2.673287 0
M  V30 55 H -1.118764 -3.155764 -2.090675 0
M  V30 56 H -2.906917 -3.095655 -2.334617 0
M  V30 57 H -3.147270 -3.223588 0.157576 0
M  V30 58 H -2.656215 -0.897151 0.595425 0
M  V30 59 H -1.510218 -0.834697 -0.870457 0
M  V30 60 H -4.896981 -0.999070 0.400006 0
M  V30 61 H -6.944613 -0.470753 -0.738329 0
M  V30 62 H -6.859777 -0.098294 -3.224029 0
M  V30 63 H -4.640073 -0.296490 -4.395812 0
M  V30 64 H -2.596332 -0.848064 -3.106895 0
M  V30 END ATOM
M  V30 BEGIN BOND
M  V30 1 1 1 2
M  V30 2 1 2 3
M  V30 3 1 3 4
M  V30 4 1 4 5
M  V30 5 2 5 6
M  V30 6 1 6 7
M  V30 7 1 7 8
M  V30 8 2 8 9
M  V30 9 1 8 10
M  V30 10 2 10 11
M  V30 11 1 11 12
M  V30 12 2 12 13
M  V30 13 1 13 14
M  V30 14 2 14 15
M  V30 15 1 6 16
M  V30 16 1 16 17
M  V30 17 1 17 18
M  V30 18 1 18 19
M  V30 19 2 19 20
M  V30 20 1 19 21
M  V30 21 1 21 22
M  V30 22 1 22 23
M  V30 23 1 23 24
M  V30 24 1 24 25
M  V30 25 1 24 26
M  V30 26 1 26 27
M  V30 27 1 27 28
M  V30 28 1 28 29
M  V30 29 2 29 30
M  V30 30 1 30 31
M  V30 31 2 31 32
M  V30 32 1 32 33
M  V30 33 2 33 34
M  V30 34 1 18 2
M  V30 35 1 27 21
M  V30 36 1 34 29
M  V30 37 2 16 3
M  V30 38 1 15 10
M  V30 39 1 1 35
M  V30 40 1 1 36
M  V30 41 1 1 37
M  V30 42 1 2 38
M  V30 43 1 4 39
M  V30 44 1 7 40
M  V30 45 1 11 41
M  V30 46 1 12 42
M  V30 47 1 13 43
M  V30 48 1 14 44
M  V30 49 1 15 45
M  V30 50 1 17 46
M  V30 51 1 17 47
M  V30 52 1 22 48
M  V30 53 1 22 49
M  V30 54 1 23 50
M  V30 55 1 23 51
M  V30 56 1 25 52
M  V30 57 1 25 53
M  V30 58 1 25 54
M  V30 59 1 26 55
M  V30 60 1 26 56
M  V30 61 1 27 57 CFG=1
M  V30 62 1 28 58
M  V30 63 1 28 59
M  V30 64 1 30 60
M  V30 65 1 31 61
M  V30 66 1 32 62
M  V30 67 1 33 63
M  V30 68 1 34 64
M  V30 END BOND
M  V30 END CTAB
M  END
>  <Dataset>  (213) 
ChEMBL_Kinases

>  <Ligand_Instance>  (213) 
nan

>  <PDB_ID>  (213) 
nan

>  <Standardized_SMILES>  (213) 
CC1c2[nH]nc(NC(=O)c3ccccc3)c2CN1C(=O)N1CCN(C)C[C@@H]1Cc1ccccc1

>  <Name>  (213) 
nan

>  <Pocket>  (213) 
nan

>  <ATP_Site>  (213) 
nan

>  <Peripheral>  (213) 
nan

>  <Num_H_Atoms_ProtBoundConf>  (213) 
nan

>  <Num_Resolved_Atoms>  (213) 
nan

>  <Num_Not_Resolved_Atoms>  (213) 
nan

$$$$
CHEMBL4878163
     RDKit          3D

  0  0  0  0  0  0  0  0  0  0999 V3000
M  V30 BEGIN CTAB
M  V30 COUNTS 44 46 0 0 0
M  V30 BEGIN ATOM
M  V30 1 C 3.488673 -3.383171 -0.140758 0
M  V30 2 O 2.851616 -2.156786 -0.354581 0
M  V30 3 C 2.472580 -1.726780 -1.654630 0
M  V30 4 N 2.383090 -1.879211 -2.961317 0
M  V30 5 N 1.794913 -0.839423 -3.524912 0
M  V30 6 C 1.723130 -1.056902 -4.957863 0
M  V30 7 C 1.546458 -0.059414 -2.422312 0
M  V30 8 C 1.964511 -0.566003 -1.099230 0
M  V30 9 C 1.411891 0.696548 -0.495203 0
M  V30 10 O 1.761000 0.066888 0.594265 0
M  V30 11 N 0.812275 2.010214 -0.294885 0
M  V30 12 C 0.879162 2.036181 1.150197 0
M  V30 13 C 1.973499 2.530508 1.797992 0
M  V30 14 C 1.865168 2.487133 3.167879 0
M  V30 15 C 0.720413 1.974565 3.731880 0
M  V30 16 C -0.377251 1.477823 3.065690 0
M  V30 17 C -1.569770 0.940172 3.684331 0
M  V30 18 N -2.392906 1.377402 4.637271 0
M  V30 19 N -3.340560 0.489445 4.832930 0
M  V30 20 C -3.134808 -0.538264 4.000428 0
M  V30 21 N -2.044791 -0.254406 3.297028 0
M  V30 22 C -1.554060 -1.180775 2.295642 0 CFG=1
M  V30 23 C -1.484016 -2.575740 2.860585 0
M  V30 24 C -2.575162 -1.166313 1.152380 0
M  V30 25 F -3.797513 -1.570184 1.674644 0
M  V30 26 F -2.147596 -2.045491 0.155799 0
M  V30 27 N -0.257743 1.526806 1.715187 0
M  V30 28 H 4.597530 -3.228978 -0.053745 0
M  V30 29 H 3.110523 -3.856181 0.804732 0
M  V30 30 H 3.266635 -4.141125 -0.930446 0
M  V30 31 H 1.110013 -1.948081 -5.188838 0
M  V30 32 H 1.140347 -0.203434 -5.423558 0
M  V30 33 H 2.717576 -1.152997 -5.408323 0
M  V30 34 H 1.062987 0.752864 -3.060597 0
M  V30 35 H 0.783099 1.950120 -1.332556 0
M  V30 36 H 2.828149 2.911571 1.276759 0
M  V30 37 H 2.679773 2.854055 3.798226 0
M  V30 38 H 0.686520 1.962514 4.813794 0
M  V30 39 H -3.840410 -1.380555 4.029422 0
M  V30 40 H -0.598248 -0.852821 1.855760 0
M  V30 41 H -0.479831 -3.049099 2.663572 0
M  V30 42 H -1.621849 -2.518003 3.974747 0
M  V30 43 H -2.303398 -3.213251 2.430793 0
M  V30 44 H -2.713733 -0.172239 0.719409 0
M  V30 END ATOM
M  V30 BEGIN BOND
M  V30 1 1 1 2
M  V30 2 1 2 3
M  V30 3 2 3 4
M  V30 4 1 4 5
M  V30 5 1 5 6
M  V30 6 1 5 7
M  V30 7 2 7 8
M  V30 8 1 8 9
M  V30 9 2 9 10
M  V30 10 1 9 11
M  V30 11 1 11 12
M  V30 12 2 12 13
M  V30 13 1 13 14
M  V30 14 2 14 15
M  V30 15 1 15 16
M  V30 16 1 16 17
M  V30 17 2 17 18
M  V30 18 1 18 19
M  V30 19 2 19 20
M  V30 20 1 20 21
M  V30 21 1 21 22
M  V30 22 1 22 23
M  V30 23 1 22 24
M  V30 24 1 24 25
M  V30 25 1 24 26
M  V30 26 2 16 27
M  V30 27 1 8 3
M  V30 28 1 27 12
M  V30 29 1 21 17
M  V30 30 1 1 28
M  V30 31 1 1 29
M  V30 32 1 1 30
M  V30 33 1 6 31
M  V30 34 1 6 32
M  V30 35 1 6 33
M  V30 36 1 7 34
M  V30 37 1 11 35
M  V30 38 1 13 36
M  V30 39 1 14 37
M  V30 40 1 15 38
M  V30 41 1 20 39
M  V30 42 1 22 40 CFG=3
M  V30 43 1 23 41
M  V30 44 1 23 42
M  V30 45 1 23 43
M  V30 46 1 24 44
M  V30 END BOND
M  V30 END CTAB
M  END
>  <Dataset>  (214) 
ChEMBL_Kinases

>  <Ligand_Instance>  (214) 
nan

>  <PDB_ID>  (214) 
nan

>  <Standardized_SMILES>  (214) 
COc1nn(C)cc1C(=O)Nc1cccc(-c2nncn2[C@@H](C)C(F)F)n1

>  <Name>  (214) 
nan

>  <Pocket>  (214) 
nan

>  <ATP_Site>  (214) 
nan

>  <Peripheral>  (214) 
nan

>  <Num_H_Atoms_ProtBoundConf>  (214) 
nan

>  <Num_Resolved_Atoms>  (214) 
nan

>  <Num_Not_Resolved_Atoms>  (214) 
nan

$$$$
CHEMBL603197
     RDKit          3D

  0  0  0  0  0  0  0  0  0  0999 V3000
M  V30 BEGIN CTAB
M  V30 COUNTS 58 63 0 0 0
M  V30 BEGIN ATOM
M  V30 1 C 1.544685 -3.016197 3.671396 0
M  V30 2 C 2.613020 -3.442719 2.726832 0
M  V30 3 N 3.469789 -4.467878 2.882861 0
M  V30 4 N 4.284907 -4.537304 1.820446 0
M  V30 5 C 3.921495 -3.536032 0.997177 0
M  V30 6 C 4.413107 -3.138938 -0.229537 0
M  V30 7 N 3.871916 -2.088290 -0.865909 0
M  V30 8 C 2.848845 -1.385464 -0.355085 0
M  V30 9 C 2.313009 -0.257312 -1.097224 0
M  V30 10 C 1.271817 0.421361 -0.518447 0
M  V30 11 C 0.646478 1.511019 -1.072974 0
M  V30 12 O -0.336047 2.380499 -0.836864 0
M  V30 13 C -1.286070 2.664049 0.081909 0
M  V30 14 C -2.399879 1.692160 0.334814 0 CFG=1
M  V30 15 N -3.126970 1.553385 -0.951910 0
M  V30 16 C -2.026796 0.353690 0.862508 0
M  V30 17 C -3.255557 -0.491236 1.092434 0
M  V30 18 C -3.718269 -1.534684 0.308323 0
M  V30 19 N -4.839532 -2.008613 0.874157 0
M  V30 20 C -5.113918 -1.300828 2.001328 0
M  V30 21 C -6.172363 -1.444940 2.900053 0
M  V30 22 C -6.203813 -0.566638 3.986643 0
M  V30 23 C -5.221443 0.411886 4.166967 0
M  V30 24 C -4.189177 0.523037 3.255127 0
M  V30 25 C -4.123717 -0.333776 2.159963 0
M  V30 26 C 1.162007 1.908592 -2.327191 0
M  V30 27 N 2.203782 1.256502 -2.941216 0
M  V30 28 C 2.767089 0.178563 -2.316473 0
M  V30 29 C 3.869818 -0.545690 -2.939800 0
M  V30 30 C 5.238518 -0.296038 -3.036039 0
M  V30 31 C 5.789685 -1.345013 -3.759497 0
M  V30 32 O 4.847418 -2.193092 -4.096058 0
M  V30 33 C 3.718623 -1.753259 -3.632027 0
M  V30 34 N 2.377905 -1.771719 0.827477 0
M  V30 35 C 2.865667 -2.812457 1.526391 0
M  V30 36 H 0.580694 -3.323222 3.199144 0
M  V30 37 H 1.620584 -3.536034 4.644984 0
M  V30 38 H 1.570833 -1.929548 3.750086 0
M  V30 39 H 5.056957 -5.211447 1.627298 0
M  V30 40 H 5.237408 -3.628125 -0.743089 0
M  V30 41 H 0.821904 0.210374 0.431180 0
M  V30 42 H -0.844632 2.885369 1.123842 0
M  V30 43 H -1.737023 3.694148 -0.163605 0
M  V30 44 H -3.146995 2.147069 1.049730 0
M  V30 45 H -3.616529 2.480328 -1.074102 0
M  V30 46 H -3.886910 0.863496 -0.724654 0
M  V30 47 H -1.438942 -0.152422 0.051496 0
M  V30 48 H -1.419555 0.373894 1.768546 0
M  V30 49 H -3.187617 -1.835928 -0.589997 0
M  V30 50 H -5.404296 -2.806585 0.487597 0
M  V30 51 H -6.926151 -2.203711 2.752414 0
M  V30 52 H -7.015454 -0.644200 4.715401 0
M  V30 53 H -5.314662 1.061189 5.040991 0
M  V30 54 H -3.435124 1.272442 3.392058 0
M  V30 55 H 0.894857 2.721699 -3.021668 0
M  V30 56 H 5.661458 0.587276 -2.585532 0
M  V30 57 H 6.853740 -1.353439 -3.954962 0
M  V30 58 H 2.794035 -2.297099 -3.790452 0
M  V30 END ATOM
M  V30 BEGIN BOND
M  V30 1 1 1 2
M  V30 2 2 2 3
M  V30 3 1 3 4
M  V30 4 1 4 5
M  V30 5 2 5 6
M  V30 6 1 6 7
M  V30 7 2 7 8
M  V30 8 1 8 9
M  V30 9 2 9 10
M  V30 10 1 10 11
M  V30 11 1 11 12
M  V30 12 1 12 13
M  V30 13 1 13 14
M  V30 14 1 14 15
M  V30 15 1 14 16
M  V30 16 1 16 17
M  V30 17 2 17 18
M  V30 18 1 18 19
M  V30 19 1 19 20
M  V30 20 2 20 21
M  V30 21 1 21 22
M  V30 22 2 22 23
M  V30 23 1 23 24
M  V30 24 2 24 25
M  V30 25 2 11 26
M  V30 26 1 26 27
M  V30 27 2 27 28
M  V30 28 1 28 29
M  V30 29 1 29 30
M  V30 30 2 30 31
M  V30 31 1 31 32
M  V30 32 1 32 33
M  V30 33 1 8 34
M  V30 34 2 34 35
M  V30 35 1 35 2
M  V30 36 1 35 5
M  V30 37 1 28 9
M  V30 38 2 33 29
M  V30 39 1 25 17
M  V30 40 1 25 20
M  V30 41 1 1 36
M  V30 42 1 1 37
M  V30 43 1 1 38
M  V30 44 1 4 39
M  V30 45 1 6 40
M  V30 46 1 10 41
M  V30 47 1 13 42
M  V30 48 1 13 43
M  V30 49 1 14 44 CFG=1
M  V30 50 1 15 45
M  V30 51 1 15 46
M  V30 52 1 16 47
M  V30 53 1 16 48
M  V30 54 1 18 49
M  V30 55 1 19 50
M  V30 56 1 21 51
M  V30 57 1 22 52
M  V30 58 1 23 53
M  V30 59 1 24 54
M  V30 60 1 26 55
M  V30 61 1 30 56
M  V30 62 1 31 57
M  V30 63 1 33 58
M  V30 END BOND
M  V30 END CTAB
M  END
>  <Dataset>  (215) 
ChEMBL_Kinases

>  <Ligand_Instance>  (215) 
nan

>  <PDB_ID>  (215) 
nan

>  <Standardized_SMILES>  (215) 
Cc1n[nH]c2cnc(-c3cc(OC[C@@H](N)Cc4c[nH]c5ccccc45)cnc3-c3ccoc3)nc12

>  <Name>  (215) 
nan

>  <Pocket>  (215) 
nan

>  <ATP_Site>  (215) 
nan

>  <Peripheral>  (215) 
nan

>  <Num_H_Atoms_ProtBoundConf>  (215) 
nan

>  <Num_Resolved_Atoms>  (215) 
nan

>  <Num_Not_Resolved_Atoms>  (215) 
nan

$$$$
CHEMBL3906555
     RDKit          3D

  0  0  0  0  0  0  0  0  0  0999 V3000
M  V30 BEGIN CTAB
M  V30 COUNTS 67 71 0 0 0
M  V30 BEGIN ATOM
M  V30 1 C 2.477644 2.113371 1.769951 0
M  V30 2 C 2.159444 2.254319 0.296011 0 CFG=1
M  V30 3 C 3.168827 1.377452 -0.416558 0
M  V30 4 N 2.677133 -0.004383 -0.176842 0
M  V30 5 C 3.816868 -0.849420 -0.149442 0
M  V30 6 C 3.586484 -2.290501 0.222060 0
M  V30 7 C 2.982440 -2.347504 1.590937 0
M  V30 8 C 1.785827 -3.250818 1.690034 0
M  V30 9 O 1.017890 -3.239826 0.530113 0
M  V30 10 C 1.746445 -3.900430 -0.425901 0
M  V30 11 C 2.958915 -3.096806 -0.835240 0
M  V30 12 C 1.722123 -0.211118 -1.217988 0
M  V30 13 C 0.870108 1.063945 -1.331576 0
M  V30 14 N 0.835805 1.736110 -0.050222 0
M  V30 15 C -0.242596 1.964309 0.878586 0
M  V30 16 O 0.070681 2.627059 1.931634 0
M  V30 17 N -1.636638 1.573548 0.833900 0
M  V30 18 C -2.609513 0.858640 0.019692 0
M  V30 19 C -3.282097 -0.071757 0.938664 0
M  V30 20 C -3.902430 -1.294899 1.166092 0
M  V30 21 N -4.077612 -2.286879 0.141836 0
M  V30 22 C -2.960252 -3.165928 0.129076 0
M  V30 23 O -2.039888 -2.975501 0.950246 0
M  V30 24 C -2.833828 -4.281930 -0.796400 0
M  V30 25 C -1.757375 -5.142114 -0.809281 0
M  V30 26 O -1.929579 -6.035855 -1.747414 0
M  V30 27 C -3.086793 -5.796006 -2.357876 0
M  V30 28 N -3.659256 -4.711954 -1.779935 0
M  V30 29 N -4.258718 -1.305884 2.464322 0
M  V30 30 N -3.903534 -0.179023 3.053966 0
M  V30 31 C -3.294791 0.602737 2.123653 0
M  V30 32 C -2.625372 1.890692 1.813365 0
M  V30 33 C -3.688848 2.846783 1.312085 0
M  V30 34 C -2.071728 2.447351 3.111007 0
M  V30 35 H 2.304555 3.095064 2.246634 0
M  V30 36 H 3.594671 1.950572 1.894000 0
M  V30 37 H 1.931442 1.334501 2.290604 0
M  V30 38 H 2.177484 3.304557 -0.043938 0
M  V30 39 H 3.239563 1.610297 -1.487247 0
M  V30 40 H 4.155164 1.440427 0.086415 0
M  V30 41 H 4.500053 -0.417070 0.644352 0
M  V30 42 H 4.439860 -0.787679 -1.072872 0
M  V30 43 H 4.641319 -2.719611 0.359494 0
M  V30 44 H 3.706880 -2.658782 2.367390 0
M  V30 45 H 2.633265 -1.329234 1.894652 0
M  V30 46 H 2.149605 -4.293435 1.798685 0
M  V30 47 H 1.205177 -2.983328 2.596064 0
M  V30 48 H 1.175093 -4.145908 -1.327809 0
M  V30 49 H 2.128203 -4.848390 0.051229 0
M  V30 50 H 3.677371 -3.885494 -1.242222 0
M  V30 51 H 2.686173 -2.537573 -1.750811 0
M  V30 52 H 2.213168 -0.313500 -2.228675 0
M  V30 53 H 0.991746 -1.011818 -1.058409 0
M  V30 54 H -0.109785 0.825472 -1.745328 0
M  V30 55 H 1.333373 1.790898 -2.051446 0
M  V30 56 H -3.335799 1.631074 -0.365315 0
M  V30 57 H -2.183582 0.353907 -0.857519 0
M  V30 58 H -4.864379 -2.434179 -0.545533 0
M  V30 59 H -0.869822 -5.132947 -0.164920 0
M  V30 60 H -3.461401 -6.400066 -3.176882 0
M  V30 61 H -4.049904 0.094980 4.056949 0
M  V30 62 H -3.983906 3.527253 2.150744 0
M  V30 63 H -4.632791 2.334945 1.015102 0
M  V30 64 H -3.367270 3.472226 0.479814 0
M  V30 65 H -1.773084 3.505189 3.002058 0
M  V30 66 H -1.314430 1.798537 3.578628 0
M  V30 67 H -2.943032 2.411121 3.838333 0
M  V30 END ATOM
M  V30 BEGIN BOND
M  V30 1 1 1 2
M  V30 2 1 2 3
M  V30 3 1 3 4
M  V30 4 1 4 5
M  V30 5 1 5 6
M  V30 6 1 6 7
M  V30 7 1 7 8
M  V30 8 1 8 9
M  V30 9 1 9 10
M  V30 10 1 10 11
M  V30 11 1 4 12
M  V30 12 1 12 13
M  V30 13 1 13 14
M  V30 14 1 14 15
M  V30 15 2 15 16
M  V30 16 1 15 17
M  V30 17 1 17 18
M  V30 18 1 18 19
M  V30 19 1 19 20
M  V30 20 1 20 21
M  V30 21 1 21 22
M  V30 22 2 22 23
M  V30 23 1 22 24
M  V30 24 2 24 25
M  V30 25 1 25 26
M  V30 26 1 26 27
M  V30 27 2 27 28
M  V30 28 2 20 29
M  V30 29 1 29 30
M  V30 30 1 30 31
M  V30 31 1 31 32
M  V30 32 1 32 33
M  V30 33 1 32 34
M  V30 34 1 14 2
M  V30 35 1 32 17
M  V30 36 1 11 6
M  V30 37 2 31 19
M  V30 38 1 28 24
M  V30 39 1 1 35
M  V30 40 1 1 36
M  V30 41 1 1 37
M  V30 42 1 2 38 CFG=3
M  V30 43 1 3 39
M  V30 44 1 3 40
M  V30 45 1 5 41
M  V30 46 1 5 42
M  V30 47 1 6 43
M  V30 48 1 7 44
M  V30 49 1 7 45
M  V30 50 1 8 46
M  V30 51 1 8 47
M  V30 52 1 10 48
M  V30 53 1 10 49
M  V30 54 1 11 50
M  V30 55 1 11 51
M  V30 56 1 12 52
M  V30 57 1 12 53
M  V30 58 1 13 54
M  V30 59 1 13 55
M  V30 60 1 18 56
M  V30 61 1 18 57
M  V30 62 1 21 58
M  V30 63 1 25 59
M  V30 64 1 27 60
M  V30 65 1 30 61
M  V30 66 1 33 62
M  V30 67 1 33 63
M  V30 68 1 33 64
M  V30 69 1 34 65
M  V30 70 1 34 66
M  V30 71 1 34 67
M  V30 END BOND
M  V30 END CTAB
M  END
>  <Dataset>  (216) 
ChEMBL_Kinases

>  <Ligand_Instance>  (216) 
nan

>  <PDB_ID>  (216) 
nan

>  <Standardized_SMILES>  (216) 
C[C@H]1CN(CC2CCOCC2)CCN1C(=O)N1Cc2c(NC(=O)c3cocn3)n[nH]c2C1(C)C

>  <Name>  (216) 
nan

>  <Pocket>  (216) 
nan

>  <ATP_Site>  (216) 
nan

>  <Peripheral>  (216) 
nan

>  <Num_H_Atoms_ProtBoundConf>  (216) 
nan

>  <Num_Resolved_Atoms>  (216) 
nan

>  <Num_Not_Resolved_Atoms>  (216) 
nan

$$$$
CHEMBL3901906
     RDKit          3D

  0  0  0  0  0  0  0  0  0  0999 V3000
M  V30 BEGIN CTAB
M  V30 COUNTS 63 67 0 0 0
M  V30 BEGIN ATOM
M  V30 1 C 2.529742 2.759863 2.344822 0
M  V30 2 C 2.557632 1.824808 1.192275 0 CFG=1
M  V30 3 C 3.250339 0.514743 1.558657 0
M  V30 4 N 3.408734 -0.325581 0.455476 0
M  V30 5 C 4.589924 -1.063464 0.277759 0
M  V30 6 C 4.778461 -2.192781 1.249579 0
M  V30 7 C 4.847204 -2.009212 2.702009 0
M  V30 8 C 3.665757 -2.744203 2.050510 0
M  V30 9 C 2.517173 -0.260641 -0.628619 0
M  V30 10 C 1.567060 0.878908 -0.692932 0
M  V30 11 N 1.281152 1.432436 0.644087 0
M  V30 12 C 0.023106 1.561739 1.316580 0
M  V30 13 O 0.205060 2.087175 2.444359 0
M  V30 14 N -1.343683 1.271798 1.080625 0
M  V30 15 C -2.148675 0.676712 -0.012480 0
M  V30 16 C -2.912450 -0.376429 0.678988 0
M  V30 17 C -3.486074 -1.614079 0.628859 0
M  V30 18 N -3.609165 -2.598439 -0.374346 0
M  V30 19 C -3.219367 -2.615962 -1.731543 0
M  V30 20 O -2.660012 -1.603355 -2.189401 0
M  V30 21 C -3.439952 -3.762905 -2.623989 0
M  V30 22 C -3.027690 -3.688574 -3.930805 0
M  V30 23 C -3.242461 -4.780563 -4.771200 0
M  V30 24 C -3.863528 -5.905787 -4.265378 0
M  V30 25 C -4.271761 -5.961380 -2.944871 0
M  V30 26 N -4.044500 -4.883894 -2.168036 0
M  V30 27 N -4.034935 -1.829722 1.835293 0
M  V30 28 N -3.819754 -0.785326 2.604831 0
M  V30 29 C -3.127147 0.142332 1.930182 0
M  V30 30 C -2.480689 1.501851 1.938203 0
M  V30 31 C -2.108463 1.880997 3.355616 0
M  V30 32 C -3.496307 2.463625 1.363978 0
M  V30 33 H 1.859473 3.616347 2.131893 0
M  V30 34 H 2.293955 2.338202 3.322909 0
M  V30 35 H 3.562935 3.242838 2.383315 0
M  V30 36 H 3.163943 2.278112 0.372871 0
M  V30 37 H 2.750007 0.038650 2.406993 0
M  V30 38 H 4.270922 0.847164 1.914087 0
M  V30 39 H 5.462355 -0.368002 0.461389 0
M  V30 40 H 4.714534 -1.473737 -0.758355 0
M  V30 41 H 5.483045 -3.013946 0.857970 0
M  V30 42 H 5.506953 -2.704822 3.299729 0
M  V30 43 H 4.676832 -1.075041 3.239441 0
M  V30 44 H 2.696521 -2.274707 2.190931 0
M  V30 45 H 3.614484 -3.864355 2.211640 0
M  V30 46 H 1.973867 -1.243756 -0.711512 0
M  V30 47 H 3.131121 -0.224412 -1.570761 0
M  V30 48 H 2.043518 1.735838 -1.260100 0
M  V30 49 H 0.700061 0.606334 -1.265157 0
M  V30 50 H -1.513576 0.327298 -0.817752 0
M  V30 51 H -2.881027 1.451570 -0.335453 0
M  V30 52 H -4.066059 -3.528200 -0.148648 0
M  V30 53 H -2.545020 -2.786915 -4.279998 0
M  V30 54 H -2.903725 -4.677462 -5.786148 0
M  V30 55 H -4.000807 -6.730698 -4.984695 0
M  V30 56 H -4.756357 -6.858416 -2.580996 0
M  V30 57 H -4.146578 -0.706193 3.592253 0
M  V30 58 H -3.074220 1.900304 3.916941 0
M  V30 59 H -1.733525 2.899294 3.354146 0
M  V30 60 H -1.413319 1.136431 3.739285 0
M  V30 61 H -3.935910 3.031280 2.243904 0
M  V30 62 H -3.099111 3.187334 0.652803 0
M  V30 63 H -4.375488 1.966410 0.908281 0
M  V30 END ATOM
M  V30 BEGIN BOND
M  V30 1 1 1 2
M  V30 2 1 2 3
M  V30 3 1 3 4
M  V30 4 1 4 5
M  V30 5 1 5 6
M  V30 6 1 6 7
M  V30 7 1 7 8
M  V30 8 1 4 9
M  V30 9 1 9 10
M  V30 10 1 10 11
M  V30 11 1 11 12
M  V30 12 2 12 13
M  V30 13 1 12 14
M  V30 14 1 14 15
M  V30 15 1 15 16
M  V30 16 1 16 17
M  V30 17 1 17 18
M  V30 18 1 18 19
M  V30 19 2 19 20
M  V30 20 1 19 21
M  V30 21 2 21 22
M  V30 22 1 22 23
M  V30 23 2 23 24
M  V30 24 1 24 25
M  V30 25 2 25 26
M  V30 26 2 17 27
M  V30 27 1 27 28
M  V30 28 1 28 29
M  V30 29 1 29 30
M  V30 30 1 30 31
M  V30 31 1 30 32
M  V30 32 1 11 2
M  V30 33 1 30 14
M  V30 34 1 8 6
M  V30 35 2 29 16
M  V30 36 1 26 21
M  V30 37 1 1 33
M  V30 38 1 1 34
M  V30 39 1 1 35
M  V30 40 1 2 36 CFG=3
M  V30 41 1 3 37
M  V30 42 1 3 38
M  V30 43 1 5 39
M  V30 44 1 5 40
M  V30 45 1 6 41
M  V30 46 1 7 42
M  V30 47 1 7 43
M  V30 48 1 8 44
M  V30 49 1 8 45
M  V30 50 1 9 46
M  V30 51 1 9 47
M  V30 52 1 10 48
M  V30 53 1 10 49
M  V30 54 1 15 50
M  V30 55 1 15 51
M  V30 56 1 18 52
M  V30 57 1 22 53
M  V30 58 1 23 54
M  V30 59 1 24 55
M  V30 60 1 25 56
M  V30 61 1 28 57
M  V30 62 1 31 58
M  V30 63 1 31 59
M  V30 64 1 31 60
M  V30 65 1 32 61
M  V30 66 1 32 62
M  V30 67 1 32 63
M  V30 END BOND
M  V30 END CTAB
M  END
>  <Dataset>  (217) 
ChEMBL_Kinases

>  <Ligand_Instance>  (217) 
nan

>  <PDB_ID>  (217) 
nan

>  <Standardized_SMILES>  (217) 
C[C@H]1CN(CC2CC2)CCN1C(=O)N1Cc2c(NC(=O)c3ccccn3)n[nH]c2C1(C)C

>  <Name>  (217) 
nan

>  <Pocket>  (217) 
nan

>  <ATP_Site>  (217) 
nan

>  <Peripheral>  (217) 
nan

>  <Num_H_Atoms_ProtBoundConf>  (217) 
nan

>  <Num_Resolved_Atoms>  (217) 
nan

>  <Num_Not_Resolved_Atoms>  (217) 
nan

$$$$
CHEMBL3901866
     RDKit          3D

  0  0  0  0  0  0  0  0  0  0999 V3000
M  V30 BEGIN CTAB
M  V30 COUNTS 43 46 0 0 0
M  V30 BEGIN ATOM
M  V30 1 C 0.350458 -4.221464 2.589251 0
M  V30 2 C 0.745705 -3.967464 1.350156 0
M  V30 3 C 1.435788 -5.239719 0.946765 0
M  V30 4 C 1.394364 -6.438008 1.580527 0
M  V30 5 C 2.266182 -7.356613 1.059427 0
M  V30 6 C 3.141850 -7.186515 0.000040 0
M  V30 7 C 3.045932 -5.925374 -0.516260 0
M  V30 8 C 2.228291 -4.789742 -0.162352 0
M  V30 9 C 0.520869 -2.628570 0.756849 0
M  V30 10 C 0.546825 -1.706990 1.889944 0
M  V30 11 C 0.258970 -0.452285 1.259554 0
M  V30 12 C 0.016862 -0.180446 -0.033977 0
M  V30 13 C -0.232912 1.043251 -0.536629 0
M  V30 14 C -0.428123 2.408292 -0.152648 0
M  V30 15 C -0.584971 3.031200 0.974348 0
M  V30 16 C -0.787445 4.339108 1.509650 0
M  V30 17 C -0.885271 5.255753 0.420798 0
M  V30 18 C -1.088610 6.628408 0.698431 0
M  V30 19 C -1.200346 7.134002 2.052377 0
M  V30 20 C -1.081147 6.094023 2.875902 0
M  V30 21 C -0.889362 4.759904 2.798837 0
M  V30 22 N -0.387652 0.792281 -1.862256 0
M  V30 23 N -0.241818 -0.479071 -2.125803 0
M  V30 24 C 0.027612 -1.188655 -0.973542 0
M  V30 25 C 0.298909 -2.457986 -0.515965 0
M  V30 26 H 0.085583 -4.536426 3.568395 0
M  V30 27 H -0.176974 -3.585830 3.367102 0
M  V30 28 H 0.700812 -6.532117 2.399289 0
M  V30 29 H 2.253056 -8.343499 1.573459 0
M  V30 30 H 3.822239 -7.922167 -0.383469 0
M  V30 31 H 3.748766 -5.804272 -1.374285 0
M  V30 32 H 2.390095 -3.909313 -0.727899 0
M  V30 33 H 0.735782 -1.847956 2.894006 0
M  V30 34 H 0.261273 0.336046 2.049204 0
M  V30 35 H -0.374833 3.270433 -0.849225 0
M  V30 36 H -0.587794 2.361341 1.837848 0
M  V30 37 H -0.838077 5.119893 -0.646086 0
M  V30 38 H -1.170553 7.394577 -0.092344 0
M  V30 39 H -1.353094 8.169204 2.092446 0
M  V30 40 H -1.146655 6.398178 3.959119 0
M  V30 41 H -0.807552 4.047984 3.585561 0
M  V30 42 H -0.312701 -1.021516 -3.032909 0
M  V30 43 H 0.274634 -3.241261 -1.214844 0
M  V30 END ATOM
M  V30 BEGIN BOND
M  V30 1 2 1 2
M  V30 2 1 2 3
M  V30 3 2 3 4
M  V30 4 1 4 5
M  V30 5 2 5 6
M  V30 6 1 6 7
M  V30 7 2 7 8
M  V30 8 1 2 9
M  V30 9 2 9 10
M  V30 10 1 10 11
M  V30 11 2 11 12
M  V30 12 1 12 13
M  V30 13 1 13 14
M  V30 14 2 14 15
M  V30 15 1 15 16
M  V30 16 2 16 17
M  V30 17 1 17 18
M  V30 18 2 18 19
M  V30 19 1 19 20
M  V30 20 2 20 21
M  V30 21 2 13 22
M  V30 22 1 22 23
M  V30 23 1 23 24
M  V30 24 2 24 25
M  V30 25 1 8 3
M  V30 26 1 25 9
M  V30 27 1 24 12
M  V30 28 1 21 16
M  V30 29 1 1 26
M  V30 30 1 1 27
M  V30 31 1 4 28
M  V30 32 1 5 29
M  V30 33 1 6 30
M  V30 34 1 7 31
M  V30 35 1 8 32
M  V30 36 1 10 33
M  V30 37 1 11 34
M  V30 38 1 14 35
M  V30 39 1 15 36
M  V30 40 1 17 37
M  V30 41 1 18 38
M  V30 42 1 19 39
M  V30 43 1 20 40
M  V30 44 1 21 41
M  V30 45 1 23 42
M  V30 46 1 25 43
M  V30 END BOND
M  V30 END CTAB
M  END
>  <Dataset>  (218) 
ChEMBL_Kinases

>  <Ligand_Instance>  (218) 
nan

>  <PDB_ID>  (218) 
nan

>  <Standardized_SMILES>  (218) 
C=C(c1ccccc1)c1ccc2c(/C=C/c3ccccc3)n[nH]c2c1

>  <Name>  (218) 
nan

>  <Pocket>  (218) 
nan

>  <ATP_Site>  (218) 
nan

>  <Peripheral>  (218) 
nan

>  <Num_H_Atoms_ProtBoundConf>  (218) 
nan

>  <Num_Resolved_Atoms>  (218) 
nan

>  <Num_Not_Resolved_Atoms>  (218) 
nan

$$$$
CHEMBL487829
     RDKit          3D

  0  0  0  0  0  0  0  0  0  0999 V3000
M  V30 BEGIN CTAB
M  V30 COUNTS 55 57 0 0 0
M  V30 BEGIN ATOM
M  V30 1 C 6.224186 -4.043791 0.256742 0
M  V30 2 C 5.435174 -2.791463 0.162118 0
M  V30 3 C 5.041343 -2.201098 1.344855 0
M  V30 4 C 4.308889 -1.037217 1.241492 0
M  V30 5 C 3.866904 -0.366198 2.488314 0
M  V30 6 C 4.038208 -0.571989 -0.027433 0
M  V30 7 C 3.268521 0.655447 -0.129468 0
M  V30 8 O 2.950628 1.849411 -0.205572 0
M  V30 9 O 1.909989 0.375276 -0.190757 0
M  V30 10 C 0.916463 1.381808 -0.293543 0
M  V30 11 C -0.470289 0.756539 -0.340120 0
M  V30 12 C -0.624497 -0.139118 -1.552174 0
M  V30 13 O 0.321675 -1.159447 -1.526231 0
M  V30 14 C -1.576511 1.775467 -0.423845 0
M  V30 15 C -2.659285 1.014766 0.310924 0
M  V30 16 C -3.964132 0.885890 0.138970 0
M  V30 17 C -4.834094 0.078956 0.985098 0
M  V30 18 C -4.566016 -1.194844 1.451549 0
M  V30 19 C -5.446208 -1.881329 2.260327 0
M  V30 20 C -6.661807 -1.309895 2.646102 0
M  V30 21 C -7.481681 -2.199997 3.518934 0
M  V30 22 F -8.773030 -1.719659 3.454696 0
M  V30 23 F -7.375601 -3.499414 3.025144 0
M  V30 24 F -7.027063 -2.160074 4.825872 0
M  V30 25 C -6.929508 -0.051834 2.186404 0
M  V30 26 C -6.039882 0.603081 1.388087 0
M  V30 27 C -1.887082 0.385970 1.405690 0
M  V30 28 O -2.429510 0.274939 2.567510 0
M  V30 29 O -0.639347 0.032416 0.862912 0
M  V30 30 C 4.434648 -1.167032 -1.205929 0
M  V30 31 C 4.083153 -0.577890 -2.532163 0
M  V30 32 C 5.168151 -2.332187 -1.110674 0
M  V30 33 H 7.299199 -3.880941 0.164722 0
M  V30 34 H 6.018864 -4.624220 1.193257 0
M  V30 35 H 5.922180 -4.725942 -0.583099 0
M  V30 36 H 5.309575 -2.652492 2.290294 0
M  V30 37 H 3.309065 -1.046176 3.159744 0
M  V30 38 H 4.811749 -0.076635 3.036111 0
M  V30 39 H 3.354574 0.596032 2.283583 0
M  V30 40 H 1.045796 2.025947 -1.172540 0
M  V30 41 H 0.968007 1.935642 0.683941 0
M  V30 42 H -0.407581 0.485863 -2.445021 0
M  V30 43 H -1.657238 -0.491824 -1.614627 0
M  V30 44 H 0.387458 -1.495929 -2.457703 0
M  V30 45 H -1.961203 1.891331 -1.458180 0
M  V30 46 H -1.351587 2.728502 0.053116 0
M  V30 47 H -4.363362 1.450350 -0.717213 0
M  V30 48 H -3.634864 -1.655053 1.150175 0
M  V30 49 H -5.124375 -2.888867 2.569841 0
M  V30 50 H -7.894764 0.326562 2.528332 0
M  V30 51 H -6.312369 1.597720 1.057210 0
M  V30 52 H 5.030953 -0.428133 -3.087688 0
M  V30 53 H 3.437560 -1.246434 -3.138183 0
M  V30 54 H 3.659797 0.425765 -2.382758 0
M  V30 55 H 5.515259 -2.857493 -1.989898 0
M  V30 END ATOM
M  V30 BEGIN BOND
M  V30 1 1 1 2
M  V30 2 2 2 3
M  V30 3 1 3 4
M  V30 4 1 4 5
M  V30 5 2 4 6
M  V30 6 1 6 7
M  V30 7 2 7 8
M  V30 8 1 7 9
M  V30 9 1 9 10
M  V30 10 1 10 11
M  V30 11 1 11 12
M  V30 12 1 12 13
M  V30 13 1 11 14
M  V30 14 1 14 15
M  V30 15 2 15 16
M  V30 16 1 16 17
M  V30 17 2 17 18
M  V30 18 1 18 19
M  V30 19 2 19 20
M  V30 20 1 20 21
M  V30 21 1 21 22
M  V30 22 1 21 23
M  V30 23 1 21 24
M  V30 24 1 20 25
M  V30 25 2 25 26
M  V30 26 1 15 27
M  V30 27 2 27 28
M  V30 28 1 27 29
M  V30 29 1 6 30
M  V30 30 1 30 31
M  V30 31 2 30 32
M  V30 32 1 32 2
M  V30 33 1 29 11
M  V30 34 1 26 17
M  V30 35 1 1 33
M  V30 36 1 1 34
M  V30 37 1 1 35
M  V30 38 1 3 36
M  V30 39 1 5 37
M  V30 40 1 5 38
M  V30 41 1 5 39
M  V30 42 1 10 40
M  V30 43 1 10 41
M  V30 44 1 12 42
M  V30 45 1 12 43
M  V30 46 1 13 44
M  V30 47 1 14 45
M  V30 48 1 14 46
M  V30 49 1 16 47
M  V30 50 1 18 48
M  V30 51 1 19 49
M  V30 52 1 25 50
M  V30 53 1 26 51
M  V30 54 1 31 52
M  V30 55 1 31 53
M  V30 56 1 31 54
M  V30 57 1 32 55
M  V30 END BOND
M  V30 END CTAB
M  END
>  <Dataset>  (219) 
ChEMBL_Kinases

>  <Ligand_Instance>  (219) 
nan

>  <PDB_ID>  (219) 
nan

>  <Standardized_SMILES>  (219) 
Cc1cc(C)c(C(=O)OCC2(CO)C/C(=C/c3ccc(C(F)(F)F)cc3)C(=O)O2)c(C)c1

>  <Name>  (219) 
nan

>  <Pocket>  (219) 
nan

>  <ATP_Site>  (219) 
nan

>  <Peripheral>  (219) 
nan

>  <Num_H_Atoms_ProtBoundConf>  (219) 
nan

>  <Num_Resolved_Atoms>  (219) 
nan

>  <Num_Not_Resolved_Atoms>  (219) 
nan

$$$$
CHEMBL388593
     RDKit          3D

  0  0  0  0  0  0  0  0  0  0999 V3000
M  V30 BEGIN CTAB
M  V30 COUNTS 15 16 0 0 0
M  V30 BEGIN ATOM
M  V30 1 N -1.215381 -0.334566 1.528315 0
M  V30 2 C 0.051794 -0.508744 0.887661 0
M  V30 3 N 0.353934 -1.406242 -0.074563 0
M  V30 4 C 1.630295 -1.405346 -0.553117 0
M  V30 5 N 2.613192 -0.584828 -0.146346 0
M  V30 6 C 2.336165 0.332771 0.825451 0
M  V30 7 N 3.102080 1.258486 1.413206 0
M  V30 8 N 2.341928 1.897718 2.303230 0
M  V30 9 C 1.091439 1.366263 2.270326 0
M  V30 10 C 1.032680 0.348063 1.329498 0
M  V30 11 H -2.090569 0.143473 1.174041 0
M  V30 12 H -1.122195 -0.792274 2.472041 0
M  V30 13 H 1.800829 -2.158205 -1.329119 0
M  V30 14 H 4.107100 1.437112 1.204639 0
M  V30 15 H 0.257471 1.705157 2.904057 0
M  V30 END ATOM
M  V30 BEGIN BOND
M  V30 1 1 1 2
M  V30 2 2 2 3
M  V30 3 1 3 4
M  V30 4 2 4 5
M  V30 5 1 5 6
M  V30 6 1 6 7
M  V30 7 1 7 8
M  V30 8 2 8 9
M  V30 9 1 9 10
M  V30 10 1 10 2
M  V30 11 2 10 6
M  V30 12 1 1 11
M  V30 13 1 1 12
M  V30 14 1 4 13
M  V30 15 1 7 14
M  V30 16 1 9 15
M  V30 END BOND
M  V30 END CTAB
M  END
>  <Dataset>  (220) 
ChEMBL_Kinases

>  <Ligand_Instance>  (220) 
nan

>  <PDB_ID>  (220) 
nan

>  <Standardized_SMILES>  (220) 
Nc1ncnc2[nH]ncc12

>  <Name>  (220) 
nan

>  <Pocket>  (220) 
nan

>  <ATP_Site>  (220) 
nan

>  <Peripheral>  (220) 
nan

>  <Num_H_Atoms_ProtBoundConf>  (220) 
nan

>  <Num_Resolved_Atoms>  (220) 
nan

>  <Num_Not_Resolved_Atoms>  (220) 
nan

$$$$
CHEMBL601079
     RDKit          3D

  0  0  0  0  0  0  0  0  0  0999 V3000
M  V30 BEGIN CTAB
M  V30 COUNTS 74 79 0 0 0
M  V30 BEGIN ATOM
M  V30 1 C -5.921635 -1.620665 -7.476891 0
M  V30 2 O -5.108036 -2.062610 -6.444837 0
M  V30 3 C -4.019986 -1.204496 -6.211773 0
M  V30 4 C -3.229526 -1.782433 -5.063508 0
M  V30 5 N -2.075260 -1.014185 -4.696412 0
M  V30 6 C -1.025612 -1.016891 -5.674617 0
M  V30 7 C 0.031929 -0.012367 -5.334523 0
M  V30 8 N 0.351693 -0.073501 -3.923877 0
M  V30 9 C 0.977210 0.975028 -3.192742 0
M  V30 10 C 1.171457 1.046210 -1.830628 0
M  V30 11 C 1.792529 2.076866 -1.193090 0
M  V30 12 C 1.921842 1.996952 0.259769 0
M  V30 13 O 1.460069 2.895002 0.985362 0
M  V30 14 N 2.582130 0.876803 0.834303 0
M  V30 15 C 2.842141 0.554715 2.214167 0
M  V30 16 C 3.985781 0.899095 2.889919 0
M  V30 17 C 4.142935 0.536410 4.233159 0
M  V30 18 C 3.163176 -0.168420 4.902319 0
M  V30 19 C 2.028065 -0.499791 4.198121 0
M  V30 20 C 1.854070 -0.153041 2.880447 0
M  V30 21 C 1.024308 -1.246116 4.916763 0
M  V30 22 C 1.338683 -1.534612 6.224514 0
M  V30 23 C 0.219659 -2.239572 6.681170 0
M  V30 24 C -0.023264 -2.816720 8.016013 0
M  V30 25 N -1.230209 -3.488899 8.300263 0
M  V30 26 O 0.844294 -2.713110 8.907210 0
M  V30 27 N -0.663877 -2.322511 5.645518 0
M  V30 28 N -0.163492 -1.716396 4.584412 0
M  V30 29 C -0.881105 -1.657531 3.385224 0
M  V30 30 C -0.883294 -2.559820 2.309141 0
M  V30 31 C -1.678750 -2.324390 1.204204 0
M  V30 32 C -2.486630 -1.191207 1.145213 0
M  V30 33 F -3.219846 -1.076740 0.000363 0
M  V30 34 C -2.504741 -0.278461 2.198786 0
M  V30 35 C -1.701506 -0.530715 3.296200 0
M  V30 36 C 2.521500 -1.233658 7.047259 0
M  V30 37 C 3.548888 -0.432654 6.297847 0
M  V30 38 C 2.256299 3.124880 -2.000334 0
M  V30 39 Cl 3.059620 4.451840 -1.164737 0
M  V30 40 C 2.069482 3.069876 -3.368392 0
M  V30 41 N 1.439984 2.002529 -3.913432 0
M  V30 42 C -0.045071 -1.351346 -3.362990 0
M  V30 43 C -1.540490 -1.562856 -3.459722 0
M  V30 44 H -6.774334 -2.316865 -7.635050 0
M  V30 45 H -6.387667 -0.640434 -7.179514 0
M  V30 46 H -5.420962 -1.547175 -8.455812 0
M  V30 47 H -3.454750 -1.165291 -7.165263 0
M  V30 48 H -4.473762 -0.217772 -5.971002 0
M  V30 49 H -2.967473 -2.832678 -5.336849 0
M  V30 50 H -3.911515 -1.859420 -4.206479 0
M  V30 51 H -1.507527 -0.807085 -6.653044 0
M  V30 52 H -0.576484 -2.053787 -5.697080 0
M  V30 53 H -0.322123 0.994768 -5.635797 0
M  V30 54 H 0.951615 -0.202362 -5.939808 0
M  V30 55 H 0.792590 0.209996 -1.262374 0
M  V30 56 H 2.995530 0.083348 0.262546 0
M  V30 57 H 4.735852 1.451586 2.338932 0
M  V30 58 H 5.099564 0.877961 4.639189 0
M  V30 59 H 0.972679 -0.407848 2.327737 0
M  V30 60 H -2.002104 -4.138243 8.058429 0
M  V30 61 H -1.798355 -3.416775 9.195414 0
M  V30 62 H -0.213881 -3.382972 2.497562 0
M  V30 63 H -1.614695 -3.070736 0.427129 0
M  V30 64 H -3.152318 0.579541 2.095011 0
M  V30 65 H -1.802865 0.250322 4.043871 0
M  V30 66 H 2.214454 -0.647561 7.959067 0
M  V30 67 H 2.974574 -2.208879 7.356536 0
M  V30 68 H 3.752987 0.528699 6.833900 0
M  V30 69 H 4.510628 -1.031227 6.267512 0
M  V30 70 H 2.459676 3.921431 -3.906685 0
M  V30 71 H 0.228607 -1.446805 -2.293212 0
M  V30 72 H 0.492623 -2.122159 -3.965698 0
M  V30 73 H -2.067188 -1.162841 -2.573137 0
M  V30 74 H -1.722577 -2.654432 -3.479725 0
M  V30 END ATOM
M  V30 BEGIN BOND
M  V30 1 1 1 2
M  V30 2 1 2 3
M  V30 3 1 3 4
M  V30 4 1 4 5
M  V30 5 1 5 6
M  V30 6 1 6 7
M  V30 7 1 7 8
M  V30 8 1 8 9
M  V30 9 2 9 10
M  V30 10 1 10 11
M  V30 11 1 11 12
M  V30 12 2 12 13
M  V30 13 1 12 14
M  V30 14 1 14 15
M  V30 15 2 15 16
M  V30 16 1 16 17
M  V30 17 2 17 18
M  V30 18 1 18 19
M  V30 19 2 19 20
M  V30 20 1 19 21
M  V30 21 2 21 22
M  V30 22 1 22 23
M  V30 23 1 23 24
M  V30 24 1 24 25
M  V30 25 2 24 26
M  V30 26 2 23 27
M  V30 27 1 27 28
M  V30 28 1 28 29
M  V30 29 2 29 30
M  V30 30 1 30 31
M  V30 31 2 31 32
M  V30 32 1 32 33
M  V30 33 1 32 34
M  V30 34 2 34 35
M  V30 35 1 22 36
M  V30 36 1 36 37
M  V30 37 2 11 38
M  V30 38 1 38 39
M  V30 39 1 38 40
M  V30 40 2 40 41
M  V30 41 1 8 42
M  V30 42 1 42 43
M  V30 43 1 43 5
M  V30 44 1 41 9
M  V30 45 1 20 15
M  V30 46 1 28 21
M  V30 47 1 35 29
M  V30 48 1 37 18
M  V30 49 1 1 44
M  V30 50 1 1 45
M  V30 51 1 1 46
M  V30 52 1 3 47
M  V30 53 1 3 48
M  V30 54 1 4 49
M  V30 55 1 4 50
M  V30 56 1 6 51
M  V30 57 1 6 52
M  V30 58 1 7 53
M  V30 59 1 7 54
M  V30 60 1 10 55
M  V30 61 1 14 56
M  V30 62 1 16 57
M  V30 63 1 17 58
M  V30 64 1 20 59
M  V30 65 1 25 60
M  V30 66 1 25 61
M  V30 67 1 30 62
M  V30 68 1 31 63
M  V30 69 1 34 64
M  V30 70 1 35 65
M  V30 71 1 36 66
M  V30 72 1 36 67
M  V30 73 1 37 68
M  V30 74 1 37 69
M  V30 75 1 40 70
M  V30 76 1 42 71
M  V30 77 1 42 72
M  V30 78 1 43 73
M  V30 79 1 43 74
M  V30 END BOND
M  V30 END CTAB
M  END
>  <Dataset>  (221) 
ChEMBL_Kinases

>  <Ligand_Instance>  (221) 
nan

>  <PDB_ID>  (221) 
nan

>  <Standardized_SMILES>  (221) 
COCCN1CCN(c2cc(C(=O)Nc3ccc4c(c3)-c3c(c(C(N)=O)nn3-c3ccc(F)cc3)CC4)c(Cl)cn2)CC1

>  <Name>  (221) 
nan

>  <Pocket>  (221) 
nan

>  <ATP_Site>  (221) 
nan

>  <Peripheral>  (221) 
nan

>  <Num_H_Atoms_ProtBoundConf>  (221) 
nan

>  <Num_Resolved_Atoms>  (221) 
nan

>  <Num_Not_Resolved_Atoms>  (221) 
nan

$$$$
CHEMBL388590
     RDKit          3D

  0  0  0  0  0  0  0  0  0  0999 V3000
M  V30 BEGIN CTAB
M  V30 COUNTS 34 36 0 0 0
M  V30 BEGIN ATOM
M  V30 1 C -0.098643 -3.702812 -1.007821 0
M  V30 2 C 1.163207 -2.930877 -1.411074 0
M  V30 3 C 1.564738 -2.068779 -0.263170 0
M  V30 4 O 2.612495 -2.395444 0.483727 0
M  V30 5 C 2.819231 -1.532112 1.437389 0
M  V30 6 C 3.794745 -1.522040 2.400870 0
M  V30 7 C 3.784632 -0.468966 3.295451 0
M  V30 8 C 2.811762 0.499958 3.174212 0
M  V30 9 C 1.861788 0.424246 2.181163 0
M  V30 10 C 1.827353 -0.600810 1.271155 0
M  V30 11 C 0.997087 -0.877288 0.217590 0
M  V30 12 C -0.127013 -0.257937 -0.374228 0
M  V30 13 O -0.017283 -0.431654 -1.633551 0
M  V30 14 C -1.316594 0.469502 -0.070553 0
M  V30 15 C -2.319577 0.453769 -1.057315 0
M  V30 16 C -3.541746 1.079903 -0.888358 0
M  V30 17 Br -4.923896 1.079200 -2.204266 0
M  V30 18 C -3.793139 1.744986 0.283813 0
M  V30 19 O -5.016867 2.383439 0.476697 0
M  V30 20 C -2.873677 1.815356 1.306754 0
M  V30 21 Br -3.191684 2.731582 2.945707 0
M  V30 22 C -1.696199 1.165714 1.046995 0
M  V30 23 H -0.924533 -3.524082 -1.727243 0
M  V30 24 H -0.454361 -3.305218 -0.028225 0
M  V30 25 H 0.132913 -4.770013 -0.861042 0
M  V30 26 H 1.952583 -3.685788 -1.614777 0
M  V30 27 H 0.983790 -2.342794 -2.327950 0
M  V30 28 H 4.553567 -2.269222 2.503688 0
M  V30 29 H 4.543363 -0.415824 4.086775 0
M  V30 30 H 2.789711 1.344997 3.876375 0
M  V30 31 H 1.149934 1.218089 2.120955 0
M  V30 32 H -2.278173 -0.032786 -2.046300 0
M  V30 33 H -5.770119 1.968418 1.010985 0
M  V30 34 H -1.001002 1.211802 1.853812 0
M  V30 END ATOM
M  V30 BEGIN BOND
M  V30 1 1 1 2
M  V30 2 1 2 3
M  V30 3 1 3 4
M  V30 4 1 4 5
M  V30 5 2 5 6
M  V30 6 1 6 7
M  V30 7 2 7 8
M  V30 8 1 8 9
M  V30 9 2 9 10
M  V30 10 1 10 11
M  V30 11 1 11 12
M  V30 12 2 12 13
M  V30 13 1 12 14
M  V30 14 2 14 15
M  V30 15 1 15 16
M  V30 16 1 16 17
M  V30 17 2 16 18
M  V30 18 1 18 19
M  V30 19 1 18 20
M  V30 20 1 20 21
M  V30 21 2 20 22
M  V30 22 2 11 3
M  V30 23 1 22 14
M  V30 24 1 10 5
M  V30 25 1 1 23
M  V30 26 1 1 24
M  V30 27 1 1 25
M  V30 28 1 2 26
M  V30 29 1 2 27
M  V30 30 1 6 28
M  V30 31 1 7 29
M  V30 32 1 8 30
M  V30 33 1 9 31
M  V30 34 1 15 32
M  V30 35 1 19 33
M  V30 36 1 22 34
M  V30 END BOND
M  V30 END CTAB
M  END
>  <Dataset>  (222) 
ChEMBL_Kinases

>  <Ligand_Instance>  (222) 
nan

>  <PDB_ID>  (222) 
nan

>  <Standardized_SMILES>  (222) 
CCc1oc2ccccc2c1C(=O)c1cc(Br)c(O)c(Br)c1

>  <Name>  (222) 
BENZBROMARONE

>  <Pocket>  (222) 
nan

>  <ATP_Site>  (222) 
nan

>  <Peripheral>  (222) 
nan

>  <Num_H_Atoms_ProtBoundConf>  (222) 
nan

>  <Num_Resolved_Atoms>  (222) 
nan

>  <Num_Not_Resolved_Atoms>  (222) 
nan

$$$$
CHEMBL3910848
     RDKit          3D

  0  0  0  0  0  0  0  0  0  0999 V3000
M  V30 BEGIN CTAB
M  V30 COUNTS 41 46 0 0 0
M  V30 BEGIN ATOM
M  V30 1 C 2.503620 -4.548708 2.715773 0
M  V30 2 C 1.597565 -5.374374 2.080723 0
M  V30 3 N 0.918406 -4.927085 1.002973 0
M  V30 4 C 1.091426 -3.686161 0.512875 0
M  V30 5 C 0.363469 -3.295055 -0.592477 0
M  V30 6 C 0.590399 -2.010060 -1.041949 0
M  V30 7 C 1.477028 -1.071086 -0.494463 0
M  V30 8 N 1.640572 0.203468 -1.039012 0
M  V30 9 C 2.582461 0.351656 -1.995555 0
M  V30 10 N 2.588951 1.655944 -2.397147 0
M  V30 11 C 1.647416 2.337715 -1.692496 0
M  V30 12 C 1.272024 3.664459 -1.731305 0
M  V30 13 N 0.278023 4.023335 -0.878037 0
M  V30 14 C -0.284101 3.117812 -0.059522 0
M  V30 15 C -1.286991 3.521226 0.788864 0
M  V30 16 N -1.854052 2.622052 1.610241 0
M  V30 17 C -1.526875 1.335504 1.683535 0
M  V30 18 C -2.225543 0.467635 2.622786 0
M  V30 19 C -1.911761 -0.859833 2.721449 0
M  V30 20 C -2.623109 -1.619480 3.640165 0
M  V30 21 S -3.824714 -0.407131 4.435656 0
M  V30 22 C -3.251698 0.951690 3.469215 0
M  V30 23 C -0.525240 0.898829 0.846446 0
M  V30 24 C 0.079412 1.788951 -0.008571 0
M  V30 25 C 1.081630 1.403271 -0.861672 0
M  V30 26 C 2.163942 -1.569678 0.621680 0
M  V30 27 C 1.989453 -2.840178 1.126701 0
M  V30 28 C 2.695697 -3.271021 2.228088 0
M  V30 29 H 3.102637 -4.818942 3.596199 0
M  V30 30 H 1.467674 -6.375558 2.487922 0
M  V30 31 H -0.346486 -3.910246 -1.108013 0
M  V30 32 H 0.031506 -1.678165 -1.908452 0
M  V30 33 H 3.293867 -0.337534 -2.475224 0
M  V30 34 H 1.772807 4.331963 -2.418300 0
M  V30 35 H -1.638716 4.549871 0.817498 0
M  V30 36 H -1.172304 -1.416431 2.174482 0
M  V30 37 H -2.556386 -2.695211 3.901641 0
M  V30 38 H -3.618003 1.940866 3.523916 0
M  V30 39 H -0.276837 -0.137241 0.920067 0
M  V30 40 H 2.863549 -0.866480 1.074978 0
M  V30 41 H 3.382119 -2.546641 2.653404 0
M  V30 END ATOM
M  V30 BEGIN BOND
M  V30 1 2 1 2
M  V30 2 1 2 3
M  V30 3 2 3 4
M  V30 4 1 4 5
M  V30 5 2 5 6
M  V30 6 1 6 7
M  V30 7 1 7 8
M  V30 8 1 8 9
M  V30 9 2 9 10
M  V30 10 1 10 11
M  V30 11 2 11 12
M  V30 12 1 12 13
M  V30 13 2 13 14
M  V30 14 1 14 15
M  V30 15 2 15 16
M  V30 16 1 16 17
M  V30 17 1 17 18
M  V30 18 1 18 19
M  V30 19 2 19 20
M  V30 20 1 20 21
M  V30 21 1 21 22
M  V30 22 2 17 23
M  V30 23 1 23 24
M  V30 24 2 24 25
M  V30 25 2 7 26
M  V30 26 1 26 27
M  V30 27 2 27 28
M  V30 28 1 28 1
M  V30 29 1 27 4
M  V30 30 1 25 8
M  V30 31 1 25 11
M  V30 32 1 24 14
M  V30 33 2 22 18
M  V30 34 1 1 29
M  V30 35 1 2 30
M  V30 36 1 5 31
M  V30 37 1 6 32
M  V30 38 1 9 33
M  V30 39 1 12 34
M  V30 40 1 15 35
M  V30 41 1 19 36
M  V30 42 1 20 37
M  V30 43 1 22 38
M  V30 44 1 23 39
M  V30 45 1 26 40
M  V30 46 1 28 41
M  V30 END BOND
M  V30 END CTAB
M  END
>  <Dataset>  (223) 
ChEMBL_Kinases

>  <Ligand_Instance>  (223) 
nan

>  <PDB_ID>  (223) 
nan

>  <Standardized_SMILES>  (223) 
c1cnc2ccc(-n3cnc4cnc5cnc(-c6ccsc6)cc5c43)cc2c1

>  <Name>  (223) 
nan

>  <Pocket>  (223) 
nan

>  <ATP_Site>  (223) 
nan

>  <Peripheral>  (223) 
nan

>  <Num_H_Atoms_ProtBoundConf>  (223) 
nan

>  <Num_Resolved_Atoms>  (223) 
nan

>  <Num_Not_Resolved_Atoms>  (223) 
nan

$$$$
CHEMBL388582
     RDKit          3D

  0  0  0  0  0  0  0  0  0  0999 V3000
M  V30 BEGIN CTAB
M  V30 COUNTS 20 21 0 0 0
M  V30 BEGIN ATOM
M  V30 1 O -2.845931 1.009971 0.642608 0
M  V30 2 C -1.645313 0.645477 0.752759 0
M  V30 3 C -0.924196 1.166309 1.914571 0
M  V30 4 C 0.531285 0.857069 1.973367 0
M  V30 5 C 1.038141 -0.037302 0.929187 0
M  V30 6 C 2.389371 -0.357041 1.051922 0
M  V30 7 C 2.993428 -1.190171 0.135169 0
M  V30 8 C 2.243424 -1.695350 -0.893951 0
M  V30 9 C 0.901152 -1.388359 -1.030826 0
M  V30 10 C 0.283774 -0.546293 -0.107151 0
M  V30 11 N -1.096791 -0.233111 -0.251545 0
M  V30 12 H -1.057381 2.279896 1.906667 0
M  V30 13 H -1.465781 0.797116 2.828566 0
M  V30 14 H 1.143889 1.804242 2.013970 0
M  V30 15 H 0.746073 0.384810 2.974381 0
M  V30 16 H 3.020204 0.010969 1.837430 0
M  V30 17 H 4.044323 -1.451289 0.213084 0
M  V30 18 H 2.672398 -2.349942 -1.633597 0
M  V30 19 H 0.275926 -1.771848 -1.835714 0
M  V30 20 H -1.687900 -0.606272 -1.027460 0
M  V30 END ATOM
M  V30 BEGIN BOND
M  V30 1 2 1 2
M  V30 2 1 2 3
M  V30 3 1 3 4
M  V30 4 1 4 5
M  V30 5 2 5 6
M  V30 6 1 6 7
M  V30 7 2 7 8
M  V30 8 1 8 9
M  V30 9 2 9 10
M  V30 10 1 10 11
M  V30 11 1 11 2
M  V30 12 1 10 5
M  V30 13 1 3 12
M  V30 14 1 3 13
M  V30 15 1 4 14
M  V30 16 1 4 15
M  V30 17 1 6 16
M  V30 18 1 7 17
M  V30 19 1 8 18
M  V30 20 1 9 19
M  V30 21 1 11 20
M  V30 END BOND
M  V30 END CTAB
M  END
>  <Dataset>  (224) 
ChEMBL_Kinases

>  <Ligand_Instance>  (224) 
nan

>  <PDB_ID>  (224) 
nan

>  <Standardized_SMILES>  (224) 
O=C1CCc2ccccc2N1

>  <Name>  (224) 
nan

>  <Pocket>  (224) 
nan

>  <ATP_Site>  (224) 
nan

>  <Peripheral>  (224) 
nan

>  <Num_H_Atoms_ProtBoundConf>  (224) 
nan

>  <Num_Resolved_Atoms>  (224) 
nan

>  <Num_Not_Resolved_Atoms>  (224) 
nan

$$$$
CHEMBL3910964
     RDKit          3D

  0  0  0  0  0  0  0  0  0  0999 V3000
M  V30 BEGIN CTAB
M  V30 COUNTS 46 50 0 0 0
M  V30 BEGIN ATOM
M  V30 1 O -5.416669 -1.538918 3.623317 0
M  V30 2 C -4.170484 -1.646869 3.520430 0
M  V30 3 C -3.231411 -2.178899 4.549817 0
M  V30 4 O -2.198626 -1.220532 4.702721 0
M  V30 5 C -1.522511 -0.797724 3.568826 0
M  V30 6 C -0.208605 -0.379700 3.610546 0
M  V30 7 C 0.447386 0.037553 2.470664 0
M  V30 8 C -0.184947 0.056933 1.222662 0
M  V30 9 C 0.490307 0.494104 -0.000606 0
M  V30 10 O -0.411049 0.366568 -1.053904 0
M  V30 11 C 0.874559 1.924681 0.210510 0
M  V30 12 C 0.156501 3.047820 0.471125 0
M  V30 13 C 0.865689 4.224496 0.611690 0
M  V30 14 C 2.242577 4.334344 0.505977 0
M  V30 15 C 2.964485 3.178184 0.239173 0
M  V30 16 C 2.248290 2.000539 0.099051 0
M  V30 17 C 2.826098 0.690760 -0.184511 0
M  V30 18 O 3.995159 0.299473 -0.359409 0
M  V30 19 N 1.719631 -0.212678 -0.243705 0
M  V30 20 C 1.645467 -1.610178 -0.492356 0
M  V30 21 C 1.713196 -2.603066 0.458028 0
M  V30 22 C 1.634962 -3.948811 0.171429 0
M  V30 23 C 1.479102 -4.336157 -1.147436 0
M  V30 24 C 1.406449 -3.377147 -2.133323 0
M  V30 25 N 1.245747 -3.856209 -3.464715 0 CHG=1 VAL=4
M  V30 26 O 1.166048 -3.095831 -4.451309 0
M  V30 27 O 1.163331 -5.189415 -3.793254 0 CHG=-1 VAL=1
M  V30 28 C 1.488542 -2.017606 -1.815083 0
M  V30 29 C -1.497362 -0.371009 1.238757 0
M  V30 30 C -2.187097 -0.795125 2.356421 0
M  V30 31 N -3.542185 -1.222781 2.293441 0
M  V30 32 H -3.741408 -2.398344 5.501782 0
M  V30 33 H -2.781651 -3.107949 4.095720 0
M  V30 34 H 0.301834 -0.386486 4.568055 0
M  V30 35 H 1.478153 0.367469 2.493545 0
M  V30 36 H -0.095214 0.843613 -1.860283 0
M  V30 37 H -0.919947 3.047632 0.568558 0
M  V30 38 H 0.378353 5.181259 0.822232 0
M  V30 39 H 2.773056 5.255653 0.618512 0
M  V30 40 H 4.040811 3.234646 0.151466 0
M  V30 41 H 1.835078 -2.302042 1.482686 0
M  V30 42 H 1.692903 -4.690861 0.950517 0
M  V30 43 H 1.419667 -5.403648 -1.349548 0
M  V30 44 H 1.423435 -1.328706 -2.644834 0
M  V30 45 H -2.066835 -0.390533 0.319644 0
M  V30 46 H -4.052517 -1.224971 1.384873 0
M  V30 END ATOM
M  V30 BEGIN BOND
M  V30 1 2 1 2
M  V30 2 1 2 3
M  V30 3 1 3 4
M  V30 4 1 4 5
M  V30 5 2 5 6
M  V30 6 1 6 7
M  V30 7 2 7 8
M  V30 8 1 8 9
M  V30 9 1 9 10
M  V30 10 1 9 11
M  V30 11 2 11 12
M  V30 12 1 12 13
M  V30 13 2 13 14
M  V30 14 1 14 15
M  V30 15 2 15 16
M  V30 16 1 16 17
M  V30 17 2 17 18
M  V30 18 1 17 19
M  V30 19 1 19 20
M  V30 20 2 20 21
M  V30 21 1 21 22
M  V30 22 2 22 23
M  V30 23 1 23 24
M  V30 24 1 24 25
M  V30 25 2 25 26
M  V30 26 1 25 27
M  V30 27 2 24 28
M  V30 28 1 8 29
M  V30 29 2 29 30
M  V30 30 1 30 31
M  V30 31 1 31 2
M  V30 32 1 30 5
M  V30 33 1 19 9
M  V30 34 1 28 20
M  V30 35 1 16 11
M  V30 36 1 3 32
M  V30 37 1 3 33
M  V30 38 1 6 34
M  V30 39 1 7 35
M  V30 40 1 10 36
M  V30 41 1 12 37
M  V30 42 1 13 38
M  V30 43 1 14 39
M  V30 44 1 15 40
M  V30 45 1 21 41
M  V30 46 1 22 42
M  V30 47 1 23 43
M  V30 48 1 28 44
M  V30 49 1 29 45
M  V30 50 1 31 46
M  V30 END BOND
M  V30 END CTAB
M  END
>  <Dataset>  (225) 
ChEMBL_Kinases

>  <Ligand_Instance>  (225) 
nan

>  <PDB_ID>  (225) 
nan

>  <Standardized_SMILES>  (225) 
O=C1COc2ccc(C3(O)c4ccccc4C(=O)N3c3cccc([N+](=O)[O-])c3)cc2N1

>  <Name>  (225) 
nan

>  <Pocket>  (225) 
nan

>  <ATP_Site>  (225) 
nan

>  <Peripheral>  (225) 
nan

>  <Num_H_Atoms_ProtBoundConf>  (225) 
nan

>  <Num_Resolved_Atoms>  (225) 
nan

>  <Num_Not_Resolved_Atoms>  (225) 
nan

$$$$
CHEMBL391101
     RDKit          3D

  0  0  0  0  0  0  0  0  0  0999 V3000
M  V30 BEGIN CTAB
M  V30 COUNTS 44 47 0 0 0
M  V30 BEGIN ATOM
M  V30 1 N 5.364197 -3.410107 0.406915 0
M  V30 2 C 4.145756 -2.907695 -0.088806 0
M  V30 3 O 3.093746 -3.590811 0.148503 0
M  V30 4 N 3.894728 -1.727233 -0.830809 0
M  V30 5 C 2.473975 -1.668433 -1.097011 0
M  V30 6 C 2.173764 -2.347178 -2.280914 0
M  V30 7 C 0.881469 -2.440875 -2.757669 0
M  V30 8 C -0.145530 -1.850865 -2.054812 0
M  V30 9 C 0.187992 -1.194468 -0.904320 0
M  V30 10 C 1.449296 -1.078359 -0.393809 0
M  V30 11 C -1.022461 -0.668851 -0.315791 0
M  V30 12 C -1.176290 0.118247 0.717946 0
M  V30 13 C -0.152007 0.700592 1.557867 0
M  V30 14 C 0.617182 1.659722 0.876843 0
M  V30 15 C 1.657994 2.360612 1.471992 0
M  V30 16 C 1.970007 2.112975 2.809351 0
M  V30 17 C 1.209535 1.170781 3.464209 0
M  V30 18 N 1.479763 0.876221 4.826813 0
M  V30 19 C 0.175727 0.473692 2.878279 0
M  V30 20 C -2.444101 0.546072 1.292410 0
M  V30 21 C -3.041168 1.739509 1.708864 0
M  V30 22 C -4.285788 1.452591 2.222130 0
M  V30 23 C -4.455925 0.096037 2.123873 0
M  V30 24 N -3.337201 -0.454411 1.559300 0
M  V30 25 C -2.148650 -1.027719 -1.148940 0
M  V30 26 O -3.363453 -0.825046 -1.084936 0
M  V30 27 N -1.552949 -1.772228 -2.235325 0
M  V30 28 H 6.375245 -3.543101 0.535506 0
M  V30 29 H 5.395074 -4.144198 1.140513 0
M  V30 30 H 4.720602 -1.130414 -1.044078 0
M  V30 31 H 2.890661 -2.843390 -2.916101 0
M  V30 32 H 0.606144 -2.955314 -3.666535 0
M  V30 33 H 1.863627 -0.638100 0.483618 0
M  V30 34 H 0.476198 1.940264 -0.160681 0
M  V30 35 H 2.249875 3.096914 0.958277 0
M  V30 36 H 2.766171 2.626952 3.320723 0
M  V30 37 H 1.463409 1.774537 5.386239 0
M  V30 38 H 1.689875 0.157165 5.529000 0
M  V30 39 H -0.456396 -0.273850 3.328367 0
M  V30 40 H -2.449742 2.629513 1.563059 0
M  V30 41 H -4.911832 2.270376 2.602725 0
M  V30 42 H -5.422272 -0.262361 2.502913 0
M  V30 43 H -3.479223 -1.507338 1.496962 0
M  V30 44 H -2.029138 -2.211245 -3.055073 0
M  V30 END ATOM
M  V30 BEGIN BOND
M  V30 1 1 1 2
M  V30 2 2 2 3
M  V30 3 1 2 4
M  V30 4 1 4 5
M  V30 5 2 5 6
M  V30 6 1 6 7
M  V30 7 2 7 8
M  V30 8 1 8 9
M  V30 9 2 9 10
M  V30 10 1 9 11
M  V30 11 2 11 12
M  V30 12 1 12 13
M  V30 13 2 13 14
M  V30 14 1 14 15
M  V30 15 2 15 16
M  V30 16 1 16 17
M  V30 17 1 17 18
M  V30 18 2 17 19
M  V30 19 1 12 20
M  V30 20 2 20 21
M  V30 21 1 21 22
M  V30 22 2 22 23
M  V30 23 1 23 24
M  V30 24 1 11 25
M  V30 25 2 25 26
M  V30 26 1 25 27
M  V30 27 1 10 5
M  V30 28 1 19 13
M  V30 29 1 24 20
M  V30 30 1 27 8
M  V30 31 1 1 28
M  V30 32 1 1 29
M  V30 33 1 4 30
M  V30 34 1 6 31
M  V30 35 1 7 32
M  V30 36 1 10 33
M  V30 37 1 14 34
M  V30 38 1 15 35
M  V30 39 1 16 36
M  V30 40 1 18 37
M  V30 41 1 18 38
M  V30 42 1 19 39
M  V30 43 1 21 40
M  V30 44 1 22 41
M  V30 45 1 23 42
M  V30 46 1 24 43
M  V30 47 1 27 44
M  V30 END BOND
M  V30 END CTAB
M  END
>  <Dataset>  (226) 
ChEMBL_Kinases

>  <Ligand_Instance>  (226) 
nan

>  <PDB_ID>  (226) 
nan

>  <Standardized_SMILES>  (226) 
NC(=O)Nc1ccc2c(c1)/C(=C(\c1cccc(N)c1)c1ccc[nH]1)C(=O)N2

>  <Name>  (226) 
nan

>  <Pocket>  (226) 
nan

>  <ATP_Site>  (226) 
nan

>  <Peripheral>  (226) 
nan

>  <Num_H_Atoms_ProtBoundConf>  (226) 
nan

>  <Num_Resolved_Atoms>  (226) 
nan

>  <Num_Not_Resolved_Atoms>  (226) 
nan

$$$$
CHEMBL3885486
     RDKit          3D

  0  0  0  0  0  0  0  0  0  0999 V3000
M  V30 BEGIN CTAB
M  V30 COUNTS 33 35 0 0 0
M  V30 BEGIN ATOM
M  V30 1 C -1.749335 -2.868574 3.103371 0
M  V30 2 C -0.955074 -3.294004 1.915510 0
M  V30 3 C -1.592540 -4.512878 1.234783 0
M  V30 4 C 0.430669 -3.721702 2.310608 0
M  V30 5 O 0.708835 -4.605504 3.165784 0
M  V30 6 N 1.432910 -2.991002 1.585105 0
M  V30 7 C 0.669490 -2.114361 0.768022 0
M  V30 8 N 1.139276 -1.198230 -0.112168 0
M  V30 9 C 0.306117 -0.416218 -0.828824 0
M  V30 10 N 0.662007 0.575086 -1.784825 0
M  V30 11 C 0.895464 1.896385 -1.308569 0
M  V30 12 C 0.788493 2.150506 0.059462 0
M  V30 13 C 1.008354 3.415656 0.556076 0
M  V30 14 C 1.338472 4.451193 -0.298233 0
M  V30 15 C 1.445492 4.195113 -1.670544 0
M  V30 16 C 1.226151 2.930351 -2.171023 0
M  V30 17 N -1.042485 -0.545214 -0.668599 0
M  V30 18 C -1.564628 -1.441815 0.194520 0
M  V30 19 C -0.696069 -2.237302 0.922390 0
M  V30 20 H -1.341758 -3.194013 4.073590 0
M  V30 21 H -1.848273 -1.763569 3.156037 0
M  V30 22 H -2.807519 -3.236236 2.977841 0
M  V30 23 H -0.774143 -5.034738 0.692541 0
M  V30 24 H -1.950486 -5.198784 2.022943 0
M  V30 25 H -2.379836 -4.198368 0.551909 0
M  V30 26 H 2.450672 -3.071872 1.634649 0
M  V30 27 H 0.767214 0.405575 -2.827826 0
M  V30 28 H 0.528966 1.364065 0.785171 0
M  V30 29 H 0.927625 3.629542 1.633696 0
M  V30 30 H 1.521217 5.462607 0.041932 0
M  V30 31 H 1.707330 5.001930 -2.370878 0
M  V30 32 H 1.316052 2.753737 -3.254232 0
M  V30 33 H -2.627681 -1.569434 0.344884 0
M  V30 END ATOM
M  V30 BEGIN BOND
M  V30 1 1 1 2
M  V30 2 1 2 3
M  V30 3 1 2 4
M  V30 4 2 4 5
M  V30 5 1 4 6
M  V30 6 1 6 7
M  V30 7 2 7 8
M  V30 8 1 8 9
M  V30 9 1 9 10
M  V30 10 1 10 11
M  V30 11 2 11 12
M  V30 12 1 12 13
M  V30 13 2 13 14
M  V30 14 1 14 15
M  V30 15 2 15 16
M  V30 16 2 9 17
M  V30 17 1 17 18
M  V30 18 2 18 19
M  V30 19 1 19 2
M  V30 20 1 19 7
M  V30 21 1 16 11
M  V30 22 1 1 20
M  V30 23 1 1 21
M  V30 24 1 1 22
M  V30 25 1 3 23
M  V30 26 1 3 24
M  V30 27 1 3 25
M  V30 28 1 6 26
M  V30 29 1 10 27
M  V30 30 1 12 28
M  V30 31 1 13 29
M  V30 32 1 14 30
M  V30 33 1 15 31
M  V30 34 1 16 32
M  V30 35 1 18 33
M  V30 END BOND
M  V30 END CTAB
M  END
>  <Dataset>  (227) 
ChEMBL_Kinases

>  <Ligand_Instance>  (227) 
nan

>  <PDB_ID>  (227) 
nan

>  <Standardized_SMILES>  (227) 
CC1(C)C(=O)Nc2nc(Nc3ccccc3)ncc21

>  <Name>  (227) 
nan

>  <Pocket>  (227) 
nan

>  <ATP_Site>  (227) 
nan

>  <Peripheral>  (227) 
nan

>  <Num_H_Atoms_ProtBoundConf>  (227) 
nan

>  <Num_Resolved_Atoms>  (227) 
nan

>  <Num_Not_Resolved_Atoms>  (227) 
nan

$$$$
CHEMBL389542
     RDKit          3D

  0  0  0  0  0  0  0  0  0  0999 V3000
M  V30 BEGIN CTAB
M  V30 COUNTS 47 50 0 0 0
M  V30 BEGIN ATOM
M  V30 1 C 4.246093 -0.959712 4.849492 0
M  V30 2 C 3.930423 -1.829029 3.678020 0
M  V30 3 C 3.711291 -3.194127 3.764308 0
M  V30 4 C 3.436728 -3.797146 2.564734 0
M  V30 5 C 3.393481 -3.061031 1.394350 0
M  V30 6 C 3.620527 -1.680134 1.344498 0
M  V30 7 C 3.514293 -1.183953 -0.041875 0
M  V30 8 N 2.179543 -0.800167 -0.439482 0
M  V30 9 C 1.386101 0.266561 0.054171 0
M  V30 10 C 1.774975 1.172869 1.016302 0
M  V30 11 C 0.987749 2.195006 1.486975 0
M  V30 12 Cl 1.533590 3.312638 2.707203 0
M  V30 13 C -0.285880 2.351098 0.980295 0
M  V30 14 N -1.072879 3.327637 1.412361 0
M  V30 15 C -2.317703 3.487831 0.923474 0
M  V30 16 C -2.807619 2.634324 -0.045046 0
M  V30 17 C -4.104417 2.737345 -0.608433 0
M  V30 18 N -5.156589 2.818420 -1.063924 0
M  V30 19 C -1.977262 1.609114 -0.496567 0
M  V30 20 N -2.422373 0.699494 -1.490107 0
M  V30 21 C -3.072316 -0.473539 -1.100514 0
M  V30 22 C -3.543223 -1.424050 -2.015554 0
M  V30 23 C -4.186136 -2.587931 -1.672307 0
M  V30 24 C -4.390825 -2.855965 -0.342966 0
M  V30 25 F -5.007861 -3.963415 0.100652 0
M  V30 26 C -3.953695 -1.962540 0.638427 0
M  V30 27 Cl -4.188189 -2.252984 2.359232 0
M  V30 28 C -3.313297 -0.810210 0.213219 0
M  V30 29 C -0.707310 1.473824 0.026017 0
M  V30 30 C 0.106837 0.464447 -0.420160 0
M  V30 31 N 3.884325 -1.136979 2.539824 0
M  V30 32 H 3.343056 -0.440509 5.239851 0
M  V30 33 H 4.659794 -1.565933 5.684333 0
M  V30 34 H 5.019203 -0.187985 4.594023 0
M  V30 35 H 3.778345 -3.620787 4.735009 0
M  V30 36 H 3.260780 -4.872147 2.609160 0
M  V30 37 H 3.160021 -3.706100 0.530674 0
M  V30 38 H 4.194974 -0.272616 -0.096385 0
M  V30 39 H 3.942113 -1.871541 -0.779178 0
M  V30 40 H 1.742254 -1.388098 -1.189291 0
M  V30 41 H 2.743740 1.110180 1.439716 0
M  V30 42 H -2.974216 4.272846 1.258826 0
M  V30 43 H -2.290511 0.857464 -2.517941 0
M  V30 44 H -3.396549 -1.242206 -3.089721 0
M  V30 45 H -4.522135 -3.274866 -2.429239 0
M  V30 46 H -2.979260 -0.125030 0.992461 0
M  V30 47 H -0.289907 -0.194637 -1.177318 0
M  V30 END ATOM
M  V30 BEGIN BOND
M  V30 1 1 1 2
M  V30 2 2 2 3
M  V30 3 1 3 4
M  V30 4 2 4 5
M  V30 5 1 5 6
M  V30 6 1 6 7
M  V30 7 1 7 8
M  V30 8 1 8 9
M  V30 9 2 9 10
M  V30 10 1 10 11
M  V30 11 1 11 12
M  V30 12 2 11 13
M  V30 13 1 13 14
M  V30 14 2 14 15
M  V30 15 1 15 16
M  V30 16 1 16 17
M  V30 17 3 17 18
M  V30 18 2 16 19
M  V30 19 1 19 20
M  V30 20 1 20 21
M  V30 21 2 21 22
M  V30 22 1 22 23
M  V30 23 2 23 24
M  V30 24 1 24 25
M  V30 25 1 24 26
M  V30 26 1 26 27
M  V30 27 2 26 28
M  V30 28 1 19 29
M  V30 29 2 29 30
M  V30 30 2 6 31
M  V30 31 1 31 2
M  V30 32 1 30 9
M  V30 33 1 29 13
M  V30 34 1 28 21
M  V30 35 1 1 32
M  V30 36 1 1 33
M  V30 37 1 1 34
M  V30 38 1 3 35
M  V30 39 1 4 36
M  V30 40 1 5 37
M  V30 41 1 7 38
M  V30 42 1 7 39
M  V30 43 1 8 40
M  V30 44 1 10 41
M  V30 45 1 15 42
M  V30 46 1 20 43
M  V30 47 1 22 44
M  V30 48 1 23 45
M  V30 49 1 28 46
M  V30 50 1 30 47
M  V30 END BOND
M  V30 END CTAB
M  END
>  <Dataset>  (228) 
ChEMBL_Kinases

>  <Ligand_Instance>  (228) 
nan

>  <PDB_ID>  (228) 
nan

>  <Standardized_SMILES>  (228) 
Cc1cccc(CNc2cc(Cl)c3ncc(C#N)c(Nc4ccc(F)c(Cl)c4)c3c2)n1

>  <Name>  (228) 
nan

>  <Pocket>  (228) 
nan

>  <ATP_Site>  (228) 
nan

>  <Peripheral>  (228) 
nan

>  <Num_H_Atoms_ProtBoundConf>  (228) 
nan

>  <Num_Resolved_Atoms>  (228) 
nan

>  <Num_Not_Resolved_Atoms>  (228) 
nan

$$$$
CHEMBL3885363
     RDKit          3D

  0  0  0  0  0  0  0  0  0  0999 V3000
M  V30 BEGIN CTAB
M  V30 COUNTS 51 53 0 0 0
M  V30 BEGIN ATOM
M  V30 1 C 1.484219 -4.144745 1.356054 0
M  V30 2 C 1.745964 -2.708592 0.954918 0
M  V30 3 C 2.448980 -2.048653 2.140507 0 CFG=2
M  V30 4 C 1.502191 -2.160682 3.308777 0
M  V30 5 N 2.773003 -0.666493 1.840221 0
M  V30 6 C 3.981425 0.073810 1.712718 0
M  V30 7 O 5.035683 -0.578423 1.941861 0
M  V30 8 C 3.720110 1.466982 1.335716 0
M  V30 9 C 4.210643 2.381960 2.395163 0
M  V30 10 C 4.220872 1.796874 -0.050193 0
M  V30 11 C 2.213902 1.492836 1.353612 0
M  V30 12 C 1.390896 2.551014 1.128356 0
M  V30 13 N 0.061255 2.401801 1.153418 0
M  V30 14 C -0.503776 1.181037 1.405535 0
M  V30 15 N -1.828309 0.686840 1.489254 0
M  V30 16 C -2.574758 -0.088895 0.591062 0
M  V30 17 C -3.843573 -0.466251 0.905498 0
M  V30 18 C -4.573805 -1.260262 0.016399 0
M  V30 19 C -3.954973 -1.641057 -1.183709 0
M  V30 20 S -4.993379 -2.647310 -2.162517 0
M  V30 21 C -6.017337 -1.588014 -3.150242 0
M  V30 22 O -5.790719 -3.608500 -1.323334 0
M  V30 23 O -4.091967 -3.395222 -3.116432 0
M  V30 24 C -2.667590 -1.231769 -1.453916 0
M  V30 25 C -1.938391 -0.444708 -0.577985 0
M  V30 26 N 0.336584 0.154164 1.625140 0
M  V30 27 C 1.684034 0.259143 1.610746 0
M  V30 28 H 2.102842 -4.443031 2.225489 0
M  V30 29 H 0.423607 -4.271920 1.720257 0
M  V30 30 H 1.736263 -4.864490 0.551705 0
M  V30 31 H 0.814932 -2.166633 0.731265 0
M  V30 32 H 2.375982 -2.681455 0.038885 0
M  V30 33 H 3.326061 -2.675236 2.333500 0
M  V30 34 H 0.445351 -2.123664 2.922234 0
M  V30 35 H 1.681782 -1.317113 4.001855 0
M  V30 36 H 1.604798 -3.149322 3.804958 0
M  V30 37 H 3.678130 2.133335 3.331777 0
M  V30 38 H 3.994589 3.456269 2.193549 0
M  V30 39 H 5.300023 2.238849 2.631156 0
M  V30 40 H 3.347012 1.753692 -0.756314 0
M  V30 41 H 4.543777 2.856177 -0.066962 0
M  V30 42 H 5.058346 1.167609 -0.344784 0
M  V30 43 H 1.687411 3.567418 0.915891 0
M  V30 44 H -2.054307 1.094003 2.423422 0
M  V30 45 H -4.258572 -0.134800 1.850819 0
M  V30 46 H -5.570351 -1.511681 0.356120 0
M  V30 47 H -7.060194 -1.627802 -2.716357 0
M  V30 48 H -6.028899 -1.892464 -4.215176 0
M  V30 49 H -5.699431 -0.528904 -3.140383 0
M  V30 50 H -2.289464 -1.578486 -2.400327 0
M  V30 51 H -0.943166 -0.193940 -0.914549 0
M  V30 END ATOM
M  V30 BEGIN BOND
M  V30 1 1 1 2
M  V30 2 1 2 3
M  V30 3 1 3 4
M  V30 4 1 3 5
M  V30 5 1 5 6
M  V30 6 2 6 7
M  V30 7 1 6 8
M  V30 8 1 8 9
M  V30 9 1 8 10
M  V30 10 1 8 11
M  V30 11 2 11 12
M  V30 12 1 12 13
M  V30 13 2 13 14
M  V30 14 1 14 15
M  V30 15 1 15 16
M  V30 16 2 16 17
M  V30 17 1 17 18
M  V30 18 2 18 19
M  V30 19 1 19 20
M  V30 20 1 20 21
M  V30 21 2 20 22
M  V30 22 2 20 23
M  V30 23 1 19 24
M  V30 24 2 24 25
M  V30 25 1 14 26
M  V30 26 2 26 27
M  V30 27 1 27 5
M  V30 28 1 27 11
M  V30 29 1 25 16
M  V30 30 1 1 28
M  V30 31 1 1 29
M  V30 32 1 1 30
M  V30 33 1 2 31
M  V30 34 1 2 32
M  V30 35 1 3 33 CFG=1
M  V30 36 1 4 34
M  V30 37 1 4 35
M  V30 38 1 4 36
M  V30 39 1 9 37
M  V30 40 1 9 38
M  V30 41 1 9 39
M  V30 42 1 10 40
M  V30 43 1 10 41
M  V30 44 1 10 42
M  V30 45 1 12 43
M  V30 46 1 15 44
M  V30 47 1 17 45
M  V30 48 1 18 46
M  V30 49 1 21 47
M  V30 50 1 21 48
M  V30 51 1 21 49
M  V30 52 1 24 50
M  V30 53 1 25 51
M  V30 END BOND
M  V30 END CTAB
M  END
>  <Dataset>  (229) 
ChEMBL_Kinases

>  <Ligand_Instance>  (229) 
nan

>  <PDB_ID>  (229) 
nan

>  <Standardized_SMILES>  (229) 
CC[C@H](C)N1C(=O)C(C)(C)c2cnc(Nc3ccc(S(C)(=O)=O)cc3)nc21

>  <Name>  (229) 
nan

>  <Pocket>  (229) 
nan

>  <ATP_Site>  (229) 
nan

>  <Peripheral>  (229) 
nan

>  <Num_H_Atoms_ProtBoundConf>  (229) 
nan

>  <Num_Resolved_Atoms>  (229) 
nan

>  <Num_Not_Resolved_Atoms>  (229) 
nan

$$$$
CHEMBL3911147
     RDKit          3D

  0  0  0  0  0  0  0  0  0  0999 V3000
M  V30 BEGIN CTAB
M  V30 COUNTS 37 41 0 0 0
M  V30 BEGIN ATOM
M  V30 1 C 2.490687 -6.315385 3.729099 0
M  V30 2 C 1.696518 -6.728838 2.679527 0
M  V30 3 C 1.085146 -5.796140 1.832552 0
M  V30 4 C 1.331245 -4.468863 2.120370 0
M  V30 5 N 0.919927 -3.335287 1.534415 0
M  V30 6 C 1.369268 -2.220173 2.100514 0
M  V30 7 C 1.254537 -0.788639 1.901852 0
M  V30 8 N 1.835801 0.179902 2.649044 0
M  V30 9 N 1.537376 1.379322 2.211654 0
M  V30 10 C 0.732121 1.308026 1.136340 0
M  V30 11 C 0.143275 2.253081 0.318967 0
M  V30 12 C -0.649395 1.826633 -0.727709 0
M  V30 13 C -1.286727 2.802664 -1.611342 0
M  V30 14 C -0.731480 4.028386 -1.923144 0
M  V30 15 C -1.403053 4.889509 -2.765748 0
M  V30 16 N -2.598209 4.605988 -3.320113 0
M  V30 17 C -3.150119 3.427270 -3.030824 0
M  V30 18 C -2.525701 2.521476 -2.192676 0
M  V30 19 C -0.848356 0.478187 -0.951353 0
M  V30 20 C -0.229802 -0.408459 -0.096080 0
M  V30 21 C 0.570723 -0.051090 0.963407 0
M  V30 22 N 2.119853 -2.704458 3.119974 0
M  V30 23 C 2.119312 -4.037996 3.161258 0
M  V30 24 C 2.719419 -4.969814 3.993153 0
M  V30 25 H 2.934016 -7.064188 4.345883 0
M  V30 26 H 1.511971 -7.787955 2.465608 0
M  V30 27 H 0.452692 -6.053694 0.993794 0
M  V30 28 H 0.301697 -3.334942 0.707375 0
M  V30 29 H 1.908661 2.230948 2.681658 0
M  V30 30 H 0.328813 3.287233 0.534662 0
M  V30 31 H 0.223200 4.233556 -1.469195 0
M  V30 32 H -0.945238 5.853333 -2.998439 0
M  V30 33 H -4.103016 3.103723 -3.421539 0
M  V30 34 H -2.976186 1.570102 -1.961665 0
M  V30 35 H -1.464882 0.194055 -1.767018 0
M  V30 36 H -0.411518 -1.444864 -0.306538 0
M  V30 37 H 3.335073 -4.619035 4.805250 0
M  V30 END ATOM
M  V30 BEGIN BOND
M  V30 1 2 1 2
M  V30 2 1 2 3
M  V30 3 2 3 4
M  V30 4 1 4 5
M  V30 5 1 5 6
M  V30 6 1 6 7
M  V30 7 2 7 8
M  V30 8 1 8 9
M  V30 9 1 9 10
M  V30 10 2 10 11
M  V30 11 1 11 12
M  V30 12 1 12 13
M  V30 13 2 13 14
M  V30 14 1 14 15
M  V30 15 2 15 16
M  V30 16 1 16 17
M  V30 17 2 17 18
M  V30 18 2 12 19
M  V30 19 1 19 20
M  V30 20 2 20 21
M  V30 21 2 6 22
M  V30 22 1 22 23
M  V30 23 2 23 24
M  V30 24 1 24 1
M  V30 25 1 23 4
M  V30 26 1 21 7
M  V30 27 1 21 10
M  V30 28 1 18 13
M  V30 29 1 1 25
M  V30 30 1 2 26
M  V30 31 1 3 27
M  V30 32 1 5 28
M  V30 33 1 9 29
M  V30 34 1 11 30
M  V30 35 1 14 31
M  V30 36 1 15 32
M  V30 37 1 17 33
M  V30 38 1 18 34
M  V30 39 1 19 35
M  V30 40 1 20 36
M  V30 41 1 24 37
M  V30 END BOND
M  V30 END CTAB
M  END
>  <Dataset>  (230) 
ChEMBL_Kinases

>  <Ligand_Instance>  (230) 
nan

>  <PDB_ID>  (230) 
nan

>  <Standardized_SMILES>  (230) 
c1ccc2[nH]c(-c3n[nH]c4cc(-c5ccncc5)ccc34)nc2c1

>  <Name>  (230) 
nan

>  <Pocket>  (230) 
nan

>  <ATP_Site>  (230) 
nan

>  <Peripheral>  (230) 
nan

>  <Num_H_Atoms_ProtBoundConf>  (230) 
nan

>  <Num_Resolved_Atoms>  (230) 
nan

>  <Num_Not_Resolved_Atoms>  (230) 
nan

$$$$
CHEMBL3911190
     RDKit          3D

  0  0  0  0  0  0  0  0  0  0999 V3000
M  V30 BEGIN CTAB
M  V30 COUNTS 56 60 0 0 0
M  V30 BEGIN ATOM
M  V30 1 O -0.715910 -2.003674 0.908442 0
M  V30 2 C 0.162713 -2.716737 1.504633 0
M  V30 3 C 1.533944 -2.467217 2.084086 0
M  V30 4 N 1.765437 -1.037639 1.823810 0
M  V30 5 C 0.772577 -0.235986 2.460078 0
M  V30 6 O -0.150062 -0.724773 3.137932 0
M  V30 7 C 0.791738 1.216886 2.344358 0
M  V30 8 C -0.191498 1.947895 2.978466 0
M  V30 9 N -0.282843 3.308710 2.945295 0
M  V30 10 C 0.627679 4.028921 2.258413 0
M  V30 11 N 0.788798 5.347001 2.051412 0
M  V30 12 C 1.888085 5.470966 1.275230 0
M  V30 13 C 2.441902 4.250561 0.976295 0
M  V30 14 C 3.634813 4.060081 0.157592 0
M  V30 15 C 4.711175 4.911408 0.426255 0
M  V30 16 C 5.856844 4.741605 -0.347113 0
M  V30 17 C 5.926803 3.781281 -1.329794 0
M  V30 18 C 4.846824 2.941006 -1.585686 0
M  V30 19 C 3.711454 3.093891 -0.834427 0
M  V30 20 C 1.622833 3.330420 1.613740 0
M  V30 21 C 1.720509 1.959204 1.643276 0
M  V30 22 N -0.390122 -4.049348 1.588533 0
M  V30 23 C -1.710150 -4.055640 0.970868 0
M  V30 24 C -2.365473 -5.419718 1.013245 0
M  V30 25 C -3.701148 -5.235397 0.339507 0
M  V30 26 C -4.949384 -5.147900 0.966407 0
M  V30 27 N -5.898407 -4.983463 0.004994 0
M  V30 28 C -5.299276 -4.964052 -1.201486 0
M  V30 29 C -5.777581 -4.825792 -2.501351 0
M  V30 30 C -4.923866 -4.839032 -3.610819 0
M  V30 31 C -3.574490 -4.995565 -3.375423 0
M  V30 32 C -3.064148 -5.135296 -2.107001 0
M  V30 33 C -3.932224 -5.119557 -1.012094 0
M  V30 34 H 1.464889 -2.643924 3.164488 0
M  V30 35 H 2.269302 -3.091086 1.569067 0
M  V30 36 H 2.535700 -0.623319 1.258942 0
M  V30 37 H -0.977314 1.479670 3.560997 0
M  V30 38 H 0.137472 6.048015 2.455810 0
M  V30 39 H 2.214788 6.471659 0.974434 0
M  V30 40 H 4.702815 5.680645 1.187224 0
M  V30 41 H 6.753336 5.361406 -0.210480 0
M  V30 42 H 6.809458 3.642123 -1.934007 0
M  V30 43 H 4.919793 2.186742 -2.366870 0
M  V30 44 H 2.860803 2.455469 -1.013536 0
M  V30 45 H 2.504805 1.411371 1.134742 0
M  V30 46 H 0.123442 -4.864593 2.039019 0
M  V30 47 H -2.370595 -3.353814 1.520894 0
M  V30 48 H -1.663905 -3.719939 -0.102249 0
M  V30 49 H -2.541352 -5.719475 2.065998 0
M  V30 50 H -1.789396 -6.181515 0.483441 0
M  V30 51 H -5.139072 -5.201519 2.046434 0
M  V30 52 H -6.930229 -4.885248 0.148768 0
M  V30 53 H -6.865435 -4.705510 -2.600518 0
M  V30 54 H -5.376270 -4.724181 -4.606645 0
M  V30 55 H -2.905853 -5.006495 -4.231027 0
M  V30 56 H -1.991221 -5.255396 -1.989752 0
M  V30 END ATOM
M  V30 BEGIN BOND
M  V30 1 2 1 2
M  V30 2 1 2 3
M  V30 3 1 3 4
M  V30 4 1 4 5
M  V30 5 2 5 6
M  V30 6 1 5 7
M  V30 7 2 7 8
M  V30 8 1 8 9
M  V30 9 2 9 10
M  V30 10 1 10 11
M  V30 11 1 11 12
M  V30 12 2 12 13
M  V30 13 1 13 14
M  V30 14 2 14 15
M  V30 15 1 15 16
M  V30 16 2 16 17
M  V30 17 1 17 18
M  V30 18 2 18 19
M  V30 19 1 13 20
M  V30 20 2 20 21
M  V30 21 1 2 22
M  V30 22 1 22 23
M  V30 23 1 23 24
M  V30 24 1 24 25
M  V30 25 2 25 26
M  V30 26 1 26 27
M  V30 27 1 27 28
M  V30 28 2 28 29
M  V30 29 1 29 30
M  V30 30 2 30 31
M  V30 31 1 31 32
M  V30 32 2 32 33
M  V30 33 1 21 7
M  V30 34 1 33 25
M  V30 35 1 20 10
M  V30 36 1 33 28
M  V30 37 1 19 14
M  V30 38 1 3 34
M  V30 39 1 3 35
M  V30 40 1 4 36
M  V30 41 1 8 37
M  V30 42 1 11 38
M  V30 43 1 12 39
M  V30 44 1 15 40
M  V30 45 1 16 41
M  V30 46 1 17 42
M  V30 47 1 18 43
M  V30 48 1 19 44
M  V30 49 1 21 45
M  V30 50 1 22 46
M  V30 51 1 23 47
M  V30 52 1 23 48
M  V30 53 1 24 49
M  V30 54 1 24 50
M  V30 55 1 26 51
M  V30 56 1 27 52
M  V30 57 1 29 53
M  V30 58 1 30 54
M  V30 59 1 31 55
M  V30 60 1 32 56
M  V30 END BOND
M  V30 END CTAB
M  END
>  <Dataset>  (231) 
ChEMBL_Kinases

>  <Ligand_Instance>  (231) 
nan

>  <PDB_ID>  (231) 
nan

>  <Standardized_SMILES>  (231) 
O=C(CNC(=O)c1cnc2[nH]cc(-c3ccccc3)c2c1)NCCc1c[nH]c2ccccc12

>  <Name>  (231) 
nan

>  <Pocket>  (231) 
nan

>  <ATP_Site>  (231) 
nan

>  <Peripheral>  (231) 
nan

>  <Num_H_Atoms_ProtBoundConf>  (231) 
nan

>  <Num_Resolved_Atoms>  (231) 
nan

>  <Num_Not_Resolved_Atoms>  (231) 
nan

$$$$
CHEMBL601077
     RDKit          3D

  0  0  0  0  0  0  0  0  0  0999 V3000
M  V30 BEGIN CTAB
M  V30 COUNTS 70 76 0 0 0
M  V30 BEGIN ATOM
M  V30 1 C 1.276444 -6.575958 4.542000 0
M  V30 2 N 1.870980 -5.419987 3.895714 0
M  V30 3 C 3.305561 -5.482870 4.089357 0
M  V30 4 C 4.012245 -4.184665 3.871113 0
M  V30 5 N 3.154345 -3.189250 3.272091 0
M  V30 6 C 3.582956 -2.367785 2.193083 0
M  V30 7 C 2.806714 -1.406344 1.579129 0
M  V30 8 C 3.286899 -0.638256 0.531004 0
M  V30 9 C 2.373820 0.364968 -0.056563 0
M  V30 10 O 2.042197 1.202697 0.840979 0
M  V30 11 N 1.927061 0.399724 -1.414724 0
M  V30 12 C 1.053506 1.502758 -1.639928 0
M  V30 13 C 1.615643 2.712098 -2.038544 0
M  V30 14 C 0.816950 3.812620 -2.271113 0
M  V30 15 C -0.557112 3.743059 -2.114935 0
M  V30 16 C -1.100362 2.549555 -1.722700 0
M  V30 17 C -0.336514 1.440247 -1.484142 0
M  V30 18 C -2.522175 2.478145 -1.561826 0
M  V30 19 C -3.280521 3.603385 -1.806022 0
M  V30 20 C -4.577383 3.244202 -1.576328 0
M  V30 21 C -5.764510 4.070880 -1.693771 0
M  V30 22 N -7.053973 3.539647 -1.416392 0
M  V30 23 O -5.657279 5.276685 -2.045979 0
M  V30 24 N -4.566526 1.941851 -1.208263 0
M  V30 25 N -3.324579 1.485732 -1.201419 0
M  V30 26 C -3.105234 0.131719 -0.839307 0
M  V30 27 C -2.865741 -0.402598 0.432182 0
M  V30 28 C -2.689152 -1.762486 0.550962 0
M  V30 29 C -2.736882 -2.625996 -0.524629 0
M  V30 30 C -2.974149 -2.093086 -1.781127 0
M  V30 31 C -3.159644 -0.717336 -1.950665 0
M  V30 32 O -2.973995 -3.160484 -2.684345 0
M  V30 33 C -2.896243 -4.396902 -2.002051 0
M  V30 34 O -2.598279 -3.989184 -0.681777 0
M  V30 35 C -2.760371 4.927361 -2.232542 0
M  V30 36 C -1.283053 4.986518 -2.394830 0
M  V30 37 C 4.581874 -0.832601 0.078329 0
M  V30 38 Cl 5.174716 0.148946 -1.250601 0
M  V30 39 C 5.344130 -1.803615 0.709374 0
M  V30 40 N 4.838401 -2.531790 1.728622 0
M  V30 41 C 1.817702 -3.055027 3.819800 0
M  V30 42 C 1.426844 -4.242733 4.655553 0
M  V30 43 H 1.369063 -6.563273 5.633204 0
M  V30 44 H 1.757932 -7.494137 4.117655 0
M  V30 45 H 0.209077 -6.648023 4.247071 0
M  V30 46 H 3.682081 -6.221922 3.353310 0
M  V30 47 H 3.481465 -5.901538 5.101179 0
M  V30 48 H 4.290776 -3.777547 4.887167 0
M  V30 49 H 4.968405 -4.331644 3.358385 0
M  V30 50 H 1.804992 -1.259447 1.932985 0
M  V30 51 H 2.296223 -0.364980 -2.021305 0
M  V30 52 H 2.686963 2.791654 -2.167532 0
M  V30 53 H 1.325699 4.736215 -2.583316 0
M  V30 54 H -0.667131 0.480208 -1.179112 0
M  V30 55 H -7.613252 3.649726 -0.552687 0
M  V30 56 H -7.468942 2.966570 -2.204719 0
M  V30 57 H -2.846616 0.337220 1.197250 0
M  V30 58 H -2.507827 -2.128913 1.546311 0
M  V30 59 H -3.336615 -0.408713 -2.963400 0
M  V30 60 H -2.083176 -5.046343 -2.422448 0
M  V30 61 H -3.884362 -4.877837 -2.113844 0
M  V30 62 H -3.072206 5.730464 -1.501350 0
M  V30 63 H -3.320817 5.219647 -3.169191 0
M  V30 64 H -0.844494 5.836349 -1.792088 0
M  V30 65 H -1.089261 5.323516 -3.456311 0
M  V30 66 H 6.373929 -1.960478 0.351744 0
M  V30 67 H 1.130408 -2.887839 2.969652 0
M  V30 68 H 1.761254 -2.128027 4.456407 0
M  V30 69 H 0.344003 -4.221621 4.791808 0
M  V30 70 H 2.008892 -4.167456 5.606910 0
M  V30 END ATOM
M  V30 BEGIN BOND
M  V30 1 1 1 2
M  V30 2 1 2 3
M  V30 3 1 3 4
M  V30 4 1 4 5
M  V30 5 1 5 6
M  V30 6 2 6 7
M  V30 7 1 7 8
M  V30 8 1 8 9
M  V30 9 2 9 10
M  V30 10 1 9 11
M  V30 11 1 11 12
M  V30 12 2 12 13
M  V30 13 1 13 14
M  V30 14 2 14 15
M  V30 15 1 15 16
M  V30 16 2 16 17
M  V30 17 1 16 18
M  V30 18 2 18 19
M  V30 19 1 19 20
M  V30 20 1 20 21
M  V30 21 1 21 22
M  V30 22 2 21 23
M  V30 23 2 20 24
M  V30 24 1 24 25
M  V30 25 1 25 26
M  V30 26 2 26 27
M  V30 27 1 27 28
M  V30 28 2 28 29
M  V30 29 1 29 30
M  V30 30 2 30 31
M  V30 31 1 30 32
M  V30 32 1 32 33
M  V30 33 1 33 34
M  V30 34 1 19 35
M  V30 35 1 35 36
M  V30 36 2 8 37
M  V30 37 1 37 38
M  V30 38 1 37 39
M  V30 39 2 39 40
M  V30 40 1 5 41
M  V30 41 1 41 42
M  V30 42 1 42 2
M  V30 43 1 40 6
M  V30 44 1 17 12
M  V30 45 1 25 18
M  V30 46 1 31 26
M  V30 47 1 36 15
M  V30 48 1 34 29
M  V30 49 1 1 43
M  V30 50 1 1 44
M  V30 51 1 1 45
M  V30 52 1 3 46
M  V30 53 1 3 47
M  V30 54 1 4 48
M  V30 55 1 4 49
M  V30 56 1 7 50
M  V30 57 1 11 51
M  V30 58 1 13 52
M  V30 59 1 14 53
M  V30 60 1 17 54
M  V30 61 1 22 55
M  V30 62 1 22 56
M  V30 63 1 27 57
M  V30 64 1 28 58
M  V30 65 1 31 59
M  V30 66 1 33 60
M  V30 67 1 33 61
M  V30 68 1 35 62
M  V30 69 1 35 63
M  V30 70 1 36 64
M  V30 71 1 36 65
M  V30 72 1 39 66
M  V30 73 1 41 67
M  V30 74 1 41 68
M  V30 75 1 42 69
M  V30 76 1 42 70
M  V30 END BOND
M  V30 END CTAB
M  END
>  <Dataset>  (232) 
ChEMBL_Kinases

>  <Ligand_Instance>  (232) 
nan

>  <PDB_ID>  (232) 
nan

>  <Standardized_SMILES>  (232) 
CN1CCN(c2cc(C(=O)Nc3ccc4c(c3)-c3c(c(C(N)=O)nn3-c3ccc5c(c3)OCO5)CC4)c(Cl)cn2)CC1

>  <Name>  (232) 
nan

>  <Pocket>  (232) 
nan

>  <ATP_Site>  (232) 
nan

>  <Peripheral>  (232) 
nan

>  <Num_H_Atoms_ProtBoundConf>  (232) 
nan

>  <Num_Resolved_Atoms>  (232) 
nan

>  <Num_Not_Resolved_Atoms>  (232) 
nan

$$$$
CHEMBL604270
     RDKit          3D

  0  0  0  0  0  0  0  0  0  0999 V3000
M  V30 BEGIN CTAB
M  V30 COUNTS 37 40 0 0 0
M  V30 BEGIN ATOM
M  V30 1 C 1.470109 -4.964976 4.228692 0
M  V30 2 C 0.901797 -4.360085 2.994084 0
M  V30 3 O -0.287681 -4.035085 3.237462 0
M  V30 4 N 1.502213 -4.136431 1.706352 0
M  V30 5 C 0.653479 -3.525746 0.741944 0
M  V30 6 C -0.082361 -4.433569 -0.030690 0
M  V30 7 C -0.927328 -3.916732 -0.986807 0
M  V30 8 C -1.017487 -2.536051 -1.147401 0
M  V30 9 C -0.313141 -1.618572 -0.409984 0
M  V30 10 C 0.494412 -2.181283 0.506840 0
M  V30 11 C -0.695824 -0.326969 -0.889754 0
M  V30 12 C -0.259504 0.793897 -0.457347 0
M  V30 13 N -0.627423 2.079508 -0.920541 0
M  V30 14 C 0.032681 3.139019 -0.238258 0
M  V30 15 C -0.070136 4.502467 -0.412091 0
M  V30 16 C 0.699674 5.273211 0.404113 0
M  V30 17 C 1.543518 4.755653 1.359038 0
M  V30 18 Br 2.620710 5.855233 2.500204 0
M  V30 19 C 1.591357 3.387432 1.472361 0
M  V30 20 C 0.850569 2.489265 0.693845 0
M  V30 21 C 0.685890 1.053747 0.575392 0
M  V30 22 O 1.358598 0.404522 1.347115 0
M  V30 23 C -1.665554 -0.519243 -1.952347 0
M  V30 24 O -2.250361 0.341180 -2.636311 0
M  V30 25 N -1.874950 -1.907025 -2.122291 0
M  V30 26 H 1.455340 -4.302209 5.101993 0
M  V30 27 H 2.524792 -5.282882 4.049292 0
M  V30 28 H 0.850823 -5.856374 4.488602 0
M  V30 29 H 2.488588 -4.470368 1.698110 0
M  V30 30 H -0.007810 -5.500347 0.098807 0
M  V30 31 H -1.487410 -4.626073 -1.574087 0
M  V30 32 H 1.111055 -1.657008 1.164756 0
M  V30 33 H -1.316665 2.224697 -1.688245 0
M  V30 34 H -0.729664 4.916925 -1.158873 0
M  V30 35 H 0.647399 6.336857 0.299352 0
M  V30 36 H 2.250104 2.988686 2.217588 0
M  V30 37 H -2.522161 -2.341696 -2.817944 0
M  V30 END ATOM
M  V30 BEGIN BOND
M  V30 1 1 1 2
M  V30 2 2 2 3
M  V30 3 1 2 4
M  V30 4 1 4 5
M  V30 5 2 5 6
M  V30 6 1 6 7
M  V30 7 2 7 8
M  V30 8 1 8 9
M  V30 9 2 9 10
M  V30 10 1 9 11
M  V30 11 2 11 12
M  V30 12 1 12 13
M  V30 13 1 13 14
M  V30 14 2 14 15
M  V30 15 1 15 16
M  V30 16 2 16 17
M  V30 17 1 17 18
M  V30 18 1 17 19
M  V30 19 2 19 20
M  V30 20 1 20 21
M  V30 21 2 21 22
M  V30 22 1 11 23
M  V30 23 2 23 24
M  V30 24 1 23 25
M  V30 25 1 10 5
M  V30 26 1 21 12
M  V30 27 1 25 8
M  V30 28 1 20 14
M  V30 29 1 1 26
M  V30 30 1 1 27
M  V30 31 1 1 28
M  V30 32 1 4 29
M  V30 33 1 6 30
M  V30 34 1 7 31
M  V30 35 1 10 32
M  V30 36 1 13 33
M  V30 37 1 15 34
M  V30 38 1 16 35
M  V30 39 1 19 36
M  V30 40 1 25 37
M  V30 END BOND
M  V30 END CTAB
M  END
>  <Dataset>  (233) 
ChEMBL_Kinases

>  <Ligand_Instance>  (233) 
nan

>  <PDB_ID>  (233) 
nan

>  <Standardized_SMILES>  (233) 
CC(=O)Nc1ccc2c(c1)/C(=C1/Nc3ccc(Br)cc3C1=O)C(=O)N2

>  <Name>  (233) 
nan

>  <Pocket>  (233) 
nan

>  <ATP_Site>  (233) 
nan

>  <Peripheral>  (233) 
nan

>  <Num_H_Atoms_ProtBoundConf>  (233) 
nan

>  <Num_Resolved_Atoms>  (233) 
nan

>  <Num_Not_Resolved_Atoms>  (233) 
nan

$$$$
CHEMBL4878874
     RDKit          3D

  0  0  0  0  0  0  0  0  0  0999 V3000
M  V30 BEGIN CTAB
M  V30 COUNTS 56 60 0 0 0
M  V30 BEGIN ATOM
M  V30 1 N 0.892192 -3.697942 3.658967 0
M  V30 2 C 1.763213 -3.147734 3.143669 0
M  V30 3 C 2.857374 -2.465654 2.477928 0
M  V30 4 C 3.921304 -3.179471 1.963530 0
M  V30 5 C 4.941459 -2.500346 1.333014 0
M  V30 6 C 4.971349 -1.126785 1.178847 0
M  V30 7 N 5.982655 -0.497274 0.542931 0
M  V30 8 C 5.942595 0.840899 0.416239 0
M  V30 9 N 4.905606 1.562008 0.916938 0
M  V30 10 C 3.902935 0.916696 1.550290 0
M  V30 11 N 2.902009 1.763197 2.069132 0
M  V30 12 C 2.448133 3.124759 2.170976 0
M  V30 13 C 1.860199 3.652395 0.857208 0
M  V30 14 C 0.755794 2.692469 0.462428 0
M  V30 15 C 1.293765 1.741950 -0.417951 0
M  V30 16 C 0.503316 0.684665 -0.871601 0
M  V30 17 C -0.767733 0.725120 -0.361850 0
M  V30 18 C -1.593333 -0.340714 -0.746239 0
M  V30 19 C -2.917400 -0.526091 -0.318967 0
M  V30 20 C -3.933220 -1.531940 -0.545305 0
M  V30 21 O -2.947983 -2.250739 -0.290035 0
M  V30 22 N -4.202256 -2.959034 -0.587020 0
M  V30 23 C -5.597064 -3.165544 -0.943940 0
M  V30 24 C -5.618077 -3.722216 -2.367137 0
M  V30 25 O -5.105220 -5.013950 -2.310166 0
M  V30 26 C -3.815987 -4.991475 -1.789506 0
M  V30 27 C -3.746779 -4.373451 -0.432101 0
M  V30 28 C -3.378095 0.471227 0.556408 0
M  V30 29 C -2.650454 1.556928 0.992162 0
M  V30 30 C -1.374757 1.603757 0.491415 0
M  V30 31 C -0.543240 2.627496 0.904718 0
M  V30 32 C 3.905145 -0.445130 1.699628 0
M  V30 33 C 2.879955 -1.084872 2.328613 0
M  V30 34 H 3.908242 -4.268620 2.081955 0
M  V30 35 H 5.747450 -3.082902 0.943437 0
M  V30 36 H 6.816356 1.217553 -0.117980 0
M  V30 37 H 2.170133 1.243742 2.590452 0
M  V30 38 H 1.832257 3.292957 3.033608 0
M  V30 39 H 3.394851 3.731691 2.339675 0
M  V30 40 H 1.338277 4.605450 1.121263 0
M  V30 41 H 2.576072 3.850021 0.086171 0
M  V30 42 H 2.321406 1.735146 -0.814958 0
M  V30 43 H 0.813215 -0.100361 -1.549334 0
M  V30 44 H -1.292594 -1.132473 -1.426677 0
M  V30 45 H -6.154953 -2.182751 -0.929385 0
M  V30 46 H -6.078071 -3.819828 -0.220487 0
M  V30 47 H -4.915197 -3.036486 -2.926060 0
M  V30 48 H -6.627717 -3.738578 -2.793139 0
M  V30 49 H -3.430202 -6.033064 -1.758183 0
M  V30 50 H -3.102438 -4.424910 -2.437539 0
M  V30 51 H -2.663369 -4.357993 -0.143756 0
M  V30 52 H -4.291789 -4.856527 0.366568 0
M  V30 53 H -4.389316 0.476451 0.972980 0
M  V30 54 H -3.010518 2.318153 1.660654 0
M  V30 55 H -0.802678 3.421041 1.560676 0
M  V30 56 H 2.026686 -0.606779 2.749679 0
M  V30 END ATOM
M  V30 BEGIN BOND
M  V30 1 3 1 2
M  V30 2 1 2 3
M  V30 3 2 3 4
M  V30 4 1 4 5
M  V30 5 2 5 6
M  V30 6 1 6 7
M  V30 7 2 7 8
M  V30 8 1 8 9
M  V30 9 2 9 10
M  V30 10 1 10 11
M  V30 11 1 11 12
M  V30 12 1 12 13
M  V30 13 1 13 14
M  V30 14 2 14 15
M  V30 15 1 15 16
M  V30 16 2 16 17
M  V30 17 1 17 18
M  V30 18 2 18 19
M  V30 19 1 19 20
M  V30 20 2 20 21
M  V30 21 1 20 22
M  V30 22 1 22 23
M  V30 23 1 23 24
M  V30 24 1 24 25
M  V30 25 1 25 26
M  V30 26 1 26 27
M  V30 27 1 19 28
M  V30 28 2 28 29
M  V30 29 1 29 30
M  V30 30 2 30 31
M  V30 31 1 10 32
M  V30 32 2 32 33
M  V30 33 1 33 3
M  V30 34 1 32 6
M  V30 35 1 31 14
M  V30 36 1 30 17
M  V30 37 1 27 22
M  V30 38 1 4 34
M  V30 39 1 5 35
M  V30 40 1 8 36
M  V30 41 1 11 37
M  V30 42 1 12 38
M  V30 43 1 12 39
M  V30 44 1 13 40
M  V30 45 1 13 41
M  V30 46 1 15 42
M  V30 47 1 16 43
M  V30 48 1 18 44
M  V30 49 1 23 45
M  V30 50 1 23 46
M  V30 51 1 24 47
M  V30 52 1 24 48
M  V30 53 1 26 49
M  V30 54 1 26 50
M  V30 55 1 27 51
M  V30 56 1 27 52
M  V30 57 1 28 53
M  V30 58 1 29 54
M  V30 59 1 31 55
M  V30 60 1 33 56
M  V30 END BOND
M  V30 END CTAB
M  END
>  <Dataset>  (234) 
ChEMBL_Kinases

>  <Ligand_Instance>  (234) 
nan

>  <PDB_ID>  (234) 
nan

>  <Standardized_SMILES>  (234) 
N#Cc1ccc2ncnc(NCCc3ccc4cc(C(=O)N5CCOCC5)ccc4c3)c2c1

>  <Name>  (234) 
nan

>  <Pocket>  (234) 
nan

>  <ATP_Site>  (234) 
nan

>  <Peripheral>  (234) 
nan

>  <Num_H_Atoms_ProtBoundConf>  (234) 
nan

>  <Num_Resolved_Atoms>  (234) 
nan

>  <Num_Not_Resolved_Atoms>  (234) 
nan

$$$$
CHEMBL601063
     RDKit          3D

  0  0  0  0  0  0  0  0  0  0999 V3000
M  V30 BEGIN CTAB
M  V30 COUNTS 60 63 0 0 0
M  V30 BEGIN ATOM
M  V30 1 C 4.228217 -3.371430 -3.917429 0
M  V30 2 N 3.520245 -2.866359 -2.748163 0
M  V30 3 C 3.250047 -3.955315 -1.801209 0
M  V30 4 C 3.410283 -1.513023 -3.067482 0
M  V30 5 O 2.815945 -1.443324 -1.962721 0
M  V30 6 C 3.002581 -0.205988 -2.793606 0
M  V30 7 O 3.701157 -0.419624 -3.845605 0
M  V30 8 C 2.584914 1.098252 -2.502984 0
M  V30 9 N 2.983074 2.092359 -3.303417 0
M  V30 10 N 2.476039 3.230068 -2.872369 0
M  V30 11 C 2.689299 4.540616 -3.496202 0
M  V30 12 C 1.750551 2.925167 -1.782107 0
M  V30 13 C 1.033949 3.805653 -1.015765 0
M  V30 14 C 0.334917 3.254789 0.069875 0
M  V30 15 Cl -0.607953 4.321630 1.104132 0
M  V30 16 C 0.391714 1.893622 0.321535 0
M  V30 17 C -0.372145 1.412362 1.456985 0
M  V30 18 O -1.434782 1.203667 0.807362 0
M  V30 19 N -1.567458 0.915570 1.999727 0
M  V30 20 C -2.842923 0.641388 1.348796 0
M  V30 21 C -3.835741 0.112630 2.365878 0
M  V30 22 C -3.259373 -1.085934 3.107115 0
M  V30 23 C -3.223501 -2.277264 2.178110 0
M  V30 24 C -2.698267 -3.506991 2.779078 0
M  V30 25 C -3.670748 -4.253503 3.442124 0
M  V30 26 C -3.433768 -5.454758 4.084692 0
M  V30 27 C -2.144744 -5.913211 4.048127 0
M  V30 28 F -1.871016 -7.095271 4.671560 0
M  V30 29 C -1.131787 -5.233683 3.414448 0
M  V30 30 C -1.426607 -4.059432 2.800630 0
M  V30 31 C -1.956143 -0.763296 3.756544 0
M  V30 32 C -1.497442 0.637845 3.442460 0
M  V30 33 C 1.117323 1.013890 -0.454265 0
M  V30 34 C 1.786401 1.585209 -1.504487 0
M  V30 35 H 5.202681 -2.846944 -4.035581 0
M  V30 36 H 3.553933 -3.234588 -4.806699 0
M  V30 37 H 4.470970 -4.439066 -3.869265 0
M  V30 38 H 4.232298 -4.451442 -1.575294 0
M  V30 39 H 2.833819 -3.590796 -0.868960 0
M  V30 40 H 2.649961 -4.731984 -2.316079 0
M  V30 41 H 3.215469 4.382776 -4.457108 0
M  V30 42 H 3.231698 5.228729 -2.832955 0
M  V30 43 H 1.705221 4.995456 -3.784813 0
M  V30 44 H 1.011122 4.855943 -1.233978 0
M  V30 45 H -3.253978 1.600205 0.952799 0
M  V30 46 H -2.766973 -0.058185 0.496953 0
M  V30 47 H -4.723772 -0.254870 1.801621 0
M  V30 48 H -4.202629 0.883220 3.065488 0
M  V30 49 H -4.002819 -1.338068 3.894803 0
M  V30 50 H -2.468208 -1.985732 1.383704 0
M  V30 51 H -4.200810 -2.468991 1.720508 0
M  V30 52 H -4.724044 -3.933847 3.502282 0
M  V30 53 H -4.218046 -6.005613 4.588778 0
M  V30 54 H -0.110679 -5.592735 3.377005 0
M  V30 55 H -0.699088 -3.453691 2.261734 0
M  V30 56 H -1.206865 -1.521326 3.487708 0
M  V30 57 H -2.056421 -0.833546 4.884394 0
M  V30 58 H -0.553035 0.907046 3.906162 0
M  V30 59 H -2.263057 1.324312 3.895111 0
M  V30 60 H 1.197667 -0.047541 -0.304820 0
M  V30 END ATOM
M  V30 BEGIN BOND
M  V30 1 1 1 2
M  V30 2 1 2 3
M  V30 3 1 2 4
M  V30 4 2 4 5
M  V30 5 1 4 6
M  V30 6 2 6 7
M  V30 7 1 6 8
M  V30 8 2 8 9
M  V30 9 1 9 10
M  V30 10 1 10 11
M  V30 11 1 10 12
M  V30 12 2 12 13
M  V30 13 1 13 14
M  V30 14 1 14 15
M  V30 15 2 14 16
M  V30 16 1 16 17
M  V30 17 2 17 18
M  V30 18 1 17 19
M  V30 19 1 19 20
M  V30 20 1 20 21
M  V30 21 1 21 22
M  V30 22 1 22 23
M  V30 23 1 23 24
M  V30 24 2 24 25
M  V30 25 1 25 26
M  V30 26 2 26 27
M  V30 27 1 27 28
M  V30 28 1 27 29
M  V30 29 2 29 30
M  V30 30 1 22 31
M  V30 31 1 31 32
M  V30 32 1 16 33
M  V30 33 2 33 34
M  V30 34 1 34 8
M  V30 35 1 34 12
M  V30 36 1 32 19
M  V30 37 1 30 24
M  V30 38 1 1 35
M  V30 39 1 1 36
M  V30 40 1 1 37
M  V30 41 1 3 38
M  V30 42 1 3 39
M  V30 43 1 3 40
M  V30 44 1 11 41
M  V30 45 1 11 42
M  V30 46 1 11 43
M  V30 47 1 13 44
M  V30 48 1 20 45
M  V30 49 1 20 46
M  V30 50 1 21 47
M  V30 51 1 21 48
M  V30 52 1 22 49
M  V30 53 1 23 50
M  V30 54 1 23 51
M  V30 55 1 25 52
M  V30 56 1 26 53
M  V30 57 1 29 54
M  V30 58 1 30 55
M  V30 59 1 31 56
M  V30 60 1 31 57
M  V30 61 1 32 58
M  V30 62 1 32 59
M  V30 63 1 33 60
M  V30 END BOND
M  V30 END CTAB
M  END
>  <Dataset>  (235) 
ChEMBL_Kinases

>  <Ligand_Instance>  (235) 
nan

>  <PDB_ID>  (235) 
nan

>  <Standardized_SMILES>  (235) 
CN(C)C(=O)C(=O)c1nn(C)c2cc(Cl)c(C(=O)N3CCC(Cc4ccc(F)cc4)CC3)cc12

>  <Name>  (235) 
nan

>  <Pocket>  (235) 
nan

>  <ATP_Site>  (235) 
nan

>  <Peripheral>  (235) 
nan

>  <Num_H_Atoms_ProtBoundConf>  (235) 
nan

>  <Num_Resolved_Atoms>  (235) 
nan

>  <Num_Not_Resolved_Atoms>  (235) 
nan

$$$$
CHEMBL487891
     RDKit          3D

  0  0  0  0  0  0  0  0  0  0999 V3000
M  V30 BEGIN CTAB
M  V30 COUNTS 49 53 0 0 0
M  V30 BEGIN ATOM
M  V30 1 C 2.015079 2.632809 5.271203 0
M  V30 2 O 1.584786 1.325147 4.951459 0
M  V30 3 C 2.000826 0.692446 3.814885 0
M  V30 4 O 2.669701 1.718091 3.544559 0
M  V30 5 C 1.472250 -0.659505 3.615832 0
M  V30 6 C 1.896702 -1.391597 2.409583 0
M  V30 7 N 1.595746 -0.824259 1.138885 0
M  V30 8 C 2.308549 0.029714 0.350510 0
M  V30 9 C 3.549638 0.544892 0.651967 0
M  V30 10 C 4.180699 1.403122 -0.223638 0
M  V30 11 C 3.514559 1.711232 -1.394219 0
M  V30 12 O 4.160794 2.580694 -2.274572 0
M  V30 13 C 2.275978 1.165593 -1.640805 0
M  V30 14 C 1.621866 0.315936 -0.802171 0
M  V30 15 C 0.474085 -0.367797 -0.724932 0
M  V30 16 C -0.568924 -0.445241 -1.592710 0
M  V30 17 C -1.662986 -1.222510 -1.302817 0
M  V30 18 C -1.702396 -1.935866 -0.110606 0
M  V30 19 C -2.837992 -2.777756 0.250628 0
M  V30 20 C -3.834178 -2.117001 0.966204 0
M  V30 21 C -4.968053 -2.802181 1.371142 0
M  V30 22 C -5.123511 -4.142645 1.071480 0
M  V30 23 C -4.144153 -4.785925 0.369795 0
M  V30 24 C -2.991702 -4.117969 -0.049897 0
M  V30 25 Cl -1.686944 -4.854366 -0.950357 0
M  V30 26 C -0.641577 -1.854449 0.767437 0
M  V30 27 C 0.443805 -1.068561 0.454328 0
M  V30 28 C -2.696734 -1.201558 -2.331268 0
M  V30 29 O -3.787160 -1.800772 -2.344880 0
M  V30 30 N -2.144590 -0.316369 -3.327415 0
M  V30 31 C -0.878642 0.126380 -2.875558 0
M  V30 32 O -0.278278 0.899692 -3.632466 0
M  V30 33 H 1.605256 2.863358 6.288522 0
M  V30 34 H 1.766244 3.397618 4.534151 0
M  V30 35 H 3.129067 2.613642 5.444079 0
M  V30 36 H 1.785442 -1.265679 4.494903 0
M  V30 37 H 0.341386 -0.674669 3.686750 0
M  V30 38 H 3.023296 -1.486114 2.470429 0
M  V30 39 H 1.557684 -2.442960 2.524277 0
M  V30 40 H 4.074329 0.313941 1.553727 0
M  V30 41 H 5.150624 1.805919 0.011605 0
M  V30 42 H 3.672342 3.309037 -2.779211 0
M  V30 43 H 1.863193 1.473246 -2.567577 0
M  V30 44 H -3.823115 -1.069560 1.258785 0
M  V30 45 H -5.772541 -2.346221 1.926877 0
M  V30 46 H -6.008741 -4.690234 1.384048 0
M  V30 47 H -4.208516 -5.838416 0.103971 0
M  V30 48 H -0.673477 -2.408666 1.692450 0
M  V30 49 H -2.706814 -0.121116 -4.203772 0
M  V30 END ATOM
M  V30 BEGIN BOND
M  V30 1 1 1 2
M  V30 2 1 2 3
M  V30 3 2 3 4
M  V30 4 1 3 5
M  V30 5 1 5 6
M  V30 6 1 6 7
M  V30 7 1 7 8
M  V30 8 2 8 9
M  V30 9 1 9 10
M  V30 10 2 10 11
M  V30 11 1 11 12
M  V30 12 1 11 13
M  V30 13 2 13 14
M  V30 14 1 14 15
M  V30 15 2 15 16
M  V30 16 1 16 17
M  V30 17 2 17 18
M  V30 18 1 18 19
M  V30 19 2 19 20
M  V30 20 1 20 21
M  V30 21 2 21 22
M  V30 22 1 22 23
M  V30 23 2 23 24
M  V30 24 1 24 25
M  V30 25 1 18 26
M  V30 26 2 26 27
M  V30 27 1 17 28
M  V30 28 2 28 29
M  V30 29 1 28 30
M  V30 30 1 30 31
M  V30 31 2 31 32
M  V30 32 1 27 7
M  V30 33 1 14 8
M  V30 34 1 27 15
M  V30 35 1 31 16
M  V30 36 1 24 19
M  V30 37 1 1 33
M  V30 38 1 1 34
M  V30 39 1 1 35
M  V30 40 1 5 36
M  V30 41 1 5 37
M  V30 42 1 6 38
M  V30 43 1 6 39
M  V30 44 1 9 40
M  V30 45 1 10 41
M  V30 46 1 12 42
M  V30 47 1 13 43
M  V30 48 1 20 44
M  V30 49 1 21 45
M  V30 50 1 22 46
M  V30 51 1 23 47
M  V30 52 1 26 48
M  V30 53 1 30 49
M  V30 END BOND
M  V30 END CTAB
M  END
>  <Dataset>  (236) 
ChEMBL_Kinases

>  <Ligand_Instance>  (236) 
nan

>  <PDB_ID>  (236) 
nan

>  <Standardized_SMILES>  (236) 
COC(=O)CCn1c2ccc(O)cc2c2c3c(c(-c4ccccc4Cl)cc21)C(=O)NC3=O

>  <Name>  (236) 
nan

>  <Pocket>  (236) 
nan

>  <ATP_Site>  (236) 
nan

>  <Peripheral>  (236) 
nan

>  <Num_H_Atoms_ProtBoundConf>  (236) 
nan

>  <Num_Resolved_Atoms>  (236) 
nan

>  <Num_Not_Resolved_Atoms>  (236) 
nan

$$$$
CHEMBL601078
     RDKit          3D

  0  0  0  0  0  0  0  0  0  0999 V3000
M  V30 BEGIN CTAB
M  V30 COUNTS 73 79 0 0 0
M  V30 BEGIN ATOM
M  V30 1 C 0.310631 -5.307615 -0.527000 0
M  V30 2 C -0.852448 -5.925836 -1.229520 0
M  V30 3 N -1.070531 -5.527615 -2.568544 0
M  V30 4 C -0.134591 -5.911770 -3.553186 0
M  V30 5 C 0.950930 -4.911703 -3.855595 0
M  V30 6 N 0.426717 -3.587167 -3.622487 0
M  V30 7 C 1.449612 -2.581385 -3.545753 0
M  V30 8 C 1.316614 -1.365671 -2.899325 0
M  V30 9 C 2.245855 -0.356795 -2.811992 0
M  V30 10 C 1.917395 0.881914 -2.065050 0
M  V30 11 O 1.603215 2.027714 -2.451168 0
M  V30 12 N 2.018891 0.557869 -0.684077 0
M  V30 13 C 1.849889 1.211314 0.594505 0
M  V30 14 C 2.991749 1.871753 1.068085 0
M  V30 15 C 2.987716 2.544103 2.296738 0
M  V30 16 C 1.814716 2.529136 3.021559 0
M  V30 17 C 0.685479 1.886705 2.572535 0
M  V30 18 C 0.706090 1.231126 1.363450 0
M  V30 19 C -0.532523 1.901219 3.347375 0
M  V30 20 C -0.478178 2.594867 4.535104 0
M  V30 21 C -1.720564 2.436710 5.087767 0
M  V30 22 C -2.350494 2.905141 6.340577 0
M  V30 23 N -1.492639 3.706974 7.179349 0
M  V30 24 O -3.512403 2.705826 6.771133 0
M  V30 25 N -2.446086 1.672004 4.221144 0
M  V30 26 N -1.732076 1.343294 3.162936 0
M  V30 27 C -2.258840 0.549219 2.116520 0
M  V30 28 C -2.188848 -0.835495 2.065017 0
M  V30 29 C -2.775800 -1.467806 0.962854 0
M  V30 30 C -3.406657 -0.799339 -0.052475 0
M  V30 31 C -3.456177 0.582212 0.034212 0
M  V30 32 C -2.894364 1.270097 1.099427 0
M  V30 33 O -4.142297 1.018405 -1.106981 0
M  V30 34 C -4.375179 -0.100008 -1.971077 0
M  V30 35 O -4.046295 -1.244931 -1.223910 0
M  V30 36 C 0.658426 3.368584 5.085658 0
M  V30 37 C 1.918472 3.245273 4.312177 0
M  V30 38 C 3.471391 -0.584009 -3.451238 0
M  V30 39 Cl 4.675341 0.663637 -3.369883 0
M  V30 40 C 3.599153 -1.795001 -4.091957 0
M  V30 41 N 2.664229 -2.743054 -4.147209 0
M  V30 42 C -0.981119 -3.276678 -3.495350 0
M  V30 43 C -1.758755 -4.305300 -2.750663 0
M  V30 44 H 1.196451 -5.965429 -0.512518 0
M  V30 45 H 0.607496 -4.306396 -0.899528 0
M  V30 46 H 0.019097 -5.166024 0.554708 0
M  V30 47 H -1.803110 -5.735235 -0.663019 0
M  V30 48 H -0.684458 -7.033087 -1.198796 0
M  V30 49 H 0.350579 -6.892710 -3.367600 0
M  V30 50 H -0.708926 -6.021270 -4.522410 0
M  V30 51 H 1.824057 -5.135832 -3.199707 0
M  V30 52 H 1.291898 -5.082174 -4.896130 0
M  V30 53 H 0.384405 -1.153632 -2.388832 0
M  V30 54 H 2.275160 -0.365369 -0.225077 0
M  V30 55 H 3.910031 1.873240 0.481816 0
M  V30 56 H 3.889792 3.025522 2.595218 0
M  V30 57 H -0.092243 0.704276 0.911069 0
M  V30 58 H -0.877493 4.328861 7.770651 0
M  V30 59 H -0.926418 3.272802 7.941124 0
M  V30 60 H -1.688584 -1.351287 2.872249 0
M  V30 61 H -2.703456 -2.547275 0.954672 0
M  V30 62 H -2.994836 2.344956 1.059073 0
M  V30 63 H -5.435135 -0.056427 -2.272095 0
M  V30 64 H -3.757083 -0.025363 -2.891121 0
M  V30 65 H 0.350222 4.448400 5.067654 0
M  V30 66 H 0.845616 3.088606 6.153884 0
M  V30 67 H 2.683879 2.722620 4.967005 0
M  V30 68 H 2.370017 4.262528 4.179905 0
M  V30 69 H 4.566016 -1.948752 -4.582622 0
M  V30 70 H -1.113941 -2.305922 -2.941680 0
M  V30 71 H -1.344306 -3.147563 -4.545668 0
M  V30 72 H -2.182343 -3.877236 -1.816842 0
M  V30 73 H -2.667296 -4.538367 -3.385937 0
M  V30 END ATOM
M  V30 BEGIN BOND
M  V30 1 1 1 2
M  V30 2 1 2 3
M  V30 3 1 3 4
M  V30 4 1 4 5
M  V30 5 1 5 6
M  V30 6 1 6 7
M  V30 7 2 7 8
M  V30 8 1 8 9
M  V30 9 1 9 10
M  V30 10 2 10 11
M  V30 11 1 10 12
M  V30 12 1 12 13
M  V30 13 2 13 14
M  V30 14 1 14 15
M  V30 15 2 15 16
M  V30 16 1 16 17
M  V30 17 2 17 18
M  V30 18 1 17 19
M  V30 19 2 19 20
M  V30 20 1 20 21
M  V30 21 1 21 22
M  V30 22 1 22 23
M  V30 23 2 22 24
M  V30 24 2 21 25
M  V30 25 1 25 26
M  V30 26 1 26 27
M  V30 27 2 27 28
M  V30 28 1 28 29
M  V30 29 2 29 30
M  V30 30 1 30 31
M  V30 31 2 31 32
M  V30 32 1 31 33
M  V30 33 1 33 34
M  V30 34 1 34 35
M  V30 35 1 20 36
M  V30 36 1 36 37
M  V30 37 2 9 38
M  V30 38 1 38 39
M  V30 39 1 38 40
M  V30 40 2 40 41
M  V30 41 1 6 42
M  V30 42 1 42 43
M  V30 43 1 43 3
M  V30 44 1 41 7
M  V30 45 1 18 13
M  V30 46 1 26 19
M  V30 47 1 32 27
M  V30 48 1 37 16
M  V30 49 1 35 30
M  V30 50 1 1 44
M  V30 51 1 1 45
M  V30 52 1 1 46
M  V30 53 1 2 47
M  V30 54 1 2 48
M  V30 55 1 4 49
M  V30 56 1 4 50
M  V30 57 1 5 51
M  V30 58 1 5 52
M  V30 59 1 8 53
M  V30 60 1 12 54
M  V30 61 1 14 55
M  V30 62 1 15 56
M  V30 63 1 18 57
M  V30 64 1 23 58
M  V30 65 1 23 59
M  V30 66 1 28 60
M  V30 67 1 29 61
M  V30 68 1 32 62
M  V30 69 1 34 63
M  V30 70 1 34 64
M  V30 71 1 36 65
M  V30 72 1 36 66
M  V30 73 1 37 67
M  V30 74 1 37 68
M  V30 75 1 40 69
M  V30 76 1 42 70
M  V30 77 1 42 71
M  V30 78 1 43 72
M  V30 79 1 43 73
M  V30 END BOND
M  V30 END CTAB
M  END
>  <Dataset>  (237) 
ChEMBL_Kinases

>  <Ligand_Instance>  (237) 
nan

>  <PDB_ID>  (237) 
nan

>  <Standardized_SMILES>  (237) 
CCN1CCN(c2cc(C(=O)Nc3ccc4c(c3)-c3c(c(C(N)=O)nn3-c3ccc5c(c3)OCO5)CC4)c(Cl)cn2)CC1

>  <Name>  (237) 
nan

>  <Pocket>  (237) 
nan

>  <ATP_Site>  (237) 
nan

>  <Peripheral>  (237) 
nan

>  <Num_H_Atoms_ProtBoundConf>  (237) 
nan

>  <Num_Resolved_Atoms>  (237) 
nan

>  <Num_Not_Resolved_Atoms>  (237) 
nan

$$$$
CHEMBL3909936
     RDKit          3D

  0  0  0  0  0  0  0  0  0  0999 V3000
M  V30 BEGIN CTAB
M  V30 COUNTS 55 59 0 0 0
M  V30 BEGIN ATOM
M  V30 1 C 6.040471 -5.399181 1.449693 0
M  V30 2 O 5.900425 -4.121442 0.826643 0
M  V30 3 C 4.625445 -3.724523 0.462953 0
M  V30 4 O 3.570437 -4.401944 0.637098 0
M  V30 5 N 4.410908 -2.476131 -0.156409 0
M  V30 6 C 3.191437 -1.890337 -0.601542 0
M  V30 7 N 2.603416 -1.144197 0.379976 0
M  V30 8 C 1.447782 -0.617090 -0.112063 0
M  V30 9 C 0.432175 0.198223 0.364186 0
M  V30 10 C -0.638437 0.541545 -0.464532 0
M  V30 11 C -1.623295 1.419046 0.220552 0
M  V30 12 O -2.551429 1.945287 -0.673506 0
M  V30 13 C -0.859105 2.519598 0.900693 0
M  V30 14 C -0.135374 3.473688 0.193123 0
M  V30 15 C 0.550580 4.402162 0.960948 0
M  V30 16 C 0.530327 4.398357 2.339006 0
M  V30 17 C -0.208394 3.425048 3.017675 0
M  V30 18 C -0.898843 2.492079 2.277101 0
M  V30 19 C -1.797022 1.355436 2.584105 0
M  V30 20 O -2.024051 1.080492 3.793755 0
M  V30 21 N -2.248830 0.768423 1.343606 0
M  V30 22 C -3.208466 -0.281557 1.373100 0 CFG=1
M  V30 23 C -4.538034 0.108752 0.759138 0
M  V30 24 C -2.747324 -1.599713 0.883520 0
M  V30 25 C -3.557227 -2.257841 -0.038593 0
M  V30 26 C -3.308684 -3.493423 -0.601104 0
M  V30 27 C -2.156510 -4.146263 -0.224045 0
M  V30 28 C -1.323667 -3.536584 0.684674 0
M  V30 29 C -1.614742 -2.300851 1.219239 0
M  V30 30 C -0.682216 0.066821 -1.758495 0
M  V30 31 C 0.322853 -0.744606 -2.241591 0
M  V30 32 C 1.372577 -1.073144 -1.408231 0
M  V30 33 N 2.434964 -1.845477 -1.697659 0
M  V30 34 H 5.581441 -5.410203 2.463442 0
M  V30 35 H 7.135326 -5.571788 1.574129 0
M  V30 36 H 5.562414 -6.199383 0.855487 0
M  V30 37 H 5.267305 -1.877320 -0.320729 0
M  V30 38 H 0.553756 0.518979 1.386029 0
M  V30 39 H -2.953883 2.756821 -0.288027 0
M  V30 40 H -0.056262 3.561286 -0.875502 0
M  V30 41 H 1.146626 5.190171 0.513173 0
M  V30 42 H 1.059608 5.114265 2.946623 0
M  V30 43 H -0.269595 3.361486 4.086524 0
M  V30 44 H -3.486044 -0.490786 2.455918 0
M  V30 45 H -5.285660 -0.632635 1.109218 0
M  V30 46 H -4.823509 1.057576 1.279779 0
M  V30 47 H -4.508389 0.254932 -0.319620 0
M  V30 48 H -4.478180 -1.782506 -0.366708 0
M  V30 49 H -3.994388 -3.931174 -1.311438 0
M  V30 50 H -1.920722 -5.106706 -0.633126 0
M  V30 51 H -0.411359 -4.028406 0.997612 0
M  V30 52 H -0.974098 -1.780446 1.949025 0
M  V30 53 H -1.547479 0.384700 -2.323867 0
M  V30 54 H 0.267162 -1.102101 -3.253234 0
M  V30 55 H 2.768869 -2.368352 -2.510470 0
M  V30 END ATOM
M  V30 BEGIN BOND
M  V30 1 1 1 2
M  V30 2 1 2 3
M  V30 3 2 3 4
M  V30 4 1 3 5
M  V30 5 1 5 6
M  V30 6 2 6 7
M  V30 7 1 7 8
M  V30 8 2 8 9
M  V30 9 1 9 10
M  V30 10 1 10 11
M  V30 11 1 11 12
M  V30 12 1 11 13
M  V30 13 2 13 14
M  V30 14 1 14 15
M  V30 15 2 15 16
M  V30 16 1 16 17
M  V30 17 2 17 18
M  V30 18 1 18 19
M  V30 19 2 19 20
M  V30 20 1 19 21
M  V30 21 1 21 22
M  V30 22 1 22 23
M  V30 23 1 22 24
M  V30 24 2 24 25
M  V30 25 1 25 26
M  V30 26 2 26 27
M  V30 27 1 27 28
M  V30 28 2 28 29
M  V30 29 2 10 30
M  V30 30 1 30 31
M  V30 31 2 31 32
M  V30 32 1 32 33
M  V30 33 1 33 6
M  V30 34 1 32 8
M  V30 35 1 21 11
M  V30 36 1 29 24
M  V30 37 1 18 13
M  V30 38 1 1 34
M  V30 39 1 1 35
M  V30 40 1 1 36
M  V30 41 1 5 37
M  V30 42 1 9 38
M  V30 43 1 12 39
M  V30 44 1 14 40
M  V30 45 1 15 41
M  V30 46 1 16 42
M  V30 47 1 17 43
M  V30 48 1 22 44 CFG=1
M  V30 49 1 23 45
M  V30 50 1 23 46
M  V30 51 1 23 47
M  V30 52 1 25 48
M  V30 53 1 26 49
M  V30 54 1 27 50
M  V30 55 1 28 51
M  V30 56 1 29 52
M  V30 57 1 30 53
M  V30 58 1 31 54
M  V30 59 1 33 55
M  V30 END BOND
M  V30 END CTAB
M  END
>  <Dataset>  (238) 
ChEMBL_Kinases

>  <Ligand_Instance>  (238) 
nan

>  <PDB_ID>  (238) 
nan

>  <Standardized_SMILES>  (238) 
COC(=O)Nc1nc2cc(C3(O)c4ccccc4C(=O)N3[C@@H](C)c3ccccc3)ccc2[nH]1

>  <Name>  (238) 
nan

>  <Pocket>  (238) 
nan

>  <ATP_Site>  (238) 
nan

>  <Peripheral>  (238) 
nan

>  <Num_H_Atoms_ProtBoundConf>  (238) 
nan

>  <Num_Resolved_Atoms>  (238) 
nan

>  <Num_Not_Resolved_Atoms>  (238) 
nan

$$$$
CHEMBL601727
     RDKit          3D

  0  0  0  0  0  0  0  0  0  0999 V3000
M  V30 BEGIN CTAB
M  V30 COUNTS 67 72 0 0 0
M  V30 BEGIN ATOM
M  V30 1 C 5.964700 -3.918899 4.594632 0
M  V30 2 C 4.628224 -3.244582 4.924174 0 CFG=1
M  V30 3 C 4.808399 -1.786929 4.673400 0
M  V30 4 N 3.619412 -1.308920 3.955588 0
M  V30 5 C 3.660867 -0.444496 2.807974 0
M  V30 6 C 2.583203 0.009774 2.114563 0
M  V30 7 C 2.724451 0.839702 1.021945 0
M  V30 8 C 1.471574 1.252981 0.368563 0
M  V30 9 O 0.544052 1.909107 0.915390 0
M  V30 10 N 1.293881 0.876375 -1.004623 0
M  V30 11 C 0.039146 1.335080 -1.525978 0
M  V30 12 C -0.094020 2.570331 -2.130214 0
M  V30 13 C -1.313339 3.014239 -2.636139 0
M  V30 14 C -2.441667 2.207649 -2.541229 0
M  V30 15 C -2.283676 0.980971 -1.934971 0
M  V30 16 C -1.084085 0.536889 -1.433769 0
M  V30 17 C -3.482376 0.166600 -1.855742 0
M  V30 18 C -4.640907 0.686532 -2.383424 0
M  V30 19 C -5.596107 -0.310990 -2.158318 0
M  V30 20 C -7.023401 -0.391158 -2.475438 0
M  V30 21 N -7.680068 0.678433 -3.134628 0
M  V30 22 O -7.784679 -1.373127 -2.208952 0
M  V30 23 N -4.975912 -1.340677 -1.527981 0
M  V30 24 N -3.694591 -1.052097 -1.344130 0
M  V30 25 C -2.841935 -1.985709 -0.701550 0
M  V30 26 C -2.533488 -2.142321 0.656781 0
M  V30 27 C -1.672030 -3.155016 1.012710 0
M  V30 28 C -1.100563 -4.016049 0.117837 0
M  V30 29 F -0.266065 -4.972400 0.610238 0
M  V30 30 C -1.398888 -3.871441 -1.236805 0
M  V30 31 C -2.254510 -2.870109 -1.617025 0
M  V30 32 C -4.870353 1.978533 -3.039747 0
M  V30 33 C -3.641374 2.813435 -3.115688 0
M  V30 34 C 3.974108 1.213373 0.628146 0
M  V30 35 Cl 4.104226 2.257989 -0.750868 0
M  V30 36 C 5.041276 0.730558 1.358739 0
M  V30 37 N 4.900658 -0.081831 2.427997 0
M  V30 38 C 2.401013 -1.821382 4.554692 0
M  V30 39 C 2.327291 -3.299510 4.232192 0
M  V30 40 N 3.644809 -3.879740 4.073924 0
M  V30 41 H 5.909233 -5.001261 4.832988 0
M  V30 42 H 6.782410 -3.397929 5.119046 0
M  V30 43 H 6.121085 -3.877235 3.485651 0
M  V30 44 H 4.407585 -3.409456 5.991665 0
M  V30 45 H 5.664193 -1.553889 4.009640 0
M  V30 46 H 4.922340 -1.198043 5.613314 0
M  V30 47 H 1.612063 -0.308418 2.458087 0
M  V30 48 H 2.042917 0.329558 -1.496720 0
M  V30 49 H 0.801856 3.177750 -2.190439 0
M  V30 50 H -1.271623 4.009277 -3.085901 0
M  V30 51 H -0.947900 -0.414906 -0.959966 0
M  V30 52 H -7.965470 1.667959 -3.247464 0
M  V30 53 H -8.161695 1.453291 -3.621281 0
M  V30 54 H -3.033890 -1.418831 1.257100 0
M  V30 55 H -1.477574 -3.219926 2.070691 0
M  V30 56 H -0.934681 -4.564656 -1.925127 0
M  V30 57 H -2.419593 -2.845805 -2.699476 0
M  V30 58 H -5.250612 1.810398 -4.072934 0
M  V30 59 H -5.674398 2.575196 -2.530591 0
M  V30 60 H -3.453169 3.189022 -4.165508 0
M  V30 61 H -3.812595 3.768833 -2.537439 0
M  V30 62 H 6.028936 1.059088 1.003162 0
M  V30 63 H 1.493481 -1.277009 4.248555 0
M  V30 64 H 2.456728 -1.736495 5.675509 0
M  V30 65 H 1.831523 -3.370565 3.236898 0
M  V30 66 H 1.707809 -3.867888 4.948008 0
M  V30 67 H 3.574547 -4.869445 4.395039 0
M  V30 END ATOM
M  V30 BEGIN BOND
M  V30 1 1 1 2
M  V30 2 1 2 3
M  V30 3 1 3 4
M  V30 4 1 4 5
M  V30 5 2 5 6
M  V30 6 1 6 7
M  V30 7 1 7 8
M  V30 8 2 8 9
M  V30 9 1 8 10
M  V30 10 1 10 11
M  V30 11 2 11 12
M  V30 12 1 12 13
M  V30 13 2 13 14
M  V30 14 1 14 15
M  V30 15 2 15 16
M  V30 16 1 15 17
M  V30 17 2 17 18
M  V30 18 1 18 19
M  V30 19 1 19 20
M  V30 20 1 20 21
M  V30 21 2 20 22
M  V30 22 2 19 23
M  V30 23 1 23 24
M  V30 24 1 24 25
M  V30 25 2 25 26
M  V30 26 1 26 27
M  V30 27 2 27 28
M  V30 28 1 28 29
M  V30 29 1 28 30
M  V30 30 2 30 31
M  V30 31 1 18 32
M  V30 32 1 32 33
M  V30 33 2 7 34
M  V30 34 1 34 35
M  V30 35 1 34 36
M  V30 36 2 36 37
M  V30 37 1 4 38
M  V30 38 1 38 39
M  V30 39 1 39 40
M  V30 40 1 40 2
M  V30 41 1 37 5
M  V30 42 1 16 11
M  V30 43 1 24 17
M  V30 44 1 31 25
M  V30 45 1 33 14
M  V30 46 1 1 41
M  V30 47 1 1 42
M  V30 48 1 1 43
M  V30 49 1 2 44 CFG=1
M  V30 50 1 3 45
M  V30 51 1 3 46
M  V30 52 1 6 47
M  V30 53 1 10 48
M  V30 54 1 12 49
M  V30 55 1 13 50
M  V30 56 1 16 51
M  V30 57 1 21 52
M  V30 58 1 21 53
M  V30 59 1 26 54
M  V30 60 1 27 55
M  V30 61 1 30 56
M  V30 62 1 31 57
M  V30 63 1 32 58
M  V30 64 1 32 59
M  V30 65 1 33 60
M  V30 66 1 33 61
M  V30 67 1 36 62
M  V30 68 1 38 63
M  V30 69 1 38 64
M  V30 70 1 39 65
M  V30 71 1 39 66
M  V30 72 1 40 67
M  V30 END BOND
M  V30 END CTAB
M  END
>  <Dataset>  (239) 
ChEMBL_Kinases

>  <Ligand_Instance>  (239) 
nan

>  <PDB_ID>  (239) 
nan

>  <Standardized_SMILES>  (239) 
C[C@H]1CN(c2cc(C(=O)Nc3ccc4c(c3)-c3c(c(C(N)=O)nn3-c3ccc(F)cc3)CC4)c(Cl)cn2)CCN1

>  <Name>  (239) 
nan

>  <Pocket>  (239) 
nan

>  <ATP_Site>  (239) 
nan

>  <Peripheral>  (239) 
nan

>  <Num_H_Atoms_ProtBoundConf>  (239) 
nan

>  <Num_Resolved_Atoms>  (239) 
nan

>  <Num_Not_Resolved_Atoms>  (239) 
nan

$$$$
CHEMBL3910004
     RDKit          3D

  0  0  0  0  0  0  0  0  0  0999 V3000
M  V30 BEGIN CTAB
M  V30 COUNTS 45 49 0 0 0
M  V30 BEGIN ATOM
M  V30 1 N 2.640224 -7.077916 -3.400670 0
M  V30 2 C 3.606769 -6.559383 -2.500470 0
M  V30 3 O 4.583047 -7.317142 -2.407994 0
M  V30 4 C 3.437760 -5.308801 -1.802634 0
M  V30 5 C 4.397779 -4.851233 -0.934314 0
M  V30 6 C 4.260483 -3.658512 -0.252085 0
M  V30 7 C 3.124649 -2.865928 -0.424237 0
M  V30 8 N 2.654599 -1.689453 0.049289 0
M  V30 9 C 1.476905 -1.447951 -0.500787 0
M  V30 10 C 0.636621 -0.281227 -0.254900 0
M  V30 11 C 1.035780 0.706803 0.617145 0
M  V30 12 C 0.209652 1.802550 0.826309 0
M  V30 13 C -1.024440 1.943848 0.179918 0
M  V30 14 C -1.684840 3.209271 0.583625 0
M  V30 15 C -2.317461 3.005239 1.910154 0
M  V30 16 C -1.643714 3.508893 3.031706 0
M  V30 17 C -2.068609 3.406344 4.337916 0
M  V30 18 C -3.255885 2.757425 4.594119 0
M  V30 19 C -3.941187 2.251416 3.510580 0
M  V30 20 C -3.497383 2.365598 2.210080 0
M  V30 21 Cl -4.409390 1.717545 0.875511 0
M  V30 22 O -3.410203 2.816756 5.972627 0
M  V30 23 C -2.126983 3.028008 6.543319 0
M  V30 24 O -1.534483 3.837948 5.533386 0
M  V30 25 C -1.386270 0.941974 -0.678797 0
M  V30 26 C -0.568938 -0.148050 -0.889594 0
M  V30 27 N 1.184918 -2.465492 -1.328536 0
M  V30 28 C 2.185363 -3.364076 -1.306218 0
M  V30 29 C 2.317613 -4.554083 -1.989898 0
M  V30 30 H 1.951650 -7.444004 -2.691977 0
M  V30 31 H 2.434779 -7.190044 -4.417058 0
M  V30 32 H 5.269275 -5.465066 -0.805461 0
M  V30 33 H 5.010879 -3.284942 0.436273 0
M  V30 34 H 3.175212 -1.116895 0.728635 0
M  V30 35 H 1.990743 0.570867 1.100799 0
M  V30 36 H 0.653597 2.509847 1.544742 0
M  V30 37 H -0.961552 4.040430 0.668897 0
M  V30 38 H -2.462453 3.433306 -0.191296 0
M  V30 39 H -0.691025 4.034355 2.860021 0
M  V30 40 H -4.885096 1.733927 3.702924 0
M  V30 41 H -2.248920 3.629443 7.443056 0
M  V30 42 H -1.536957 2.110809 6.637402 0
M  V30 43 H -2.343194 1.124554 -1.143595 0
M  V30 44 H -0.947275 -0.884430 -1.587844 0
M  V30 45 H 1.536794 -4.885530 -2.669923 0
M  V30 END ATOM
M  V30 BEGIN BOND
M  V30 1 1 1 2
M  V30 2 2 2 3
M  V30 3 1 2 4
M  V30 4 2 4 5
M  V30 5 1 5 6
M  V30 6 2 6 7
M  V30 7 1 7 8
M  V30 8 1 8 9
M  V30 9 1 9 10
M  V30 10 2 10 11
M  V30 11 1 11 12
M  V30 12 2 12 13
M  V30 13 1 13 14
M  V30 14 1 14 15
M  V30 15 2 15 16
M  V30 16 1 16 17
M  V30 17 2 17 18
M  V30 18 1 18 19
M  V30 19 2 19 20
M  V30 20 1 20 21
M  V30 21 1 18 22
M  V30 22 1 22 23
M  V30 23 1 23 24
M  V30 24 1 13 25
M  V30 25 2 25 26
M  V30 26 2 9 27
M  V30 27 1 27 28
M  V30 28 2 28 29
M  V30 29 1 29 4
M  V30 30 1 28 7
M  V30 31 1 26 10
M  V30 32 1 20 15
M  V30 33 1 24 17
M  V30 34 1 1 30
M  V30 35 1 1 31
M  V30 36 1 5 32
M  V30 37 1 6 33
M  V30 38 1 8 34
M  V30 39 1 11 35
M  V30 40 1 12 36
M  V30 41 1 14 37
M  V30 42 1 14 38
M  V30 43 1 16 39
M  V30 44 1 19 40
M  V30 45 1 23 41
M  V30 46 1 23 42
M  V30 47 1 25 43
M  V30 48 1 26 44
M  V30 49 1 29 45
M  V30 END BOND
M  V30 END CTAB
M  END
>  <Dataset>  (240) 
ChEMBL_Kinases

>  <Ligand_Instance>  (240) 
nan

>  <PDB_ID>  (240) 
nan

>  <Standardized_SMILES>  (240) 
NC(=O)c1ccc2[nH]c(-c3ccc(Cc4cc5c(cc4Cl)OCO5)cc3)nc2c1

>  <Name>  (240) 
nan

>  <Pocket>  (240) 
nan

>  <ATP_Site>  (240) 
nan

>  <Peripheral>  (240) 
nan

>  <Num_H_Atoms_ProtBoundConf>  (240) 
nan

>  <Num_Resolved_Atoms>  (240) 
nan

>  <Num_Not_Resolved_Atoms>  (240) 
nan

$$$$
CHEMBL3889622
     RDKit          3D

  0  0  0  0  0  0  0  0  0  0999 V3000
M  V30 BEGIN CTAB
M  V30 COUNTS 52 56 0 0 0
M  V30 BEGIN ATOM
M  V30 1 N 6.414658 -6.843647 3.858979 0
M  V30 2 C 7.018759 -5.823532 3.063137 0
M  V30 3 O 8.250123 -5.836580 2.803280 0
M  V30 4 C 6.217344 -4.712299 2.514201 0
M  V30 5 C 6.891826 -3.773845 1.760332 0
M  V30 6 C 6.183837 -2.701728 1.216754 0
M  V30 7 C 4.807498 -2.592656 1.441657 0
M  V30 8 N 3.904979 -1.670510 1.037417 0
M  V30 9 C 2.697720 -2.030285 1.530381 0
M  V30 10 C 1.473067 -1.263641 1.297315 0
M  V30 11 C 1.577108 -0.117372 0.535491 0
M  V30 12 C 0.393978 0.601642 0.324409 0
M  V30 13 C -0.831891 0.220921 0.831997 0
M  V30 14 N -2.007951 0.984905 0.590816 0
M  V30 15 C -1.771337 2.190761 -0.218284 0
M  V30 16 C -3.014496 3.080450 -0.140155 0
M  V30 17 N -4.184027 2.198305 -0.228083 0
M  V30 18 C -5.004811 2.124215 -1.387194 0
M  V30 19 C -6.118746 1.318365 -1.556465 0
M  V30 20 C -6.826311 1.347285 -2.739610 0
M  V30 21 C -6.450442 2.171053 -3.779869 0
M  V30 22 C -5.328185 2.971763 -3.587066 0
M  V30 23 N -4.668517 2.910924 -2.416800 0
M  V30 24 C -4.396796 1.433981 0.972486 0
M  V30 25 C -3.245703 0.483015 1.160149 0
M  V30 26 C -0.829634 -0.939016 1.579902 0
M  V30 27 C 0.279346 -1.717189 1.845006 0
M  V30 28 N 2.865353 -3.168708 2.232928 0
M  V30 29 C 4.153014 -3.554375 2.206323 0
M  V30 30 C 4.859995 -4.632694 2.754175 0
M  V30 31 H 5.784804 -7.494918 3.341177 0
M  V30 32 H 6.424893 -7.131792 4.843765 0
M  V30 33 H 7.949266 -3.817416 1.561401 0
M  V30 34 H 6.736238 -1.961929 0.617899 0
M  V30 35 H 4.201776 -0.844973 0.437999 0
M  V30 36 H 2.502951 0.234032 0.110915 0
M  V30 37 H 0.502597 1.501203 -0.279232 0
M  V30 38 H -1.501898 1.966232 -1.249276 0
M  V30 39 H -0.981109 2.771571 0.317138 0
M  V30 40 H -3.087171 3.614515 0.806613 0
M  V30 41 H -2.974533 3.760325 -1.040246 0
M  V30 42 H -6.379787 0.689824 -0.722338 0
M  V30 43 H -7.695310 0.717154 -2.868743 0
M  V30 44 H -6.961130 2.242782 -4.734753 0
M  V30 45 H -4.966605 3.654355 -4.369314 0
M  V30 46 H -4.386745 2.124956 1.866245 0
M  V30 47 H -5.362139 0.911441 1.028533 0
M  V30 48 H -3.073119 0.334505 2.247375 0
M  V30 49 H -3.464674 -0.531339 0.761680 0
M  V30 50 H -1.767689 -1.304555 2.016204 0
M  V30 51 H 0.209967 -2.617655 2.440732 0
M  V30 52 H 4.344004 -5.374372 3.346308 0
M  V30 END ATOM
M  V30 BEGIN BOND
M  V30 1 1 1 2
M  V30 2 2 2 3
M  V30 3 1 2 4
M  V30 4 2 4 5
M  V30 5 1 5 6
M  V30 6 2 6 7
M  V30 7 1 7 8
M  V30 8 1 8 9
M  V30 9 1 9 10
M  V30 10 2 10 11
M  V30 11 1 11 12
M  V30 12 2 12 13
M  V30 13 1 13 14
M  V30 14 1 14 15
M  V30 15 1 15 16
M  V30 16 1 16 17
M  V30 17 1 17 18
M  V30 18 2 18 19
M  V30 19 1 19 20
M  V30 20 2 20 21
M  V30 21 1 21 22
M  V30 22 2 22 23
M  V30 23 1 17 24
M  V30 24 1 24 25
M  V30 25 1 13 26
M  V30 26 2 26 27
M  V30 27 2 9 28
M  V30 28 1 28 29
M  V30 29 2 29 30
M  V30 30 1 30 4
M  V30 31 1 29 7
M  V30 32 1 27 10
M  V30 33 1 25 14
M  V30 34 1 23 18
M  V30 35 1 1 31
M  V30 36 1 1 32
M  V30 37 1 5 33
M  V30 38 1 6 34
M  V30 39 1 8 35
M  V30 40 1 11 36
M  V30 41 1 12 37
M  V30 42 1 15 38
M  V30 43 1 15 39
M  V30 44 1 16 40
M  V30 45 1 16 41
M  V30 46 1 19 42
M  V30 47 1 20 43
M  V30 48 1 21 44
M  V30 49 1 22 45
M  V30 50 1 24 46
M  V30 51 1 24 47
M  V30 52 1 25 48
M  V30 53 1 25 49
M  V30 54 1 26 50
M  V30 55 1 27 51
M  V30 56 1 30 52
M  V30 END BOND
M  V30 END CTAB
M  END
>  <Dataset>  (241) 
ChEMBL_Kinases

>  <Ligand_Instance>  (241) 
nan

>  <PDB_ID>  (241) 
nan

>  <Standardized_SMILES>  (241) 
NC(=O)c1ccc2[nH]c(-c3ccc(N4CCN(c5ccccn5)CC4)cc3)nc2c1

>  <Name>  (241) 
nan

>  <Pocket>  (241) 
nan

>  <ATP_Site>  (241) 
nan

>  <Peripheral>  (241) 
nan

>  <Num_H_Atoms_ProtBoundConf>  (241) 
nan

>  <Num_Resolved_Atoms>  (241) 
nan

>  <Num_Not_Resolved_Atoms>  (241) 
nan

$$$$
CHEMBL604261
     RDKit          3D

  0  0  0  0  0  0  0  0  0  0999 V3000
M  V30 BEGIN CTAB
M  V30 COUNTS 43 46 0 0 0
M  V30 BEGIN ATOM
M  V30 1 C -1.891769 -5.268204 1.006145 0
M  V30 2 C -0.848587 -4.321506 0.485681 0
M  V30 3 C -0.276185 -4.381938 -0.767339 0
M  V30 4 C 0.673697 -3.445292 -1.116729 0
M  V30 5 C 1.075921 -2.435986 -0.242506 0
M  V30 6 C 0.486877 -2.397613 1.007223 0
M  V30 7 C 0.897071 -1.351080 1.927620 0
M  V30 8 C 0.810349 0.028752 1.884011 0
M  V30 9 C 0.200967 0.669054 0.723676 0
M  V30 10 C -1.116774 0.503058 0.336615 0
M  V30 11 C -1.605558 1.162176 -0.793301 0
M  V30 12 C -0.751519 1.974984 -1.507628 0
M  V30 13 N -1.182650 2.637683 -2.615541 0
M  V30 14 C -0.338703 3.435830 -3.314459 0
M  V30 15 C 0.973628 3.595771 -2.921638 0
M  V30 16 N 1.416298 2.948370 -1.829289 0
M  V30 17 C 0.578829 2.148141 -1.124495 0
M  V30 18 C 1.048917 1.485735 0.001207 0
M  V30 19 N 1.351129 0.523327 3.013975 0
M  V30 20 C 1.420205 1.942757 3.286219 0
M  V30 21 N 1.766323 -0.471188 3.751943 0
M  V30 22 C 2.403584 -0.299732 5.044738 0
M  V30 23 C 1.516151 -1.664789 3.138220 0
M  V30 24 O 1.798183 -2.799144 3.596232 0
M  V30 25 C -0.464652 -3.331261 1.364933 0
M  V30 26 H -2.783630 -4.664741 1.273681 0
M  V30 27 H -2.090367 -6.083439 0.307060 0
M  V30 28 H -1.527029 -5.680655 1.987850 0
M  V30 29 H -0.604670 -5.167940 -1.417389 0
M  V30 30 H 1.099302 -3.535848 -2.124456 0
M  V30 31 H 1.827615 -1.711151 -0.546310 0
M  V30 32 H -1.725332 -0.153229 0.951169 0
M  V30 33 H -2.635463 1.021378 -1.080709 0
M  V30 34 H -0.644552 3.981649 -4.203984 0
M  V30 35 H 1.707010 4.210751 -3.421449 0
M  V30 36 H 2.097446 1.642346 0.275655 0
M  V30 37 H 2.428299 2.305275 2.984566 0
M  V30 38 H 1.367385 2.104783 4.392648 0
M  V30 39 H 0.632895 2.501390 2.748289 0
M  V30 40 H 3.298136 0.335356 4.855694 0
M  V30 41 H 2.756288 -1.291976 5.437007 0
M  V30 42 H 1.703855 0.150309 5.778769 0
M  V30 43 H -0.873955 -3.231542 2.355186 0
M  V30 END ATOM
M  V30 BEGIN BOND
M  V30 1 1 1 2
M  V30 2 2 2 3
M  V30 3 1 3 4
M  V30 4 2 4 5
M  V30 5 1 5 6
M  V30 6 1 6 7
M  V30 7 2 7 8
M  V30 8 1 8 9
M  V30 9 2 9 10
M  V30 10 1 10 11
M  V30 11 2 11 12
M  V30 12 1 12 13
M  V30 13 2 13 14
M  V30 14 1 14 15
M  V30 15 2 15 16
M  V30 16 1 16 17
M  V30 17 2 17 18
M  V30 18 1 8 19
M  V30 19 1 19 20
M  V30 20 1 19 21
M  V30 21 1 21 22
M  V30 22 1 21 23
M  V30 23 2 23 24
M  V30 24 2 6 25
M  V30 25 1 25 2
M  V30 26 1 23 7
M  V30 27 1 18 9
M  V30 28 1 17 12
M  V30 29 1 1 26
M  V30 30 1 1 27
M  V30 31 1 1 28
M  V30 32 1 3 29
M  V30 33 1 4 30
M  V30 34 1 5 31
M  V30 35 1 10 32
M  V30 36 1 11 33
M  V30 37 1 14 34
M  V30 38 1 15 35
M  V30 39 1 18 36
M  V30 40 1 20 37
M  V30 41 1 20 38
M  V30 42 1 20 39
M  V30 43 1 22 40
M  V30 44 1 22 41
M  V30 45 1 22 42
M  V30 46 1 25 43
M  V30 END BOND
M  V30 END CTAB
M  END
>  <Dataset>  (242) 
ChEMBL_Kinases

>  <Ligand_Instance>  (242) 
nan

>  <PDB_ID>  (242) 
nan

>  <Standardized_SMILES>  (242) 
Cc1cccc(-c2c(-c3ccc4nccnc4c3)n(C)n(C)c2=O)c1

>  <Name>  (242) 
nan

>  <Pocket>  (242) 
nan

>  <ATP_Site>  (242) 
nan

>  <Peripheral>  (242) 
nan

>  <Num_H_Atoms_ProtBoundConf>  (242) 
nan

>  <Num_Resolved_Atoms>  (242) 
nan

>  <Num_Not_Resolved_Atoms>  (242) 
nan

$$$$
CHEMBL4878650
     RDKit          3D

  0  0  0  0  0  0  0  0  0  0999 V3000
M  V30 BEGIN CTAB
M  V30 COUNTS 53 56 0 0 0
M  V30 BEGIN ATOM
M  V30 1 C 1.274793 -1.896733 5.716569 0
M  V30 2 O 1.347671 -1.077142 4.575446 0
M  V30 3 C 1.096466 -1.552698 3.294594 0
M  V30 4 C 0.746181 -2.876435 2.997661 0
M  V30 5 C 0.504500 -3.320158 1.734494 0
M  V30 6 C 0.608799 -2.429713 0.691168 0
M  V30 7 C 0.951482 -1.110326 0.928982 0
M  V30 8 C 1.196550 -0.668635 2.240485 0
M  V30 9 N 1.518080 0.734451 2.410097 0
M  V30 10 C 1.632871 1.550484 1.225450 0
M  V30 11 N 2.711786 2.102162 0.636875 0
M  V30 12 C 2.527817 2.799936 -0.506521 0
M  V30 13 C 1.292331 2.979409 -1.106657 0
M  V30 14 C 1.163667 3.753710 -2.377401 0
M  V30 15 F 0.325295 4.812310 -2.150255 0
M  V30 16 F 0.625696 2.880580 -3.334000 0
M  V30 17 F 2.429276 4.118702 -2.767813 0
M  V30 18 C 0.198937 2.404590 -0.485051 0
M  V30 19 N -1.115444 2.524492 -1.046060 0
M  V30 20 C -2.323985 2.010785 -0.517113 0
M  V30 21 C -2.520791 1.593037 0.778853 0
M  V30 22 C -3.686913 1.075566 1.288219 0
M  V30 23 C -4.768796 0.961978 0.420140 0
M  V30 24 C -4.624007 1.365018 -0.882951 0
M  V30 25 C -3.426374 1.875562 -1.329889 0
M  V30 26 N 0.451382 1.736089 0.630576 0
M  V30 27 C 0.328052 -2.998164 -0.652447 0
M  V30 28 N 0.991108 -4.310930 -0.630066 0
M  V30 29 C 1.084071 -4.884473 -1.958378 0
M  V30 30 C 0.334895 -5.228194 0.247832 0
M  V30 31 C 0.130547 -4.742331 1.635808 0
M  V30 32 H 1.797352 -2.858968 5.448575 0
M  V30 33 H 1.702340 -1.438027 6.607483 0
M  V30 34 H 0.190797 -2.092309 5.916222 0
M  V30 35 H 0.685462 -3.521534 3.885506 0
M  V30 36 H 1.005099 -0.496203 0.045007 0
M  V30 37 H 1.643972 1.045271 3.415417 0
M  V30 38 H 3.434984 3.225221 -0.940434 0
M  V30 39 H -1.187338 3.061358 -1.962749 0
M  V30 40 H -1.714572 1.664449 1.491758 0
M  V30 41 H -3.768951 0.763705 2.334285 0
M  V30 42 H -5.693745 0.557786 0.805702 0
M  V30 43 H -5.498148 1.257583 -1.532947 0
M  V30 44 H -3.394573 2.174036 -2.390413 0
M  V30 45 H 0.792138 -2.390474 -1.424551 0
M  V30 46 H -0.772164 -3.132806 -0.793620 0
M  V30 47 H 0.765274 -4.152643 -2.732083 0
M  V30 48 H 2.132232 -5.139468 -2.178409 0
M  V30 49 H 0.493126 -5.801935 -1.975745 0
M  V30 50 H 0.998973 -6.140065 0.301743 0
M  V30 51 H -0.612854 -5.641821 -0.209677 0
M  V30 52 H -0.990340 -4.766283 1.826993 0
M  V30 53 H 0.571062 -5.373788 2.420891 0
M  V30 END ATOM
M  V30 BEGIN BOND
M  V30 1 1 1 2
M  V30 2 1 2 3
M  V30 3 2 3 4
M  V30 4 1 4 5
M  V30 5 2 5 6
M  V30 6 1 6 7
M  V30 7 2 7 8
M  V30 8 1 8 9
M  V30 9 1 9 10
M  V30 10 2 10 11
M  V30 11 1 11 12
M  V30 12 2 12 13
M  V30 13 1 13 14
M  V30 14 1 14 15
M  V30 15 1 14 16
M  V30 16 1 14 17
M  V30 17 1 13 18
M  V30 18 1 18 19
M  V30 19 1 19 20
M  V30 20 2 20 21
M  V30 21 1 21 22
M  V30 22 2 22 23
M  V30 23 1 23 24
M  V30 24 2 24 25
M  V30 25 2 18 26
M  V30 26 1 6 27
M  V30 27 1 27 28
M  V30 28 1 28 29
M  V30 29 1 28 30
M  V30 30 1 30 31
M  V30 31 1 8 3
M  V30 32 1 26 10
M  V30 33 1 31 5
M  V30 34 1 25 20
M  V30 35 1 1 32
M  V30 36 1 1 33
M  V30 37 1 1 34
M  V30 38 1 4 35
M  V30 39 1 7 36
M  V30 40 1 9 37
M  V30 41 1 12 38
M  V30 42 1 19 39
M  V30 43 1 21 40
M  V30 44 1 22 41
M  V30 45 1 23 42
M  V30 46 1 24 43
M  V30 47 1 25 44
M  V30 48 1 27 45
M  V30 49 1 27 46
M  V30 50 1 29 47
M  V30 51 1 29 48
M  V30 52 1 29 49
M  V30 53 1 30 50
M  V30 54 1 30 51
M  V30 55 1 31 52
M  V30 56 1 31 53
M  V30 END BOND
M  V30 END CTAB
M  END
>  <Dataset>  (243) 
ChEMBL_Kinases

>  <Ligand_Instance>  (243) 
nan

>  <PDB_ID>  (243) 
nan

>  <Standardized_SMILES>  (243) 
COc1cc2c(cc1Nc1ncc(C(F)(F)F)c(Nc3ccccc3)n1)CN(C)CC2

>  <Name>  (243) 
nan

>  <Pocket>  (243) 
nan

>  <ATP_Site>  (243) 
nan

>  <Peripheral>  (243) 
nan

>  <Num_H_Atoms_ProtBoundConf>  (243) 
nan

>  <Num_Resolved_Atoms>  (243) 
nan

>  <Num_Not_Resolved_Atoms>  (243) 
nan

$$$$
CHEMBL388809
     RDKit          3D

  0  0  0  0  0  0  0  0  0  0999 V3000
M  V30 BEGIN CTAB
M  V30 COUNTS 49 52 0 0 0
M  V30 BEGIN ATOM
M  V30 1 C -0.197412 -2.850608 2.330672 0
M  V30 2 C 1.288458 -2.996020 2.434994 0
M  V30 3 N 2.154706 -3.614368 3.197340 0
M  V30 4 N 3.437445 -3.364802 2.837124 0
M  V30 5 C 3.460424 -2.537202 1.781694 0
M  V30 6 C 4.450758 -1.973808 1.051770 0
M  V30 7 C 4.202137 -1.127411 0.018432 0
M  V30 8 C 2.838837 -0.847062 -0.266466 0
M  V30 9 C 2.680313 0.033355 -1.390876 0
M  V30 10 C 2.522171 0.837028 -2.399029 0
M  V30 11 N 1.881462 1.907251 -2.869513 0
M  V30 12 C 0.959823 2.556217 -2.080081 0
M  V30 13 C 0.806188 2.002183 -0.847694 0
M  V30 14 O -0.124457 2.700018 -0.136185 0
M  V30 15 C -0.603074 2.383376 1.171051 0
M  V30 16 C -1.276489 1.055522 1.235789 0 CFG=1
M  V30 17 N -1.780893 0.865966 2.593565 0
M  V30 18 C -2.405140 0.951034 0.256876 0
M  V30 19 C -3.003204 -0.407280 0.437867 0
M  V30 20 C -3.925670 -0.687989 1.443894 0
M  V30 21 F -4.349119 0.388300 2.213971 0
M  V30 22 C -4.347376 -1.975693 1.563089 0
M  V30 23 C -3.853840 -2.919983 0.713017 0
M  V30 24 F -4.329055 -4.163768 0.872588 0
M  V30 25 C -2.944320 -2.663280 -0.295596 0
M  V30 26 C -2.495479 -1.381848 -0.448751 0
M  V30 27 F -1.595453 -1.169341 -1.417272 0
M  V30 28 C 1.638099 0.854260 -0.620122 0
M  V30 29 C 1.926725 -1.480902 0.531001 0
M  V30 30 C 2.121287 -2.316780 1.546051 0
M  V30 31 H -0.502858 -2.338586 1.393043 0
M  V30 32 H -0.647188 -2.272668 3.174923 0
M  V30 33 H -0.665983 -3.872937 2.306452 0
M  V30 34 H 4.247388 -3.788406 3.348718 0
M  V30 35 H 5.480418 -2.239149 1.370928 0
M  V30 36 H 5.038065 -0.729330 -0.513953 0
M  V30 37 H 3.290738 0.203430 -2.903528 0
M  V30 38 H 0.597164 3.342545 -2.687867 0
M  V30 39 H 0.243928 2.407477 1.924961 0
M  V30 40 H -1.290130 3.186292 1.491350 0
M  V30 41 H -0.630824 0.194666 0.972143 0
M  V30 42 H -1.862587 -0.177619 2.785086 0
M  V30 43 H -1.020145 1.233182 3.271585 0
M  V30 44 H -3.215653 1.704630 0.534306 0
M  V30 45 H -2.093780 1.088495 -0.768821 0
M  V30 46 H -5.067051 -2.126020 2.353669 0
M  V30 47 H -2.636254 -3.516524 -0.920974 0
M  V30 48 H 1.280466 0.755629 0.481423 0
M  V30 49 H 0.909335 -1.218923 0.172953 0
M  V30 END ATOM
M  V30 BEGIN BOND
M  V30 1 1 1 2
M  V30 2 2 2 3
M  V30 3 1 3 4
M  V30 4 1 4 5
M  V30 5 2 5 6
M  V30 6 1 6 7
M  V30 7 2 7 8
M  V30 8 1 8 9
M  V30 9 2 9 10
M  V30 10 1 10 11
M  V30 11 2 11 12
M  V30 12 1 12 13
M  V30 13 1 13 14
M  V30 14 1 14 15
M  V30 15 1 15 16
M  V30 16 1 16 17
M  V30 17 1 16 18
M  V30 18 1 18 19
M  V30 19 2 19 20
M  V30 20 1 20 21
M  V30 21 1 20 22
M  V30 22 2 22 23
M  V30 23 1 23 24
M  V30 24 1 23 25
M  V30 25 2 25 26
M  V30 26 1 26 27
M  V30 27 2 13 28
M  V30 28 1 8 29
M  V30 29 2 29 30
M  V30 30 1 30 2
M  V30 31 1 30 5
M  V30 32 1 28 9
M  V30 33 1 26 19
M  V30 34 1 1 31
M  V30 35 1 1 32
M  V30 36 1 1 33
M  V30 37 1 4 34
M  V30 38 1 6 35
M  V30 39 1 7 36
M  V30 40 1 10 37
M  V30 41 1 12 38
M  V30 42 1 15 39
M  V30 43 1 15 40
M  V30 44 1 16 41 CFG=3
M  V30 45 1 17 42
M  V30 46 1 17 43
M  V30 47 1 18 44
M  V30 48 1 18 45
M  V30 49 1 22 46
M  V30 50 1 25 47
M  V30 51 1 28 48
M  V30 52 1 29 49
M  V30 END BOND
M  V30 END CTAB
M  END
>  <Dataset>  (244) 
ChEMBL_Kinases

>  <Ligand_Instance>  (244) 
nan

>  <PDB_ID>  (244) 
nan

>  <Standardized_SMILES>  (244) 
Cc1n[nH]c2ccc(-c3cncc(OC[C@@H](N)Cc4c(F)cc(F)cc4F)c3)cc12

>  <Name>  (244) 
nan

>  <Pocket>  (244) 
nan

>  <ATP_Site>  (244) 
nan

>  <Peripheral>  (244) 
nan

>  <Num_H_Atoms_ProtBoundConf>  (244) 
nan

>  <Num_Resolved_Atoms>  (244) 
nan

>  <Num_Not_Resolved_Atoms>  (244) 
nan

$$$$
CHEMBL3910201
     RDKit          3D

  0  0  0  0  0  0  0  0  0  0999 V3000
M  V30 BEGIN CTAB
M  V30 COUNTS 52 56 0 0 0
M  V30 BEGIN ATOM
M  V30 1 C 7.067304 -3.148887 -0.081477 0
M  V30 2 O 5.833430 -3.475907 -0.696216 0
M  V30 3 C 4.751776 -2.607122 -0.694974 0
M  V30 4 O 5.096189 -1.566375 -0.079607 0
M  V30 5 N 3.502557 -2.906099 -1.302156 0
M  V30 6 C 2.517926 -1.862110 -1.182713 0
M  V30 7 N 2.263443 -0.810978 -2.013954 0
M  V30 8 C 1.246409 -0.086161 -1.500837 0
M  V30 9 C 0.575908 1.053899 -1.893192 0
M  V30 10 C -0.452658 1.558359 -1.121998 0
M  V30 11 C -0.826450 0.928036 0.056075 0
M  V30 12 C -1.927658 1.418310 0.944324 0
M  V30 13 O -2.614458 2.473480 0.359317 0
M  V30 14 C -1.279657 1.814324 2.222291 0
M  V30 15 C -0.336246 2.830926 2.316645 0
M  V30 16 C 0.191145 3.085067 3.577313 0
M  V30 17 C -0.184460 2.378580 4.700191 0
M  V30 18 C -1.135663 1.365585 4.559452 0
M  V30 19 C -1.678579 1.087760 3.324539 0
M  V30 20 C -2.662621 0.150610 2.793408 0
M  V30 21 O -3.234167 -0.680575 3.570622 0
M  V30 22 N -2.814760 0.359233 1.373612 0
M  V30 23 C -3.751592 -0.446196 0.660410 0
M  V30 24 C -3.196463 -1.710341 0.114107 0
M  V30 25 C -2.633136 -1.895986 -1.132376 0
M  V30 26 C -2.147836 -3.122601 -1.533089 0
M  V30 27 C -2.204800 -4.223860 -0.700225 0
M  V30 28 F -1.703331 -5.386038 -1.180835 0
M  V30 29 C -2.762984 -4.055553 0.544828 0
M  V30 30 C -3.246045 -2.827941 0.939439 0
M  V30 31 C -0.141874 -0.210199 0.428237 0
M  V30 32 C 0.897336 -0.734378 -0.335028 0
M  V30 33 N 1.666947 -1.832901 -0.116460 0
M  V30 34 H 6.948423 -3.066278 1.033630 0
M  V30 35 H 7.833954 -3.910764 -0.276506 0
M  V30 36 H 7.442208 -2.188726 -0.495166 0
M  V30 37 H 3.465463 -3.863187 -1.763514 0
M  V30 38 H 0.872849 1.541247 -2.814286 0
M  V30 39 H -0.994466 2.461751 -1.419471 0
M  V30 40 H -2.101267 3.306757 0.597745 0
M  V30 41 H 0.021684 3.439011 1.496804 0
M  V30 42 H 0.940153 3.884110 3.681352 0
M  V30 43 H 0.200272 2.546578 5.686975 0
M  V30 44 H -1.491563 0.754612 5.398249 0
M  V30 45 H -4.199771 0.166910 -0.177917 0
M  V30 46 H -4.650286 -0.728620 1.277280 0
M  V30 47 H -2.601798 -1.007972 -1.768523 0
M  V30 48 H -1.732817 -3.149409 -2.520774 0
M  V30 49 H -2.780256 -4.952032 1.152199 0
M  V30 50 H -3.656003 -2.866211 1.956158 0
M  V30 51 H -0.419348 -0.705848 1.333511 0
M  V30 52 H 1.591982 -2.472432 0.686273 0
M  V30 END ATOM
M  V30 BEGIN BOND
M  V30 1 1 1 2
M  V30 2 1 2 3
M  V30 3 2 3 4
M  V30 4 1 3 5
M  V30 5 1 5 6
M  V30 6 2 6 7
M  V30 7 1 7 8
M  V30 8 2 8 9
M  V30 9 1 9 10
M  V30 10 2 10 11
M  V30 11 1 11 12
M  V30 12 1 12 13
M  V30 13 1 12 14
M  V30 14 2 14 15
M  V30 15 1 15 16
M  V30 16 2 16 17
M  V30 17 1 17 18
M  V30 18 2 18 19
M  V30 19 1 19 20
M  V30 20 2 20 21
M  V30 21 1 20 22
M  V30 22 1 22 23
M  V30 23 1 23 24
M  V30 24 2 24 25
M  V30 25 1 25 26
M  V30 26 2 26 27
M  V30 27 1 27 28
M  V30 28 1 27 29
M  V30 29 2 29 30
M  V30 30 1 11 31
M  V30 31 2 31 32
M  V30 32 1 32 33
M  V30 33 1 33 6
M  V30 34 1 32 8
M  V30 35 1 22 12
M  V30 36 1 30 24
M  V30 37 1 19 14
M  V30 38 1 1 34
M  V30 39 1 1 35
M  V30 40 1 1 36
M  V30 41 1 5 37
M  V30 42 1 9 38
M  V30 43 1 10 39
M  V30 44 1 13 40
M  V30 45 1 15 41
M  V30 46 1 16 42
M  V30 47 1 17 43
M  V30 48 1 18 44
M  V30 49 1 23 45
M  V30 50 1 23 46
M  V30 51 1 25 47
M  V30 52 1 26 48
M  V30 53 1 29 49
M  V30 54 1 30 50
M  V30 55 1 31 51
M  V30 56 1 33 52
M  V30 END BOND
M  V30 END CTAB
M  END
>  <Dataset>  (245) 
ChEMBL_Kinases

>  <Ligand_Instance>  (245) 
nan

>  <PDB_ID>  (245) 
nan

>  <Standardized_SMILES>  (245) 
COC(=O)Nc1nc2ccc(C3(O)c4ccccc4C(=O)N3Cc3ccc(F)cc3)cc2[nH]1

>  <Name>  (245) 
nan

>  <Pocket>  (245) 
nan

>  <ATP_Site>  (245) 
nan

>  <Peripheral>  (245) 
nan

>  <Num_H_Atoms_ProtBoundConf>  (245) 
nan

>  <Num_Resolved_Atoms>  (245) 
nan

>  <Num_Not_Resolved_Atoms>  (245) 
nan

$$$$
CHEMBL388596
     RDKit          3D

  0  0  0  0  0  0  0  0  0  0999 V3000
M  V30 BEGIN CTAB
M  V30 COUNTS 17 18 0 0 0
M  V30 BEGIN ATOM
M  V30 1 N -2.080062 -0.257232 1.310894 0
M  V30 2 C -0.674984 -0.029374 1.282070 0
M  V30 3 N 0.077432 -0.192248 2.384917 0
M  V30 4 C 1.403701 0.026530 2.343178 0
M  V30 5 N 2.223451 -0.133953 3.478153 0
M  V30 6 C 1.937084 0.420546 1.125126 0
M  V30 7 N 3.212661 0.708424 0.780922 0
M  V30 8 C 3.234124 1.045033 -0.527143 0
M  V30 9 N 2.011324 0.983207 -1.037749 0
M  V30 10 C 1.182231 0.598311 -0.037676 0
M  V30 11 N -0.145333 0.347976 0.127141 0
M  V30 12 H -2.623464 -0.481961 0.449523 0
M  V30 13 H -2.752722 -0.247702 2.082266 0
M  V30 14 H 1.764903 -0.023484 4.428899 0
M  V30 15 H 3.244153 -0.353159 3.406521 0
M  V30 16 H 4.080244 1.331674 -1.131055 0
M  V30 17 H 1.622208 1.164467 -1.988962 0
M  V30 END ATOM
M  V30 BEGIN BOND
M  V30 1 1 1 2
M  V30 2 2 2 3
M  V30 3 1 3 4
M  V30 4 1 4 5
M  V30 5 2 4 6
M  V30 6 1 6 7
M  V30 7 2 7 8
M  V30 8 1 8 9
M  V30 9 1 9 10
M  V30 10 2 10 11
M  V30 11 1 11 2
M  V30 12 1 10 6
M  V30 13 1 1 12
M  V30 14 1 1 13
M  V30 15 1 5 14
M  V30 16 1 5 15
M  V30 17 1 8 16
M  V30 18 1 9 17
M  V30 END BOND
M  V30 END CTAB
M  END
>  <Dataset>  (246) 
ChEMBL_Kinases

>  <Ligand_Instance>  (246) 
nan

>  <PDB_ID>  (246) 
nan

>  <Standardized_SMILES>  (246) 
Nc1nc(N)c2nc[nH]c2n1

>  <Name>  (246) 
2,6-DIAMINOPURINE

>  <Pocket>  (246) 
nan

>  <ATP_Site>  (246) 
nan

>  <Peripheral>  (246) 
nan

>  <Num_H_Atoms_ProtBoundConf>  (246) 
nan

>  <Num_Resolved_Atoms>  (246) 
nan

>  <Num_Not_Resolved_Atoms>  (246) 
nan

$$$$
CHEMBL388729
     RDKit          3D

  0  0  0  0  0  0  0  0  0  0999 V3000
M  V30 BEGIN CTAB
M  V30 COUNTS 52 56 0 0 0
M  V30 BEGIN ATOM
M  V30 1 N 1.470597 -0.662090 -0.785541 0
M  V30 2 C 2.712923 0.000976 -0.987903 0
M  V30 3 C 3.765531 -0.755715 -1.514947 0
M  V30 4 C 4.987348 -0.150180 -1.726710 0
M  V30 5 N 6.129225 -0.665896 -2.216065 0
M  V30 6 N 7.029156 0.309568 -2.229320 0
M  V30 7 C 6.460906 1.450015 -1.747596 0
M  V30 8 C 5.147199 1.195739 -1.413001 0
M  V30 9 C 4.071227 1.917254 -0.888289 0
M  V30 10 C 2.838474 1.337365 -0.666232 0
M  V30 11 C 1.727839 2.108757 -0.116770 0
M  V30 12 C 1.340962 3.371937 -0.510065 0
M  V30 13 N 0.276194 3.979009 0.095051 0
M  V30 14 C -0.382247 3.305851 1.085543 0
M  V30 15 C -0.023277 2.015092 1.519967 0
M  V30 16 O -0.910877 1.705919 2.504577 0
M  V30 17 C -1.003441 0.542896 3.255572 0
M  V30 18 C -1.290754 -0.717050 2.464614 0 CFG=1
M  V30 19 N -1.350823 -1.799183 3.429708 0
M  V30 20 C -2.639106 -0.624001 1.770955 0
M  V30 21 C -2.994634 -1.807491 0.981341 0
M  V30 22 C -2.822088 -1.903155 -0.408266 0
M  V30 23 N -3.199792 -3.098827 -0.889113 0
M  V30 24 C -3.633902 -3.838187 0.146430 0
M  V30 25 C -4.144745 -5.110944 0.315449 0
M  V30 26 C -4.523275 -5.606583 1.543579 0
M  V30 27 C -4.397948 -4.813425 2.685790 0
M  V30 28 C -3.887209 -3.550027 2.496309 0
M  V30 29 C -3.508155 -3.053780 1.272115 0
M  V30 30 C 1.039800 1.461242 0.885761 0
M  V30 31 H 0.576484 -0.185851 -1.071888 0
M  V30 32 H 1.188816 -1.585372 -0.389435 0
M  V30 33 H 3.580684 -1.812337 -1.743041 0
M  V30 34 H 6.321130 -1.642121 -2.537986 0
M  V30 35 H 6.910832 2.429860 -1.621577 0
M  V30 36 H 4.251788 2.976941 -0.658041 0
M  V30 37 H 1.954678 3.774503 -1.301403 0
M  V30 38 H -1.173365 3.986477 1.400144 0
M  V30 39 H -1.841113 0.595010 4.012706 0
M  V30 40 H -0.061554 0.400872 3.860021 0
M  V30 41 H -0.491229 -0.980463 1.766054 0
M  V30 42 H -1.691460 -1.487853 4.366033 0
M  V30 43 H -0.404299 -2.220841 3.552699 0
M  V30 44 H -3.448716 -0.420171 2.524462 0
M  V30 45 H -2.593316 0.256036 1.099709 0
M  V30 46 H -2.427363 -1.114101 -1.059963 0
M  V30 47 H -3.165467 -3.401238 -1.874555 0
M  V30 48 H -4.218670 -5.681248 -0.611473 0
M  V30 49 H -4.914007 -6.613882 1.590948 0
M  V30 50 H -4.703984 -5.229908 3.636049 0
M  V30 51 H -3.817452 -2.968819 3.403211 0
M  V30 52 H 1.246818 0.482876 1.288068 0
M  V30 END ATOM
M  V30 BEGIN BOND
M  V30 1 1 1 2
M  V30 2 2 2 3
M  V30 3 1 3 4
M  V30 4 1 4 5
M  V30 5 1 5 6
M  V30 6 2 6 7
M  V30 7 1 7 8
M  V30 8 1 8 9
M  V30 9 2 9 10
M  V30 10 1 10 11
M  V30 11 2 11 12
M  V30 12 1 12 13
M  V30 13 2 13 14
M  V30 14 1 14 15
M  V30 15 1 15 16
M  V30 16 1 16 17
M  V30 17 1 17 18
M  V30 18 1 18 19
M  V30 19 1 18 20
M  V30 20 1 20 21
M  V30 21 2 21 22
M  V30 22 1 22 23
M  V30 23 1 23 24
M  V30 24 2 24 25
M  V30 25 1 25 26
M  V30 26 2 26 27
M  V30 27 1 27 28
M  V30 28 2 28 29
M  V30 29 2 15 30
M  V30 30 1 10 2
M  V30 31 1 30 11
M  V30 32 2 8 4
M  V30 33 1 29 21
M  V30 34 1 29 24
M  V30 35 1 1 31
M  V30 36 1 1 32
M  V30 37 1 3 33
M  V30 38 1 5 34
M  V30 39 1 7 35
M  V30 40 1 9 36
M  V30 41 1 12 37
M  V30 42 1 14 38
M  V30 43 1 17 39
M  V30 44 1 17 40
M  V30 45 1 18 41 CFG=3
M  V30 46 1 19 42
M  V30 47 1 19 43
M  V30 48 1 20 44
M  V30 49 1 20 45
M  V30 50 1 22 46
M  V30 51 1 23 47
M  V30 52 1 25 48
M  V30 53 1 26 49
M  V30 54 1 27 50
M  V30 55 1 28 51
M  V30 56 1 30 52
M  V30 END BOND
M  V30 END CTAB
M  END
>  <Dataset>  (247) 
ChEMBL_Kinases

>  <Ligand_Instance>  (247) 
nan

>  <PDB_ID>  (247) 
nan

>  <Standardized_SMILES>  (247) 
Nc1cc2[nH]ncc2cc1-c1cncc(OC[C@@H](N)Cc2c[nH]c3ccccc23)c1

>  <Name>  (247) 
nan

>  <Pocket>  (247) 
nan

>  <ATP_Site>  (247) 
nan

>  <Peripheral>  (247) 
nan

>  <Num_H_Atoms_ProtBoundConf>  (247) 
nan

>  <Num_Resolved_Atoms>  (247) 
nan

>  <Num_Not_Resolved_Atoms>  (247) 
nan

$$$$
CHEMBL388700
     RDKit          3D

  0  0  0  0  0  0  0  0  0  0999 V3000
M  V30 BEGIN CTAB
M  V30 COUNTS 38 40 0 0 0
M  V30 BEGIN ATOM
M  V30 1 O 0.073475 -3.915263 -2.111393 0
M  V30 2 C 1.050960 -4.305524 -1.417324 0
M  V30 3 O 0.664364 -5.537345 -1.884439 0
M  V30 4 C 1.981025 -3.550753 -0.601282 0
M  V30 5 C 2.962580 -4.233906 0.056260 0
M  V30 6 C 3.853420 -3.564351 0.834452 0
M  V30 7 C 3.736342 -2.199117 0.938569 0
M  V30 8 C 2.721974 -1.552894 0.251308 0
M  V30 9 C 1.795080 -2.193672 -0.552375 0
M  V30 10 N 0.826277 -1.409903 -1.188462 0
M  V30 11 C 0.863315 0.004363 -0.919397 0
M  V30 12 C 1.733120 0.833381 -1.597899 0
M  V30 13 C 1.725123 2.170217 -1.286662 0
M  V30 14 N 0.891230 2.644684 -0.348503 0
M  V30 15 C 0.029594 1.860174 0.331020 0
M  V30 16 N -0.816516 2.443161 1.309855 0
M  V30 17 C -1.841689 1.810068 2.050683 0
M  V30 18 C -2.243580 0.501030 1.941103 0
M  V30 19 C -3.249770 -0.123582 2.641726 0
M  V30 20 C -3.941569 0.652926 3.566584 0
M  V30 21 C -3.589806 1.973163 3.727969 0
M  V30 22 C -2.573279 2.531960 2.993558 0
M  V30 23 O -2.308355 3.888916 3.248961 0
M  V30 24 N 0.073858 0.578244 -0.003816 0
M  V30 25 H 0.115303 -6.215123 -1.323244 0
M  V30 26 H 3.068979 -5.300110 -0.016174 0
M  V30 27 H 4.648818 -4.054408 1.375072 0
M  V30 28 H 4.450569 -1.671123 1.560444 0
M  V30 29 H 2.728746 -0.482571 0.408205 0
M  V30 30 H 0.055775 -1.639864 -1.838193 0
M  V30 31 H 2.375615 0.386916 -2.342556 0
M  V30 32 H 2.392316 2.853306 -1.792802 0
M  V30 33 H -0.671103 3.464475 1.517006 0
M  V30 34 H -1.742948 -0.141534 1.242566 0
M  V30 35 H -3.503590 -1.163404 2.491762 0
M  V30 36 H -4.746003 0.238613 4.156578 0
M  V30 37 H -4.148396 2.542191 4.455369 0
M  V30 38 H -1.966534 4.055529 4.207649 0
M  V30 END ATOM
M  V30 BEGIN BOND
M  V30 1 2 1 2
M  V30 2 1 2 3
M  V30 3 1 2 4
M  V30 4 2 4 5
M  V30 5 1 5 6
M  V30 6 2 6 7
M  V30 7 1 7 8
M  V30 8 2 8 9
M  V30 9 1 9 10
M  V30 10 1 10 11
M  V30 11 2 11 12
M  V30 12 1 12 13
M  V30 13 2 13 14
M  V30 14 1 14 15
M  V30 15 1 15 16
M  V30 16 1 16 17
M  V30 17 2 17 18
M  V30 18 1 18 19
M  V30 19 2 19 20
M  V30 20 1 20 21
M  V30 21 2 21 22
M  V30 22 1 22 23
M  V30 23 2 15 24
M  V30 24 1 9 4
M  V30 25 1 24 11
M  V30 26 1 22 17
M  V30 27 1 3 25
M  V30 28 1 5 26
M  V30 29 1 6 27
M  V30 30 1 7 28
M  V30 31 1 8 29
M  V30 32 1 10 30
M  V30 33 1 12 31
M  V30 34 1 13 32
M  V30 35 1 16 33
M  V30 36 1 18 34
M  V30 37 1 19 35
M  V30 38 1 20 36
M  V30 39 1 21 37
M  V30 40 1 23 38
M  V30 END BOND
M  V30 END CTAB
M  END
>  <Dataset>  (248) 
ChEMBL_Kinases

>  <Ligand_Instance>  (248) 
nan

>  <PDB_ID>  (248) 
nan

>  <Standardized_SMILES>  (248) 
O=C(O)c1ccccc1Nc1ccnc(Nc2ccccc2O)n1

>  <Name>  (248) 
nan

>  <Pocket>  (248) 
nan

>  <ATP_Site>  (248) 
nan

>  <Peripheral>  (248) 
nan

>  <Num_H_Atoms_ProtBoundConf>  (248) 
nan

>  <Num_Resolved_Atoms>  (248) 
nan

>  <Num_Not_Resolved_Atoms>  (248) 
nan

$$$$
CHEMBL3910291
     RDKit          3D

  0  0  0  0  0  0  0  0  0  0999 V3000
M  V30 BEGIN CTAB
M  V30 COUNTS 45 50 0 0 0
M  V30 BEGIN ATOM
M  V30 1 C -0.545050 -2.580574 4.458907 0
M  V30 2 C 0.488242 -1.515948 4.316767 0
M  V30 3 C 1.294147 -1.185537 5.387129 0
M  V30 4 C 2.245799 -0.200206 5.244701 0
M  V30 5 C 2.397399 0.460760 4.031146 0
M  V30 6 C 1.606194 0.150970 2.945868 0
M  V30 7 C 1.810413 0.877610 1.698317 0
M  V30 8 C 1.101375 0.681615 0.533135 0
M  V30 9 C 1.404829 1.442885 -0.568124 0
M  V30 10 C 2.392426 2.403766 -0.569928 0
M  V30 11 C 3.085126 2.574125 0.618243 0
M  V30 12 N 2.773556 1.816307 1.692715 0
M  V30 13 N 2.690368 3.150075 -1.648604 0
M  V30 14 C 2.037344 3.011237 -2.820232 0
M  V30 15 C 1.058013 2.064121 -2.831953 0
M  V30 16 N 0.218478 1.658162 -3.800923 0
M  V30 17 C -0.594613 0.674278 -3.344040 0
M  V30 18 N -0.269865 0.447687 -2.063053 0
M  V30 19 C -1.003366 -0.553297 -1.382853 0
M  V30 20 C -2.187802 -0.274086 -0.685225 0
M  V30 21 C -2.938691 -1.221059 -0.022718 0
M  V30 22 C -2.518792 -2.534569 -0.032075 0
M  V30 23 N -3.012336 -3.667881 0.503473 0
M  V30 24 C -2.186745 -4.681690 0.177709 0
M  V30 25 N -1.167294 -4.207542 -0.562727 0
M  V30 26 C -1.363926 -2.871776 -0.699562 0
M  V30 27 C -0.633068 -1.905959 -1.353028 0
M  V30 28 C 0.725730 1.282269 -1.748195 0
M  V30 29 C 0.665687 -0.839918 3.126974 0
M  V30 30 H -0.964340 -2.587240 5.476749 0
M  V30 31 H -1.304256 -2.389892 3.670676 0
M  V30 32 H -0.039270 -3.546656 4.203050 0
M  V30 33 H 1.167013 -1.711465 6.337903 0
M  V30 34 H 2.899807 0.081976 6.080094 0
M  V30 35 H 3.160446 1.222703 3.983461 0
M  V30 36 H 0.347986 -0.074913 0.590054 0
M  V30 37 H 3.879378 3.302516 0.721592 0
M  V30 38 H 2.254172 3.601090 -3.715612 0
M  V30 39 H -1.339478 0.235073 -4.017089 0
M  V30 40 H -2.532140 0.743481 -0.665928 0
M  V30 41 H -3.834954 -0.945362 0.492574 0
M  V30 42 H -2.374581 -5.705334 0.497590 0
M  V30 43 H -0.367070 -4.765261 -0.961714 0
M  V30 44 H 0.276496 -2.176710 -1.877738 0
M  V30 45 H 0.026046 -1.112832 2.302640 0
M  V30 END ATOM
M  V30 BEGIN BOND
M  V30 1 1 1 2
M  V30 2 2 2 3
M  V30 3 1 3 4
M  V30 4 2 4 5
M  V30 5 1 5 6
M  V30 6 1 6 7
M  V30 7 2 7 8
M  V30 8 1 8 9
M  V30 9 2 9 10
M  V30 10 1 10 11
M  V30 11 2 11 12
M  V30 12 1 10 13
M  V30 13 2 13 14
M  V30 14 1 14 15
M  V30 15 1 15 16
M  V30 16 2 16 17
M  V30 17 1 17 18
M  V30 18 1 18 19
M  V30 19 2 19 20
M  V30 20 1 20 21
M  V30 21 2 21 22
M  V30 22 1 22 23
M  V30 23 2 23 24
M  V30 24 1 24 25
M  V30 25 1 25 26
M  V30 26 2 26 27
M  V30 27 1 18 28
M  V30 28 2 6 29
M  V30 29 1 29 2
M  V30 30 1 12 7
M  V30 31 2 28 15
M  V30 32 1 28 9
M  V30 33 1 27 19
M  V30 34 1 26 22
M  V30 35 1 1 30
M  V30 36 1 1 31
M  V30 37 1 1 32
M  V30 38 1 3 33
M  V30 39 1 4 34
M  V30 40 1 5 35
M  V30 41 1 8 36
M  V30 42 1 11 37
M  V30 43 1 14 38
M  V30 44 1 17 39
M  V30 45 1 20 40
M  V30 46 1 21 41
M  V30 47 1 24 42
M  V30 48 1 25 43
M  V30 49 1 27 44
M  V30 50 1 29 45
M  V30 END BOND
M  V30 END CTAB
M  END
>  <Dataset>  (249) 
ChEMBL_Kinases

>  <Ligand_Instance>  (249) 
nan

>  <PDB_ID>  (249) 
nan

>  <Standardized_SMILES>  (249) 
Cc1cccc(-c2cc3c(cn2)ncc2ncn(-c4ccc5nc[nH]c5c4)c23)c1

>  <Name>  (249) 
nan

>  <Pocket>  (249) 
nan

>  <ATP_Site>  (249) 
nan

>  <Peripheral>  (249) 
nan

>  <Num_H_Atoms_ProtBoundConf>  (249) 
nan

>  <Num_Resolved_Atoms>  (249) 
nan

>  <Num_Not_Resolved_Atoms>  (249) 
nan

$$$$
CHEMBL388648
     RDKit          3D

  0  0  0  0  0  0  0  0  0  0999 V3000
M  V30 BEGIN CTAB
M  V30 COUNTS 30 34 0 0 0
M  V30 BEGIN ATOM
M  V30 1 O 2.596451 -3.910299 1.458001 0
M  V30 2 C 1.671212 -3.336101 2.090023 0
M  V30 3 N 1.260415 -3.789604 3.291591 0
M  V30 4 C 0.273460 -2.970128 3.696703 0
M  V30 5 O -0.396248 -3.020785 4.760317 0
M  V30 6 C 0.040738 -1.984643 2.762314 0
M  V30 7 C 0.927098 -2.222549 1.751047 0
M  V30 8 C 0.970271 -1.417448 0.640123 0
M  V30 9 N 1.728695 -1.433375 -0.469086 0
M  V30 10 C 1.349948 -0.389466 -1.261846 0
M  V30 11 C 1.870858 -0.047060 -2.482983 0
M  V30 12 C 1.382159 1.041182 -3.169525 0
M  V30 13 C 0.346017 1.768104 -2.570820 0
M  V30 14 C -0.119462 1.358635 -1.345085 0
M  V30 15 C 0.334143 0.296052 -0.639608 0
M  V30 16 C 0.117337 -0.344727 0.516364 0
M  V30 17 C -0.765058 -0.097877 1.510095 0
M  V30 18 C -1.728682 0.829991 1.739558 0
M  V30 19 O -2.151939 1.803449 1.104673 0
M  V30 20 N -2.327423 0.610224 2.917285 0
M  V30 21 C -1.783557 -0.483483 3.528790 0
M  V30 22 O -2.076256 -1.001464 4.638225 0
M  V30 23 C -0.817054 -0.896641 2.625926 0
M  V30 24 H 1.557851 -4.591073 3.890344 0
M  V30 25 H 2.483316 -2.151680 -0.659551 0
M  V30 26 H 2.669662 -0.620547 -2.927563 0
M  V30 27 H 1.820918 1.276333 -4.128865 0
M  V30 28 H -0.019479 2.620242 -3.133997 0
M  V30 29 H -0.902135 1.981106 -0.988210 0
M  V30 30 H -3.110380 1.106489 3.438663 0
M  V30 END ATOM
M  V30 BEGIN BOND
M  V30 1 2 1 2
M  V30 2 1 2 3
M  V30 3 1 3 4
M  V30 4 2 4 5
M  V30 5 1 4 6
M  V30 6 2 6 7
M  V30 7 1 7 8
M  V30 8 1 8 9
M  V30 9 1 9 10
M  V30 10 2 10 11
M  V30 11 1 11 12
M  V30 12 2 12 13
M  V30 13 1 13 14
M  V30 14 2 14 15
M  V30 15 1 15 16
M  V30 16 1 16 17
M  V30 17 1 17 18
M  V30 18 2 18 19
M  V30 19 1 18 20
M  V30 20 1 20 21
M  V30 21 2 21 22
M  V30 22 1 21 23
M  V30 23 1 7 2
M  V30 24 2 16 8
M  V30 25 2 23 17
M  V30 26 1 23 6
M  V30 27 1 15 10
M  V30 28 1 3 24
M  V30 29 1 9 25
M  V30 30 1 11 26
M  V30 31 1 12 27
M  V30 32 1 13 28
M  V30 33 1 14 29
M  V30 34 1 20 30
M  V30 END BOND
M  V30 END CTAB
M  END
>  <Dataset>  (250) 
ChEMBL_Kinases

>  <Ligand_Instance>  (250) 
nan

>  <PDB_ID>  (250) 
nan

>  <Standardized_SMILES>  (250) 
O=c1[nH]c(=O)c2c1c1[nH]c3ccccc3c1c1c(=O)[nH]c(=O)c21

>  <Name>  (250) 
BIS-IMIDE A

>  <Pocket>  (250) 
nan

>  <ATP_Site>  (250) 
nan

>  <Peripheral>  (250) 
nan

>  <Num_H_Atoms_ProtBoundConf>  (250) 
nan

>  <Num_Resolved_Atoms>  (250) 
nan

>  <Num_Not_Resolved_Atoms>  (250) 
nan

$$$$
CHEMBL3910547
     RDKit          3D

  0  0  0  0  0  0  0  0  0  0999 V3000
M  V30 BEGIN CTAB
M  V30 COUNTS 47 49 0 0 0
M  V30 BEGIN ATOM
M  V30 1 C 3.920989 -5.028061 0.438254 0
M  V30 2 N 2.816920 -4.775355 -0.437461 0
M  V30 3 C 2.231675 -6.054755 -0.802411 0
M  V30 4 C 3.181657 -4.118092 -1.663785 0
M  V30 5 C 3.642392 -2.708599 -1.466788 0
M  V30 6 C 2.567409 -1.834019 -0.825861 0
M  V30 7 O 3.067897 -0.546039 -0.674490 0
M  V30 8 C 2.415831 0.543032 -0.138060 0
M  V30 9 C 3.209512 1.689141 -0.134914 0
M  V30 10 C 2.693758 2.873062 0.375128 0
M  V30 11 C 1.382637 2.843050 0.864445 0
M  V30 12 C 0.606332 1.726857 0.862539 0
M  V30 13 C -0.751421 1.775695 1.391744 0
M  V30 14 N -1.692189 0.834402 1.490874 0
M  V30 15 C -2.827235 1.292597 2.046636 0
M  V30 16 C -4.068966 0.793055 2.381270 0
M  V30 17 C -5.043328 1.573491 2.965115 0
M  V30 18 C -6.371243 1.023182 3.316191 0
M  V30 19 N -7.289852 1.913622 3.940876 0
M  V30 20 O -6.506936 -0.195693 3.003177 0
M  V30 21 C -4.720678 2.914363 3.210021 0
M  V30 22 C -3.484385 3.431137 2.881992 0
M  V30 23 C -2.527691 2.627246 2.298402 0
M  V30 24 N -1.260059 2.927657 1.899911 0
M  V30 25 C 1.129862 0.555397 0.353036 0
M  V30 26 H 4.392250 -6.028984 0.305674 0
M  V30 27 H 4.745496 -4.284733 0.347867 0
M  V30 28 H 3.512501 -5.025084 1.476594 0
M  V30 29 H 1.789673 -6.496278 0.101781 0
M  V30 30 H 1.455286 -5.942928 -1.569008 0
M  V30 31 H 3.057542 -6.722073 -1.184267 0
M  V30 32 H 4.013826 -4.647553 -2.191111 0
M  V30 33 H 2.277162 -4.116775 -2.314369 0
M  V30 34 H 3.862137 -2.293300 -2.477587 0
M  V30 35 H 4.588445 -2.672526 -0.889546 0
M  V30 36 H 1.691947 -1.911975 -1.491780 0
M  V30 37 H 2.279073 -2.301093 0.140943 0
M  V30 38 H 4.229988 1.734971 -0.509806 0
M  V30 39 H 3.297466 3.784674 0.387907 0
M  V30 40 H 1.056027 3.815391 1.246447 0
M  V30 41 H -4.256603 -0.261803 2.162949 0
M  V30 42 H -6.895555 1.778389 4.912816 0
M  V30 43 H -7.717951 2.080699 2.987538 0
M  V30 44 H -5.495181 3.513641 3.668491 0
M  V30 45 H -3.347430 4.466409 3.113503 0
M  V30 46 H -0.837669 3.878353 1.999830 0
M  V30 47 H 0.568772 -0.368067 0.320888 0
M  V30 END ATOM
M  V30 BEGIN BOND
M  V30 1 1 1 2
M  V30 2 1 2 3
M  V30 3 1 2 4
M  V30 4 1 4 5
M  V30 5 1 5 6
M  V30 6 1 6 7
M  V30 7 1 7 8
M  V30 8 2 8 9
M  V30 9 1 9 10
M  V30 10 2 10 11
M  V30 11 1 11 12
M  V30 12 1 12 13
M  V30 13 2 13 14
M  V30 14 1 14 15
M  V30 15 2 15 16
M  V30 16 1 16 17
M  V30 17 1 17 18
M  V30 18 1 18 19
M  V30 19 2 18 20
M  V30 20 2 17 21
M  V30 21 1 21 22
M  V30 22 2 22 23
M  V30 23 1 23 24
M  V30 24 2 12 25
M  V30 25 1 25 8
M  V30 26 1 24 13
M  V30 27 1 23 15
M  V30 28 1 1 26
M  V30 29 1 1 27
M  V30 30 1 1 28
M  V30 31 1 3 29
M  V30 32 1 3 30
M  V30 33 1 3 31
M  V30 34 1 4 32
M  V30 35 1 4 33
M  V30 36 1 5 34
M  V30 37 1 5 35
M  V30 38 1 6 36
M  V30 39 1 6 37
M  V30 40 1 9 38
M  V30 41 1 10 39
M  V30 42 1 11 40
M  V30 43 1 16 41
M  V30 44 1 19 42
M  V30 45 1 19 43
M  V30 46 1 21 44
M  V30 47 1 22 45
M  V30 48 1 24 46
M  V30 49 1 25 47
M  V30 END BOND
M  V30 END CTAB
M  END
>  <Dataset>  (251) 
ChEMBL_Kinases

>  <Ligand_Instance>  (251) 
nan

>  <PDB_ID>  (251) 
nan

>  <Standardized_SMILES>  (251) 
CN(C)CCCOc1cccc(-c2nc3cc(C(N)=O)ccc3[nH]2)c1

>  <Name>  (251) 
nan

>  <Pocket>  (251) 
nan

>  <ATP_Site>  (251) 
nan

>  <Peripheral>  (251) 
nan

>  <Num_H_Atoms_ProtBoundConf>  (251) 
nan

>  <Num_Resolved_Atoms>  (251) 
nan

>  <Num_Not_Resolved_Atoms>  (251) 
nan

$$$$
CHEMBL3910608
     RDKit          3D

  0  0  0  0  0  0  0  0  0  0999 V3000
M  V30 BEGIN CTAB
M  V30 COUNTS 66 69 0 0 0
M  V30 BEGIN ATOM
M  V30 1 C 4.691734 0.036628 3.414667 0
M  V30 2 C 3.793264 0.390940 2.264851 0
M  V30 3 C 3.314517 -0.558242 1.394427 0
M  V30 4 C 2.489804 -0.205782 0.350013 0
M  V30 5 C 1.957285 -1.230725 -0.591998 0
M  V30 6 C 2.167426 1.128325 0.214499 0
M  V30 7 N 1.297972 1.473554 -0.865702 0
M  V30 8 C 1.305801 1.410923 -2.299519 0
M  V30 9 C 0.118064 2.015388 -0.211564 0
M  V30 10 N -0.555581 1.283969 0.679895 0
M  V30 11 C -1.635582 1.653212 1.370661 0
M  V30 12 N -2.076593 0.609424 2.224575 0
M  V30 13 C -2.050980 -0.734948 1.757725 0
M  V30 14 C -2.107052 -0.913186 0.381910 0
M  V30 15 C -2.068513 -2.172307 -0.195157 0
M  V30 16 N -2.150338 -2.336785 -1.604923 0
M  V30 17 C -1.552304 -3.441381 -2.299261 0
M  V30 18 C -2.520720 -4.068747 -3.251211 0
M  V30 19 O -3.199508 -3.131862 -3.998583 0
M  V30 20 C -2.740014 -1.834229 -3.865867 0
M  V30 21 C -2.887877 -1.366871 -2.428370 0
M  V30 22 C -1.970236 -3.236473 0.678779 0
M  V30 23 C -1.913070 -3.094044 2.040646 0
M  V30 24 S -1.812896 -4.409533 3.188593 0
M  V30 25 C -3.443344 -4.776683 3.824049 0
M  V30 26 O -1.324945 -5.633705 2.452064 0
M  V30 27 O -0.929651 -4.105198 4.347382 0
M  V30 28 C -1.953652 -1.824916 2.590514 0
M  V30 29 N -2.095029 2.889549 1.147625 0
M  V30 30 C -1.468359 3.709097 0.250685 0
M  V30 31 C -0.343843 3.298121 -0.455677 0
M  V30 32 F 0.287573 4.084192 -1.341997 0
M  V30 33 C 2.638026 2.107440 1.080591 0
M  V30 34 C 3.476595 1.726747 2.138165 0
M  V30 35 C 4.002388 2.733509 3.100822 0
M  V30 36 O 3.614079 4.024733 2.802918 0
M  V30 37 H 4.233293 0.382865 4.384306 0
M  V30 38 H 4.796464 -1.055377 3.419426 0
M  V30 39 H 5.675825 0.521021 3.300605 0
M  V30 40 H 3.617055 -1.590881 1.569504 0
M  V30 41 H 2.464660 -1.177156 -1.570897 0
M  V30 42 H 0.856227 -1.223450 -0.630955 0
M  V30 43 H 2.227774 -2.249787 -0.183869 0
M  V30 44 H 2.240665 1.016680 -2.735816 0
M  V30 45 H 1.139138 2.414973 -2.764324 0
M  V30 46 H 0.415809 0.792415 -2.619454 0
M  V30 47 H -2.424326 0.727421 3.186214 0
M  V30 48 H -2.188763 -0.087669 -0.333576 0
M  V30 49 H -0.658179 -3.087495 -2.872833 0
M  V30 50 H -1.164179 -4.179162 -1.582683 0
M  V30 51 H -1.951273 -4.762446 -3.937816 0
M  V30 52 H -3.173519 -4.739539 -2.662266 0
M  V30 53 H -1.676013 -1.710922 -4.149514 0
M  V30 54 H -3.345789 -1.217384 -4.563347 0
M  V30 55 H -2.504261 -0.354602 -2.342181 0
M  V30 56 H -3.977151 -1.433200 -2.202104 0
M  V30 57 H -1.935873 -4.255468 0.313361 0
M  V30 58 H -3.654080 -4.104524 4.708878 0
M  V30 59 H -4.167208 -4.477782 3.045209 0
M  V30 60 H -3.567530 -5.822058 4.089641 0
M  V30 61 H -1.917578 -1.560413 3.653110 0
M  V30 62 H -1.897244 4.692305 0.120293 0
M  V30 63 H 2.361778 3.150438 0.942144 0
M  V30 64 H 5.108643 2.714687 3.149798 0
M  V30 65 H 3.645059 2.468516 4.137942 0
M  V30 66 H 2.622920 4.133556 2.762211 0
M  V30 END ATOM
M  V30 BEGIN BOND
M  V30 1 1 1 2
M  V30 2 2 2 3
M  V30 3 1 3 4
M  V30 4 1 4 5
M  V30 5 2 4 6
M  V30 6 1 6 7
M  V30 7 1 7 8
M  V30 8 1 7 9
M  V30 9 2 9 10
M  V30 10 1 10 11
M  V30 11 1 11 12
M  V30 12 1 12 13
M  V30 13 2 13 14
M  V30 14 1 14 15
M  V30 15 1 15 16
M  V30 16 1 16 17
M  V30 17 1 17 18
M  V30 18 1 18 19
M  V30 19 1 19 20
M  V30 20 1 20 21
M  V30 21 2 15 22
M  V30 22 1 22 23
M  V30 23 1 23 24
M  V30 24 1 24 25
M  V30 25 2 24 26
M  V30 26 2 24 27
M  V30 27 2 23 28
M  V30 28 2 11 29
M  V30 29 1 29 30
M  V30 30 2 30 31
M  V30 31 1 31 32
M  V30 32 1 6 33
M  V30 33 2 33 34
M  V30 34 1 34 35
M  V30 35 1 35 36
M  V30 36 1 34 2
M  V30 37 1 31 9
M  V30 38 1 28 13
M  V30 39 1 21 16
M  V30 40 1 1 37
M  V30 41 1 1 38
M  V30 42 1 1 39
M  V30 43 1 3 40
M  V30 44 1 5 41
M  V30 45 1 5 42
M  V30 46 1 5 43
M  V30 47 1 8 44
M  V30 48 1 8 45
M  V30 49 1 8 46
M  V30 50 1 12 47
M  V30 51 1 14 48
M  V30 52 1 17 49
M  V30 53 1 17 50
M  V30 54 1 18 51
M  V30 55 1 18 52
M  V30 56 1 20 53
M  V30 57 1 20 54
M  V30 58 1 21 55
M  V30 59 1 21 56
M  V30 60 1 22 57
M  V30 61 1 25 58
M  V30 62 1 25 59
M  V30 63 1 25 60
M  V30 64 1 28 61
M  V30 65 1 30 62
M  V30 66 1 33 63
M  V30 67 1 35 64
M  V30 68 1 35 65
M  V30 69 1 36 66
M  V30 END BOND
M  V30 END CTAB
M  END
>  <Dataset>  (252) 
ChEMBL_Kinases

>  <Ligand_Instance>  (252) 
nan

>  <PDB_ID>  (252) 
nan

>  <Standardized_SMILES>  (252) 
Cc1cc(C)c(N(C)c2nc(Nc3cc(N4CCOCC4)cc(S(C)(=O)=O)c3)ncc2F)cc1CO

>  <Name>  (252) 
nan

>  <Pocket>  (252) 
nan

>  <ATP_Site>  (252) 
nan

>  <Peripheral>  (252) 
nan

>  <Num_H_Atoms_ProtBoundConf>  (252) 
nan

>  <Num_Resolved_Atoms>  (252) 
nan

>  <Num_Not_Resolved_Atoms>  (252) 
nan

$$$$
CHEMBL601080
     RDKit          3D

  0  0  0  0  0  0  0  0  0  0999 V3000
M  V30 BEGIN CTAB
M  V30 COUNTS 70 75 0 0 0
M  V30 BEGIN ATOM
M  V30 1 C 1.728333 -1.909367 6.582027 0
M  V30 2 C 1.797001 -0.838568 5.502709 0 CFG=2
M  V30 3 C 2.101605 -1.414053 4.146884 0
M  V30 4 N 3.347795 -0.923646 3.600115 0
M  V30 5 C 3.568730 -0.399959 2.295821 0
M  V30 6 C 2.547513 -0.294507 1.397588 0
M  V30 7 C 2.810994 0.220085 0.139311 0
M  V30 8 C 1.727789 0.338904 -0.832910 0
M  V30 9 O 0.870020 1.141628 -0.343828 0
M  V30 10 N 1.533591 -0.250887 -2.092537 0
M  V30 11 C 0.310207 0.163651 -2.692895 0
M  V30 12 C 0.326854 1.291136 -3.505075 0
M  V30 13 C -0.830485 1.723775 -4.102064 0
M  V30 14 C -2.018018 1.049948 -3.905206 0
M  V30 15 C -2.028133 -0.053984 -3.108271 0
M  V30 16 C -0.893532 -0.506403 -2.502688 0
M  V30 17 C -3.279130 -0.747626 -2.913276 0
M  V30 18 C -4.397125 -0.279325 -3.527075 0
M  V30 19 C -5.415975 -1.118604 -3.167985 0
M  V30 20 C -6.849547 -1.154811 -3.493385 0
M  V30 21 N -7.387076 -0.155538 -4.350603 0
M  V30 22 O -7.761439 -1.951694 -3.138660 0
M  V30 23 N -4.861875 -2.055219 -2.352584 0
M  V30 24 N -3.563368 -1.832082 -2.196154 0
M  V30 25 C -2.812142 -2.709677 -1.372722 0
M  V30 26 C -2.121191 -3.882445 -1.683609 0
M  V30 27 C -1.472446 -4.557666 -0.673008 0
M  V30 28 C -1.486224 -4.112686 0.622676 0
M  V30 29 F -0.808748 -4.876590 1.497505 0
M  V30 30 C -2.156372 -2.962517 0.963043 0
M  V30 31 C -2.811718 -2.275297 -0.042163 0
M  V30 32 C -4.470709 0.899965 -4.400156 0
M  V30 33 C -3.182759 1.615569 -4.600278 0
M  V30 34 C 4.110634 0.606805 -0.150295 0
M  V30 35 Cl 4.457924 1.260949 -1.742127 0
M  V30 36 C 5.118513 0.485669 0.783165 0
M  V30 37 N 4.824106 -0.020654 2.000489 0
M  V30 38 C 4.403207 -1.033364 4.589494 0
M  V30 39 C 4.083385 -0.059259 5.681202 0
M  V30 40 N 2.717001 0.150585 5.948719 0
M  V30 41 C 2.240585 1.500537 5.854819 0
M  V30 42 H 2.500955 -2.689644 6.425560 0
M  V30 43 H 0.743901 -2.396306 6.631144 0
M  V30 44 H 1.936539 -1.480776 7.583844 0
M  V30 45 H 0.788012 -0.379696 5.447056 0
M  V30 46 H 2.285555 -2.517625 4.307661 0
M  V30 47 H 1.254235 -1.381333 3.447397 0
M  V30 48 H 1.547358 -0.584323 1.599288 0
M  V30 49 H 2.327172 -0.880173 -2.342929 0
M  V30 50 H 1.263054 1.813407 -3.653519 0
M  V30 51 H -0.748629 2.621504 -4.731711 0
M  V30 52 H -0.789365 -1.358185 -1.860156 0
M  V30 53 H -7.606836 0.788339 -4.779728 0
M  V30 54 H -7.630935 0.763449 -4.807964 0
M  V30 55 H -2.197685 -4.108377 -2.737755 0
M  V30 56 H -0.974313 -5.440551 -1.011401 0
M  V30 57 H -2.139000 -2.653459 1.989035 0
M  V30 58 H -3.314459 -1.372898 0.334659 0
M  V30 59 H -5.308176 1.593117 -4.092417 0
M  V30 60 H -4.825919 0.516345 -5.400178 0
M  V30 61 H -3.319353 2.651933 -4.171892 0
M  V30 62 H -2.996582 1.800930 -5.687784 0
M  V30 63 H 6.128807 0.799772 0.521235 0
M  V30 64 H 5.362082 -0.759963 4.103418 0
M  V30 65 H 4.414934 -2.063445 4.996151 0
M  V30 66 H 4.557826 -0.474487 6.617631 0
M  V30 67 H 4.660568 0.880829 5.474194 0
M  V30 68 H 1.692422 1.751792 4.947008 0
M  V30 69 H 1.535344 1.677800 6.700677 0
M  V30 70 H 3.116484 2.174925 6.053972 0
M  V30 END ATOM
M  V30 BEGIN BOND
M  V30 1 1 1 2
M  V30 2 1 2 3
M  V30 3 1 3 4
M  V30 4 1 4 5
M  V30 5 2 5 6
M  V30 6 1 6 7
M  V30 7 1 7 8
M  V30 8 2 8 9
M  V30 9 1 8 10
M  V30 10 1 10 11
M  V30 11 2 11 12
M  V30 12 1 12 13
M  V30 13 2 13 14
M  V30 14 1 14 15
M  V30 15 2 15 16
M  V30 16 1 15 17
M  V30 17 2 17 18
M  V30 18 1 18 19
M  V30 19 1 19 20
M  V30 20 1 20 21
M  V30 21 2 20 22
M  V30 22 2 19 23
M  V30 23 1 23 24
M  V30 24 1 24 25
M  V30 25 2 25 26
M  V30 26 1 26 27
M  V30 27 2 27 28
M  V30 28 1 28 29
M  V30 29 1 28 30
M  V30 30 2 30 31
M  V30 31 1 18 32
M  V30 32 1 32 33
M  V30 33 2 7 34
M  V30 34 1 34 35
M  V30 35 1 34 36
M  V30 36 2 36 37
M  V30 37 1 4 38
M  V30 38 1 38 39
M  V30 39 1 39 40
M  V30 40 1 40 41
M  V30 41 1 40 2
M  V30 42 1 37 5
M  V30 43 1 16 11
M  V30 44 1 24 17
M  V30 45 1 31 25
M  V30 46 1 33 14
M  V30 47 1 1 42
M  V30 48 1 1 43
M  V30 49 1 1 44
M  V30 50 1 2 45 CFG=3
M  V30 51 1 3 46
M  V30 52 1 3 47
M  V30 53 1 6 48
M  V30 54 1 10 49
M  V30 55 1 12 50
M  V30 56 1 13 51
M  V30 57 1 16 52
M  V30 58 1 21 53
M  V30 59 1 21 54
M  V30 60 1 26 55
M  V30 61 1 27 56
M  V30 62 1 30 57
M  V30 63 1 31 58
M  V30 64 1 32 59
M  V30 65 1 32 60
M  V30 66 1 33 61
M  V30 67 1 33 62
M  V30 68 1 36 63
M  V30 69 1 38 64
M  V30 70 1 38 65
M  V30 71 1 39 66
M  V30 72 1 39 67
M  V30 73 1 41 68
M  V30 74 1 41 69
M  V30 75 1 41 70
M  V30 END BOND
M  V30 END CTAB
M  END
>  <Dataset>  (253) 
ChEMBL_Kinases

>  <Ligand_Instance>  (253) 
nan

>  <PDB_ID>  (253) 
nan

>  <Standardized_SMILES>  (253) 
C[C@@H]1CN(c2cc(C(=O)Nc3ccc4c(c3)-c3c(c(C(N)=O)nn3-c3ccc(F)cc3)CC4)c(Cl)cn2)CCN1C

>  <Name>  (253) 
nan

>  <Pocket>  (253) 
nan

>  <ATP_Site>  (253) 
nan

>  <Peripheral>  (253) 
nan

>  <Num_H_Atoms_ProtBoundConf>  (253) 
nan

>  <Num_Resolved_Atoms>  (253) 
nan

>  <Num_Not_Resolved_Atoms>  (253) 
nan

$$$$
CHEMBL391071
     RDKit          3D

  0  0  0  0  0  0  0  0  0  0999 V3000
M  V30 BEGIN CTAB
M  V30 COUNTS 68 72 0 0 0
M  V30 BEGIN ATOM
M  V30 1 C 1.967125 -5.357109 3.965782 0
M  V30 2 C 2.220327 -4.227085 2.969343 0
M  V30 3 C 0.898309 -3.531832 2.784130 0
M  V30 4 N 2.765509 -4.799070 1.789537 0
M  V30 5 C 1.955069 -5.762257 1.123420 0
M  V30 6 C 3.535415 -3.937934 0.961308 0
M  V30 7 C 2.802230 -2.759281 0.439677 0
M  V30 8 C 2.108852 -2.771841 -0.759102 0
M  V30 9 C 1.440107 -1.635134 -1.196398 0
M  V30 10 N 1.445987 -0.486043 -0.467165 0
M  V30 11 C 0.905139 0.741185 -0.628914 0
M  V30 12 C 0.094237 1.139818 -1.771433 0
M  V30 13 C 0.338561 2.070732 -2.760003 0
M  V30 14 C -0.593997 2.281155 -3.752540 0
M  V30 15 N -1.725766 1.554994 -3.714357 0
M  V30 16 C -1.997138 0.637835 -2.764653 0
M  V30 17 N -3.227726 -0.103804 -2.785853 0
M  V30 18 C -3.501115 -1.078922 -1.765013 0 CFG=1
M  V30 19 C -2.458133 -2.169557 -1.740790 0
M  V30 20 C -3.663918 -0.439806 -0.436942 0
M  V30 21 C -3.094187 -0.894153 0.733534 0
M  V30 22 C -3.312164 -0.218235 1.930873 0
M  V30 23 C -4.102277 0.915774 1.957920 0
M  V30 24 C -4.672462 1.366130 0.771848 0
M  V30 25 C -4.452377 0.687085 -0.425245 0
M  V30 26 N -1.078465 0.444722 -1.804779 0
M  V30 27 C 1.231122 1.552557 0.437779 0
M  V30 28 C 0.893494 2.939894 0.722695 0
M  V30 29 C 1.240084 4.100863 0.073979 0
M  V30 30 C 0.792363 5.321592 0.530868 0
M  V30 31 C -0.013026 5.396655 1.649966 0
M  V30 32 F -0.369004 6.664548 1.971078 0
M  V30 33 C -0.378962 4.248157 2.324028 0
M  V30 34 C 0.080465 3.038009 1.849203 0
M  V30 35 N 1.985446 0.755025 1.234917 0
M  V30 36 C 2.119235 -0.471246 0.698332 0
M  V30 37 C 2.800456 -1.587055 1.170012 0
M  V30 38 H 1.133754 -6.007062 3.650945 0
M  V30 39 H 2.894933 -5.980560 4.013226 0
M  V30 40 H 1.819089 -4.941694 4.972394 0
M  V30 41 H 2.987644 -3.581295 3.429376 0
M  V30 42 H 0.594524 -3.388522 1.738686 0
M  V30 43 H 0.994406 -2.520206 3.237773 0
M  V30 44 H 0.054033 -4.009931 3.325607 0
M  V30 45 H 2.082310 -6.757484 1.632895 0
M  V30 46 H 2.111135 -5.831265 0.042905 0
M  V30 47 H 0.881139 -5.487776 1.304881 0
M  V30 48 H 4.483316 -3.625370 1.470844 0
M  V30 49 H 3.867842 -4.537932 0.081782 0
M  V30 50 H 2.116461 -3.689753 -1.320458 0
M  V30 51 H 0.897498 -1.656265 -2.140225 0
M  V30 52 H 1.277265 2.553794 -2.645462 0
M  V30 53 H -0.361080 3.019686 -4.506191 0
M  V30 54 H -3.899926 0.093139 -3.559165 0
M  V30 55 H -4.474162 -1.576173 -2.016506 0
M  V30 56 H -2.091433 -2.312451 -2.789440 0
M  V30 57 H -1.566986 -1.890787 -1.130843 0
M  V30 58 H -2.883737 -3.123901 -1.418331 0
M  V30 59 H -2.490205 -1.768576 0.689694 0
M  V30 60 H -2.831824 -0.628131 2.830252 0
M  V30 61 H -4.230588 1.394427 2.925872 0
M  V30 62 H -5.290650 2.258013 0.809087 0
M  V30 63 H -4.930107 1.100246 -1.300515 0
M  V30 64 H 1.872012 3.919236 -0.783020 0
M  V30 65 H 1.143452 6.159610 -0.078818 0
M  V30 66 H -1.009897 4.384581 3.189798 0
M  V30 67 H -0.278700 2.201795 2.470386 0
M  V30 68 H 3.332444 -1.576620 2.090293 0
M  V30 END ATOM
M  V30 BEGIN BOND
M  V30 1 1 1 2
M  V30 2 1 2 3
M  V30 3 1 2 4
M  V30 4 1 4 5
M  V30 5 1 4 6
M  V30 6 1 6 7
M  V30 7 1 7 8
M  V30 8 2 8 9
M  V30 9 1 9 10
M  V30 10 1 10 11
M  V30 11 1 11 12
M  V30 12 2 12 13
M  V30 13 1 13 14
M  V30 14 2 14 15
M  V30 15 1 15 16
M  V30 16 1 16 17
M  V30 17 1 17 18
M  V30 18 1 18 19
M  V30 19 1 18 20
M  V30 20 2 20 21
M  V30 21 1 21 22
M  V30 22 2 22 23
M  V30 23 1 23 24
M  V30 24 2 24 25
M  V30 25 2 16 26
M  V30 26 2 11 27
M  V30 27 1 27 28
M  V30 28 2 28 29
M  V30 29 1 29 30
M  V30 30 2 30 31
M  V30 31 1 31 32
M  V30 32 1 31 33
M  V30 33 2 33 34
M  V30 34 1 27 35
M  V30 35 2 35 36
M  V30 36 1 36 37
M  V30 37 2 37 7
M  V30 38 1 36 10
M  V30 39 1 26 12
M  V30 40 1 34 28
M  V30 41 1 25 20
M  V30 42 1 1 38
M  V30 43 1 1 39
M  V30 44 1 1 40
M  V30 45 1 2 41
M  V30 46 1 3 42
M  V30 47 1 3 43
M  V30 48 1 3 44
M  V30 49 1 5 45
M  V30 50 1 5 46
M  V30 51 1 5 47
M  V30 52 1 6 48
M  V30 53 1 6 49
M  V30 54 1 8 50
M  V30 55 1 9 51
M  V30 56 1 13 52
M  V30 57 1 14 53
M  V30 58 1 17 54
M  V30 59 1 18 55 CFG=3
M  V30 60 1 19 56
M  V30 61 1 19 57
M  V30 62 1 19 58
M  V30 63 1 21 59
M  V30 64 1 22 60
M  V30 65 1 23 61
M  V30 66 1 24 62
M  V30 67 1 25 63
M  V30 68 1 29 64
M  V30 69 1 30 65
M  V30 70 1 33 66
M  V30 71 1 34 67
M  V30 72 1 37 68
M  V30 END BOND
M  V30 END CTAB
M  END
>  <Dataset>  (254) 
ChEMBL_Kinases

>  <Ligand_Instance>  (254) 
nan

>  <PDB_ID>  (254) 
nan

>  <Standardized_SMILES>  (254) 
CC(C)N(C)Cc1ccn2c(-c3ccnc(N[C@@H](C)c4ccccc4)n3)c(-c3ccc(F)cc3)nc2c1

>  <Name>  (254) 
nan

>  <Pocket>  (254) 
nan

>  <ATP_Site>  (254) 
nan

>  <Peripheral>  (254) 
nan

>  <Num_H_Atoms_ProtBoundConf>  (254) 
nan

>  <Num_Resolved_Atoms>  (254) 
nan

>  <Num_Not_Resolved_Atoms>  (254) 
nan

$$$$
CHEMBL388619
     RDKit          3D

  0  0  0  0  0  0  0  0  0  0999 V3000
M  V30 BEGIN CTAB
M  V30 COUNTS 38 41 0 0 0
M  V30 BEGIN ATOM
M  V30 1 O 0.100558 -3.814616 3.875780 0
M  V30 2 C 1.169400 -3.891789 3.179668 0
M  V30 3 N 2.144751 -4.926924 3.415452 0
M  V30 4 C 2.869600 -5.334265 2.202859 0
M  V30 5 C 3.614951 -4.147561 1.658415 0
M  V30 6 C 2.646567 -3.055101 1.365901 0
M  V30 7 N 2.585237 -2.031817 0.485959 0
M  V30 8 C 1.454798 -1.320825 0.653961 0
M  V30 9 C 1.087974 -0.149334 -0.140922 0
M  V30 10 C 1.922841 0.299719 -1.144698 0
M  V30 11 C 1.495549 1.412986 -1.843628 0
M  V30 12 N 0.321010 2.057192 -1.583520 0
M  V30 13 C -0.493359 1.623164 -0.608001 0
M  V30 14 C -1.734095 2.356989 -0.381323 0
M  V30 15 C -1.985012 3.447818 -1.186370 0
M  V30 16 C -3.158714 4.176835 -1.003375 0
M  V30 17 C -4.069748 3.807869 -0.017296 0
M  V30 18 C -3.826042 2.721685 0.788727 0
M  V30 19 O -4.726407 2.360672 1.759977 0
M  V30 20 C -2.660810 2.023004 0.584414 0
M  V30 21 C -0.095782 0.516946 0.105865 0
M  V30 22 C 0.707758 -1.859489 1.675534 0
M  V30 23 C 1.471191 -2.929826 2.094920 0
M  V30 24 H 2.230743 -5.272561 4.411605 0
M  V30 25 H 2.167664 -5.762268 1.457514 0
M  V30 26 H 3.588458 -6.104328 2.492757 0
M  V30 27 H 4.173588 -4.432249 0.756690 0
M  V30 28 H 4.268337 -3.784435 2.479612 0
M  V30 29 H 3.342570 -1.846438 -0.224023 0
M  V30 30 H 2.853248 -0.197019 -1.362986 0
M  V30 31 H 2.111141 1.814471 -2.647295 0
M  V30 32 H -1.345455 3.803471 -1.965885 0
M  V30 33 H -3.416989 5.039003 -1.596699 0
M  V30 34 H -4.970883 4.375160 0.116355 0
M  V30 35 H -4.930744 1.419357 2.054208 0
M  V30 36 H -2.472780 1.168879 1.220831 0
M  V30 37 H -0.738286 0.154327 0.893736 0
M  V30 38 H -0.228111 -1.539836 2.057463 0
M  V30 END ATOM
M  V30 BEGIN BOND
M  V30 1 2 1 2
M  V30 2 1 2 3
M  V30 3 1 3 4
M  V30 4 1 4 5
M  V30 5 1 5 6
M  V30 6 1 6 7
M  V30 7 1 7 8
M  V30 8 1 8 9
M  V30 9 2 9 10
M  V30 10 1 10 11
M  V30 11 2 11 12
M  V30 12 1 12 13
M  V30 13 1 13 14
M  V30 14 2 14 15
M  V30 15 1 15 16
M  V30 16 2 16 17
M  V30 17 1 17 18
M  V30 18 1 18 19
M  V30 19 2 18 20
M  V30 20 2 13 21
M  V30 21 2 8 22
M  V30 22 1 22 23
M  V30 23 1 23 2
M  V30 24 2 23 6
M  V30 25 1 21 9
M  V30 26 1 20 14
M  V30 27 1 3 24
M  V30 28 1 4 25
M  V30 29 1 4 26
M  V30 30 1 5 27
M  V30 31 1 5 28
M  V30 32 1 7 29
M  V30 33 1 10 30
M  V30 34 1 11 31
M  V30 35 1 15 32
M  V30 36 1 16 33
M  V30 37 1 17 34
M  V30 38 1 19 35
M  V30 39 1 20 36
M  V30 40 1 21 37
M  V30 41 1 22 38
M  V30 END BOND
M  V30 END CTAB
M  END
>  <Dataset>  (255) 
ChEMBL_Kinases

>  <Ligand_Instance>  (255) 
nan

>  <PDB_ID>  (255) 
nan

>  <Standardized_SMILES>  (255) 
O=C1NCCc2[nH]c(-c3ccnc(-c4cccc(O)c4)c3)cc21

>  <Name>  (255) 
nan

>  <Pocket>  (255) 
nan

>  <ATP_Site>  (255) 
nan

>  <Peripheral>  (255) 
nan

>  <Num_H_Atoms_ProtBoundConf>  (255) 
nan

>  <Num_Resolved_Atoms>  (255) 
nan

>  <Num_Not_Resolved_Atoms>  (255) 
nan

$$$$
CHEMBL4878682
     RDKit          3D

  0  0  0  0  0  0  0  0  0  0999 V3000
M  V30 BEGIN CTAB
M  V30 COUNTS 54 58 0 0 0
M  V30 BEGIN ATOM
M  V30 1 C 2.248925 -3.564345 5.818953 0
M  V30 2 O 3.096835 -3.737312 4.709512 0
M  V30 3 C 3.200446 -2.797189 3.693765 0
M  V30 4 C 4.028595 -2.934273 2.579672 0
M  V30 5 C 4.076266 -1.953028 1.609666 0
M  V30 6 C 3.303556 -0.816920 1.725669 0
M  V30 7 C 3.316549 0.265769 0.707123 0 CFG=1
M  V30 8 C 4.080446 -0.243718 -0.509996 0
M  V30 9 N 2.013327 0.730285 0.373814 0
M  V30 10 C 1.509646 2.038683 0.497159 0
M  V30 11 O 2.477702 2.723746 0.974019 0
M  V30 12 C 0.267103 2.710881 0.231125 0
M  V30 13 C 0.235709 4.062290 0.507168 0
M  V30 14 N -1.014353 4.512237 0.192682 0
M  V30 15 C -1.764935 3.502739 -0.267276 0
M  V30 16 C -3.065383 3.397515 -0.715666 0
M  V30 17 C -3.530474 2.166873 -1.128504 0
M  V30 18 C -2.689031 1.085354 -1.081602 0
M  V30 19 C -3.230452 -0.178326 -1.526122 0
M  V30 20 C -4.181738 -0.324812 -2.509168 0
M  V30 21 C -4.616595 -1.609842 -2.837745 0
M  V30 22 C -4.106049 -2.712905 -2.193086 0
M  V30 23 N -4.552786 -3.930089 -2.540393 0
M  V30 24 C -4.106568 -5.058829 -1.960115 0
M  V30 25 C -3.143068 -4.919259 -0.963719 0
M  V30 26 C -2.640878 -3.700263 -0.558433 0
M  V30 27 C -3.151507 -2.593817 -1.203861 0
M  V30 28 C -2.719541 -1.306573 -0.878584 0
M  V30 29 C -1.402719 1.253555 -0.624614 0
M  V30 30 N -0.957283 2.442452 -0.227176 0
M  V30 31 C 2.450455 -0.604581 2.808188 0
M  V30 32 C 2.436293 -1.626852 3.765663 0
M  V30 33 H 1.195561 -3.347095 5.511281 0
M  V30 34 H 2.219647 -4.543077 6.354917 0
M  V30 35 H 2.560846 -2.775806 6.507604 0
M  V30 36 H 4.593296 -3.844332 2.567346 0
M  V30 37 H 4.728657 -2.091698 0.760875 0
M  V30 38 H 3.937981 1.089551 1.108337 0
M  V30 39 H 5.146966 -0.293331 -0.209009 0
M  V30 40 H 4.039416 0.494872 -1.339074 0
M  V30 41 H 3.762301 -1.239436 -0.817812 0
M  V30 42 H 1.326460 0.053643 -0.008552 0
M  V30 43 H 0.854498 4.869174 0.881090 0
M  V30 44 H -3.620056 4.334278 -0.699602 0
M  V30 45 H -4.555028 2.162621 -1.465398 0
M  V30 46 H -4.542970 0.574892 -2.977561 0
M  V30 47 H -5.355673 -1.699208 -3.603670 0
M  V30 48 H -4.452789 -6.044273 -2.224815 0
M  V30 49 H -2.768051 -5.815229 -0.481359 0
M  V30 50 H -1.897657 -3.600521 0.210542 0
M  V30 51 H -1.965925 -1.229980 -0.096167 0
M  V30 52 H -0.796500 0.378602 -0.610728 0
M  V30 53 H 1.830821 0.256147 2.948295 0
M  V30 54 H 1.780666 -1.492690 4.624039 0
M  V30 END ATOM
M  V30 BEGIN BOND
M  V30 1 1 1 2
M  V30 2 1 2 3
M  V30 3 2 3 4
M  V30 4 1 4 5
M  V30 5 2 5 6
M  V30 6 1 6 7
M  V30 7 1 7 8
M  V30 8 1 7 9
M  V30 9 1 9 10
M  V30 10 2 10 11
M  V30 11 1 10 12
M  V30 12 2 12 13
M  V30 13 1 13 14
M  V30 14 2 14 15
M  V30 15 1 15 16
M  V30 16 2 16 17
M  V30 17 1 17 18
M  V30 18 1 18 19
M  V30 19 2 19 20
M  V30 20 1 20 21
M  V30 21 2 21 22
M  V30 22 1 22 23
M  V30 23 2 23 24
M  V30 24 1 24 25
M  V30 25 2 25 26
M  V30 26 1 26 27
M  V30 27 2 27 28
M  V30 28 2 18 29
M  V30 29 1 29 30
M  V30 30 1 6 31
M  V30 31 2 31 32
M  V30 32 1 32 3
M  V30 33 1 30 12
M  V30 34 1 30 15
M  V30 35 1 28 19
M  V30 36 1 27 22
M  V30 37 1 1 33
M  V30 38 1 1 34
M  V30 39 1 1 35
M  V30 40 1 4 36
M  V30 41 1 5 37
M  V30 42 1 7 38 CFG=1
M  V30 43 1 8 39
M  V30 44 1 8 40
M  V30 45 1 8 41
M  V30 46 1 9 42
M  V30 47 1 13 43
M  V30 48 1 16 44
M  V30 49 1 17 45
M  V30 50 1 20 46
M  V30 51 1 21 47
M  V30 52 1 24 48
M  V30 53 1 25 49
M  V30 54 1 26 50
M  V30 55 1 28 51
M  V30 56 1 29 52
M  V30 57 1 31 53
M  V30 58 1 32 54
M  V30 END BOND
M  V30 END CTAB
M  END
>  <Dataset>  (256) 
ChEMBL_Kinases

>  <Ligand_Instance>  (256) 
nan

>  <PDB_ID>  (256) 
nan

>  <Standardized_SMILES>  (256) 
COc1ccc([C@@H](C)NC(=O)c2cnc3ccc(-c4ccc5ncccc5c4)cn23)cc1

>  <Name>  (256) 
nan

>  <Pocket>  (256) 
nan

>  <ATP_Site>  (256) 
nan

>  <Peripheral>  (256) 
nan

>  <Num_H_Atoms_ProtBoundConf>  (256) 
nan

>  <Num_Resolved_Atoms>  (256) 
nan

>  <Num_Not_Resolved_Atoms>  (256) 
nan

$$$$
CHEMBL4879378
     RDKit          3D

  0  0  0  0  0  0  0  0  0  0999 V3000
M  V30 BEGIN CTAB
M  V30 COUNTS 51 55 0 0 0
M  V30 BEGIN ATOM
M  V30 1 C 2.285579 0.853763 4.187363 0
M  V30 2 C 3.243936 -0.035587 3.409671 0
M  V30 3 C 3.497146 -1.243771 4.321260 0
M  V30 4 N 4.478660 0.660631 3.207936 0
M  V30 5 C 5.413969 0.749056 4.163761 0
M  V30 6 N 6.450544 1.471676 3.646187 0
M  V30 7 N 6.120701 1.803535 2.392497 0
M  V30 8 C 4.912964 1.308202 2.120449 0
M  V30 9 C 4.218770 1.461843 0.857115 0
M  V30 10 C 4.792835 2.123941 -0.208286 0
M  V30 11 C 4.175399 2.296944 -1.430068 0
M  V30 12 C 2.905954 1.788596 -1.630737 0
M  V30 13 C 2.336754 1.126480 -0.559241 0
M  V30 14 N 1.045964 0.543785 -0.587666 0
M  V30 15 C -0.206342 1.143982 -0.245067 0
M  V30 16 O -0.362488 2.321756 0.147911 0
M  V30 17 C -1.392288 0.295614 -0.370529 0
M  V30 18 C -2.669873 0.730746 -0.078072 0
M  V30 19 C -3.583643 -0.303719 -0.295276 0
M  V30 20 C -4.949267 -0.515457 -0.197002 0
M  V30 21 C -5.459891 -1.754469 -0.527657 0
M  V30 22 C -4.686197 -2.808737 -0.955302 0
M  V30 23 C -5.247517 -4.105463 -1.297627 0
M  V30 24 C -4.566674 -5.303876 -1.127625 0
M  V30 25 N -5.335093 -6.330357 -1.529743 0
M  V30 26 N -6.495618 -5.831204 -1.955939 0
M  V30 27 C -6.472102 -4.476571 -1.826704 0
M  V30 28 C -3.323362 -2.585886 -1.049743 0
M  V30 29 C -2.781394 -1.351521 -0.724339 0
M  V30 30 N -1.485943 -0.985027 -0.764970 0
M  V30 31 N 2.985180 0.988141 0.607869 0
M  V30 32 H 2.380285 1.889048 3.789732 0
M  V30 33 H 2.537109 0.767590 5.264182 0
M  V30 34 H 1.250667 0.490295 4.020797 0
M  V30 35 H 2.809133 -0.443527 2.499102 0
M  V30 36 H 2.519110 -1.717097 4.586442 0
M  V30 37 H 3.925675 -0.886576 5.285992 0
M  V30 38 H 4.136654 -2.001262 3.851301 0
M  V30 39 H 5.510253 0.394961 5.179008 0
M  V30 40 H 5.794581 2.556167 -0.133150 0
M  V30 41 H 4.622910 2.815338 -2.266645 0
M  V30 42 H 2.309747 1.851392 -2.531654 0
M  V30 43 H 1.123331 -0.446189 -0.911394 0
M  V30 44 H -3.005144 1.707735 0.272020 0
M  V30 45 H -5.497142 0.333919 0.138278 0
M  V30 46 H -6.541685 -1.877769 -0.435775 0
M  V30 47 H -3.587508 -5.456386 -0.744267 0
M  V30 48 H -7.293482 -6.392028 -2.328795 0
M  V30 49 H -7.228261 -3.751271 -2.069131 0
M  V30 50 H -2.699173 -3.426135 -1.391620 0
M  V30 51 H -0.666021 -1.571958 -1.050187 0
M  V30 END ATOM
M  V30 BEGIN BOND
M  V30 1 1 1 2
M  V30 2 1 2 3
M  V30 3 1 2 4
M  V30 4 1 4 5
M  V30 5 2 5 6
M  V30 6 1 6 7
M  V30 7 2 7 8
M  V30 8 1 8 9
M  V30 9 2 9 10
M  V30 10 1 10 11
M  V30 11 2 11 12
M  V30 12 1 12 13
M  V30 13 1 13 14
M  V30 14 1 14 15
M  V30 15 2 15 16
M  V30 16 1 15 17
M  V30 17 2 17 18
M  V30 18 1 18 19
M  V30 19 2 19 20
M  V30 20 1 20 21
M  V30 21 2 21 22
M  V30 22 1 22 23
M  V30 23 1 23 24
M  V30 24 2 24 25
M  V30 25 1 25 26
M  V30 26 1 26 27
M  V30 27 1 22 28
M  V30 28 2 28 29
M  V30 29 1 29 30
M  V30 30 2 13 31
M  V30 31 1 8 4
M  V30 32 1 31 9
M  V30 33 1 30 17
M  V30 34 1 29 19
M  V30 35 2 27 23
M  V30 36 1 1 32
M  V30 37 1 1 33
M  V30 38 1 1 34
M  V30 39 1 2 35
M  V30 40 1 3 36
M  V30 41 1 3 37
M  V30 42 1 3 38
M  V30 43 1 5 39
M  V30 44 1 10 40
M  V30 45 1 11 41
M  V30 46 1 12 42
M  V30 47 1 14 43
M  V30 48 1 18 44
M  V30 49 1 20 45
M  V30 50 1 21 46
M  V30 51 1 24 47
M  V30 52 1 26 48
M  V30 53 1 27 49
M  V30 54 1 28 50
M  V30 55 1 30 51
M  V30 END BOND
M  V30 END CTAB
M  END
>  <Dataset>  (257) 
ChEMBL_Kinases

>  <Ligand_Instance>  (257) 
nan

>  <PDB_ID>  (257) 
nan

>  <Standardized_SMILES>  (257) 
CC(C)n1cnnc1-c1cccc(NC(=O)c2cc3ccc(-c4cn[nH]c4)cc3[nH]2)n1

>  <Name>  (257) 
nan

>  <Pocket>  (257) 
nan

>  <ATP_Site>  (257) 
nan

>  <Peripheral>  (257) 
nan

>  <Num_H_Atoms_ProtBoundConf>  (257) 
nan

>  <Num_Resolved_Atoms>  (257) 
nan

>  <Num_Not_Resolved_Atoms>  (257) 
nan

$$$$
CHEMBL488012
     RDKit          3D

  0  0  0  0  0  0  0  0  0  0999 V3000
M  V30 BEGIN CTAB
M  V30 COUNTS 60 63 0 0 0
M  V30 BEGIN ATOM
M  V30 1 O -0.551065 -3.643444 2.407228 0
M  V30 2 C 0.547460 -3.013681 2.512088 0
M  V30 3 O 0.460357 -1.772668 3.187682 0
M  V30 4 C 1.638670 -1.070559 2.751367 0
M  V30 5 C 2.095736 -0.058074 3.754679 0
M  V30 6 O 3.250099 0.613142 3.299832 0
M  V30 7 C 1.357172 -0.538268 1.387136 0
M  V30 8 O 0.248056 0.330608 1.363890 0
M  V30 9 C -0.201258 0.927434 0.193083 0
M  V30 10 O 0.705066 0.361812 -0.465166 0
M  V30 11 C -1.353361 1.847956 0.070458 0
M  V30 12 C -1.170103 3.091848 0.858372 0
M  V30 13 C 0.161629 3.501196 0.920733 0
M  V30 14 C 0.470793 4.646372 1.623378 0
M  V30 15 C -0.526266 5.363434 2.247446 0
M  V30 16 C -1.841942 4.945804 2.177181 0
M  V30 17 C -2.187769 3.809571 1.486164 0
M  V30 18 C -1.584426 2.185133 -1.357361 0
M  V30 19 C -0.504104 2.298376 -2.219495 0
M  V30 20 C -0.746982 2.608659 -3.546436 0
M  V30 21 C -2.018124 2.806982 -4.033286 0
M  V30 22 C -3.098790 2.698117 -3.189695 0
M  V30 23 C -2.863098 2.384794 -1.847095 0
M  V30 24 C 2.698923 -2.176957 2.694915 0
M  V30 25 C 1.930730 -3.291167 2.075495 0
M  V30 26 C 2.185631 -4.336321 1.320485 0
M  V30 27 C 1.261465 -5.331705 0.817777 0
M  V30 28 C 0.348039 -6.158051 1.371426 0
M  V30 29 C -0.460091 -6.987923 0.624278 0
M  V30 30 C -0.363416 -7.006575 -0.751001 0
M  V30 31 O -1.189058 -7.853155 -1.497420 0
M  V30 32 C -2.458798 -7.373665 -1.938943 0
M  V30 33 F -3.057983 -8.402597 -2.655010 0
M  V30 34 F -3.287197 -7.144294 -0.835766 0
M  V30 35 F -2.394659 -6.196183 -2.621159 0
M  V30 36 C 0.563180 -6.173354 -1.358419 0
M  V30 37 C 1.376199 -5.336088 -0.581989 0
M  V30 38 H 1.289238 0.667851 3.993774 0
M  V30 39 H 2.349318 -0.538567 4.717845 0
M  V30 40 H 2.962495 1.265764 2.602070 0
M  V30 41 H 1.273325 -1.370690 0.645032 0
M  V30 42 H 2.235525 0.071392 1.022688 0
M  V30 43 H -2.289155 1.325034 0.408410 0
M  V30 44 H 0.975284 2.981583 0.454761 0
M  V30 45 H 1.504785 4.980393 1.680678 0
M  V30 46 H -0.328033 6.281240 2.817210 0
M  V30 47 H -2.698426 5.434615 2.630151 0
M  V30 48 H -3.134017 3.328447 1.317305 0
M  V30 49 H 0.521772 2.161434 -1.924551 0
M  V30 50 H 0.084568 2.701764 -4.240853 0
M  V30 51 H -2.157049 3.048244 -5.080581 0
M  V30 52 H -4.064187 2.861795 -3.614857 0
M  V30 53 H -3.701500 2.297529 -1.181202 0
M  V30 54 H 3.082696 -2.444918 3.677414 0
M  V30 55 H 3.548753 -1.829640 2.074072 0
M  V30 56 H 3.261275 -4.398408 1.079679 0
M  V30 57 H 0.342057 -6.109137 2.439132 0
M  V30 58 H -1.151813 -7.603486 1.178869 0
M  V30 59 H 0.576482 -6.248389 -2.434398 0
M  V30 60 H 2.032570 -4.765324 -1.244628 0
M  V30 END ATOM
M  V30 BEGIN BOND
M  V30 1 2 1 2
M  V30 2 1 2 3
M  V30 3 1 3 4
M  V30 4 1 4 5
M  V30 5 1 5 6
M  V30 6 1 4 7
M  V30 7 1 7 8
M  V30 8 1 8 9
M  V30 9 2 9 10
M  V30 10 1 9 11
M  V30 11 1 11 12
M  V30 12 2 12 13
M  V30 13 1 13 14
M  V30 14 2 14 15
M  V30 15 1 15 16
M  V30 16 2 16 17
M  V30 17 1 11 18
M  V30 18 2 18 19
M  V30 19 1 19 20
M  V30 20 2 20 21
M  V30 21 1 21 22
M  V30 22 2 22 23
M  V30 23 1 4 24
M  V30 24 1 24 25
M  V30 25 2 25 26
M  V30 26 1 26 27
M  V30 27 2 27 28
M  V30 28 1 28 29
M  V30 29 2 29 30
M  V30 30 1 30 31
M  V30 31 1 31 32
M  V30 32 1 32 33
M  V30 33 1 32 34
M  V30 34 1 32 35
M  V30 35 1 30 36
M  V30 36 2 36 37
M  V30 37 1 25 2
M  V30 38 1 37 27
M  V30 39 1 17 12
M  V30 40 1 23 18
M  V30 41 1 5 38
M  V30 42 1 5 39
M  V30 43 1 6 40
M  V30 44 1 7 41
M  V30 45 1 7 42
M  V30 46 1 11 43
M  V30 47 1 13 44
M  V30 48 1 14 45
M  V30 49 1 15 46
M  V30 50 1 16 47
M  V30 51 1 17 48
M  V30 52 1 19 49
M  V30 53 1 20 50
M  V30 54 1 21 51
M  V30 55 1 22 52
M  V30 56 1 23 53
M  V30 57 1 24 54
M  V30 58 1 24 55
M  V30 59 1 26 56
M  V30 60 1 28 57
M  V30 61 1 29 58
M  V30 62 1 36 59
M  V30 63 1 37 60
M  V30 END BOND
M  V30 END CTAB
M  END
>  <Dataset>  (258) 
ChEMBL_Kinases

>  <Ligand_Instance>  (258) 
nan

>  <PDB_ID>  (258) 
nan

>  <Standardized_SMILES>  (258) 
O=C1OC(CO)(COC(=O)C(c2ccccc2)c2ccccc2)C/C1=C/c1ccc(OC(F)(F)F)cc1

>  <Name>  (258) 
nan

>  <Pocket>  (258) 
nan

>  <ATP_Site>  (258) 
nan

>  <Peripheral>  (258) 
nan

>  <Num_H_Atoms_ProtBoundConf>  (258) 
nan

>  <Num_Resolved_Atoms>  (258) 
nan

>  <Num_Not_Resolved_Atoms>  (258) 
nan

$$$$
CHEMBL3911532
     RDKit          3D

  0  0  0  0  0  0  0  0  0  0999 V3000
M  V30 BEGIN CTAB
M  V30 COUNTS 61 64 0 0 0
M  V30 BEGIN ATOM
M  V30 1 C -0.806625 1.750356 5.667939 0
M  V30 2 O -1.264751 1.061969 4.517500 0
M  V30 3 C -0.497046 0.639355 3.472545 0
M  V30 4 C 0.856117 0.868324 3.477301 0
M  V30 5 C 1.677338 0.461273 2.447574 0
M  V30 6 C 3.117143 0.695054 2.438107 0
M  V30 7 C 3.968266 -0.352766 2.066893 0
M  V30 8 N 5.255267 0.095026 2.132139 0
M  V30 9 C 5.187410 1.395251 2.536727 0
M  V30 10 C 6.382529 2.256612 2.734771 0
M  V30 11 N 3.909285 1.743124 2.716237 0
M  V30 12 C 3.363120 2.996869 3.133124 0
M  V30 13 C 1.099818 -0.197645 1.383911 0
M  V30 14 C -0.261158 -0.411253 1.410727 0
M  V30 15 C -1.124024 -0.024917 2.414502 0
M  V30 16 N -2.505215 -0.250968 2.417856 0
M  V30 17 C -3.320155 -0.901148 1.451296 0
M  V30 18 N -4.632918 -0.996955 1.651735 0
M  V30 19 C -5.526209 -1.568769 0.854471 0
M  V30 20 C -5.035728 -2.121782 -0.305373 0
M  V30 21 C -5.916749 -2.725842 -1.165028 0
M  V30 22 C -5.465760 -3.287903 -2.329800 0
M  V30 23 N -4.147141 -3.214855 -2.573780 0
M  V30 24 C -3.270460 -2.619927 -1.729744 0
M  V30 25 N -1.884544 -2.593153 -2.074774 0
M  V30 26 C -1.429052 -3.194332 -3.311842 0
M  V30 27 C 0.071136 -3.039260 -3.437155 0
M  V30 28 C 0.384851 -1.560106 -3.430941 0
M  V30 29 C 0.520651 -3.596651 -4.780474 0
M  V30 30 C 0.732206 -3.740860 -2.286330 0
M  V30 31 C -3.693402 -2.050357 -0.559362 0
M  V30 32 N -2.881523 -1.448880 0.315867 0
M  V30 33 H -0.173899 2.613012 5.432965 0
M  V30 34 H -1.651281 2.050026 6.316610 0
M  V30 35 H -0.194758 1.037152 6.267787 0
M  V30 36 H 1.287692 1.392797 4.332571 0
M  V30 37 H 3.807483 -1.395424 1.754147 0
M  V30 38 H 6.172415 3.239293 2.237744 0
M  V30 39 H 6.532958 2.446944 3.798978 0
M  V30 40 H 7.271760 1.841429 2.212502 0
M  V30 41 H 4.044439 3.845239 2.901864 0
M  V30 42 H 2.341057 3.186533 2.719940 0
M  V30 43 H 3.245139 2.994178 4.248598 0
M  V30 44 H 1.730635 -0.522400 0.570941 0
M  V30 45 H -0.631312 -0.931151 0.544693 0
M  V30 46 H -3.017447 0.121913 3.274910 0
M  V30 47 H -6.549444 -1.560497 1.163533 0
M  V30 48 H -6.985055 -2.758661 -0.919723 0
M  V30 49 H -6.171826 -3.765521 -3.006351 0
M  V30 50 H -1.197837 -2.142948 -1.441137 0
M  V30 51 H -1.693917 -4.286385 -3.348369 0
M  V30 52 H -1.868161 -2.658745 -4.196595 0
M  V30 53 H 0.425123 -1.227422 -2.370857 0
M  V30 54 H 1.316348 -1.387730 -3.992078 0
M  V30 55 H -0.489237 -1.036365 -3.890988 0
M  V30 56 H -0.006158 -2.988948 -5.560133 0
M  V30 57 H 0.281842 -4.663124 -4.900656 0
M  V30 58 H 1.605007 -3.411312 -4.888424 0
M  V30 59 H 1.074413 -2.980411 -1.556893 0
M  V30 60 H 0.015253 -4.458789 -1.841276 0
M  V30 61 H 1.588276 -4.318185 -2.685491 0
M  V30 END ATOM
M  V30 BEGIN BOND
M  V30 1 1 1 2
M  V30 2 1 2 3
M  V30 3 2 3 4
M  V30 4 1 4 5
M  V30 5 1 5 6
M  V30 6 2 6 7
M  V30 7 1 7 8
M  V30 8 2 8 9
M  V30 9 1 9 10
M  V30 10 1 9 11
M  V30 11 1 11 12
M  V30 12 2 5 13
M  V30 13 1 13 14
M  V30 14 2 14 15
M  V30 15 1 15 16
M  V30 16 1 16 17
M  V30 17 2 17 18
M  V30 18 1 18 19
M  V30 19 2 19 20
M  V30 20 1 20 21
M  V30 21 2 21 22
M  V30 22 1 22 23
M  V30 23 2 23 24
M  V30 24 1 24 25
M  V30 25 1 25 26
M  V30 26 1 26 27
M  V30 27 1 27 28
M  V30 28 1 27 29
M  V30 29 1 27 30
M  V30 30 1 24 31
M  V30 31 2 31 32
M  V30 32 1 15 3
M  V30 33 1 32 17
M  V30 34 1 11 6
M  V30 35 1 31 20
M  V30 36 1 1 33
M  V30 37 1 1 34
M  V30 38 1 1 35
M  V30 39 1 4 36
M  V30 40 1 7 37
M  V30 41 1 10 38
M  V30 42 1 10 39
M  V30 43 1 10 40
M  V30 44 1 12 41
M  V30 45 1 12 42
M  V30 46 1 12 43
M  V30 47 1 13 44
M  V30 48 1 14 45
M  V30 49 1 16 46
M  V30 50 1 19 47
M  V30 51 1 21 48
M  V30 52 1 22 49
M  V30 53 1 25 50
M  V30 54 1 26 51
M  V30 55 1 26 52
M  V30 56 1 28 53
M  V30 57 1 28 54
M  V30 58 1 28 55
M  V30 59 1 29 56
M  V30 60 1 29 57
M  V30 61 1 29 58
M  V30 62 1 30 59
M  V30 63 1 30 60
M  V30 64 1 30 61
M  V30 END BOND
M  V30 END CTAB
M  END
>  <Dataset>  (259) 
ChEMBL_Kinases

>  <Ligand_Instance>  (259) 
nan

>  <PDB_ID>  (259) 
nan

>  <Standardized_SMILES>  (259) 
COc1cc(-c2cnc(C)n2C)ccc1Nc1ncc2ccnc(NCC(C)(C)C)c2n1

>  <Name>  (259) 
nan

>  <Pocket>  (259) 
nan

>  <ATP_Site>  (259) 
nan

>  <Peripheral>  (259) 
nan

>  <Num_H_Atoms_ProtBoundConf>  (259) 
nan

>  <Num_Resolved_Atoms>  (259) 
nan

>  <Num_Not_Resolved_Atoms>  (259) 
nan

$$$$
CHEMBL3911742
     RDKit          3D

  0  0  0  0  0  0  0  0  0  0999 V3000
M  V30 BEGIN CTAB
M  V30 COUNTS 49 53 0 0 0
M  V30 BEGIN ATOM
M  V30 1 C -3.567491 -8.375398 -0.492650 0
M  V30 2 C -2.815678 -7.130721 -0.210724 0
M  V30 3 C -1.643869 -7.230928 0.477547 0
M  V30 4 C -0.860951 -6.126628 0.794363 0
M  V30 5 C -1.358791 -4.916452 0.359364 0
M  V30 6 N -0.904380 -3.661079 0.468165 0
M  V30 7 C -1.686568 -2.740769 -0.095527 0
M  V30 8 C -1.682439 -1.304166 -0.268661 0
M  V30 9 N -2.630392 -0.576949 -0.904452 0
M  V30 10 N -2.348093 0.707926 -0.898863 0
M  V30 11 C -1.188078 0.936438 -0.257711 0
M  V30 12 C -0.448042 2.067104 0.030748 0
M  V30 13 C 0.739646 1.970797 0.727586 0
M  V30 14 C 1.486806 3.193590 1.008631 0
M  V30 15 O 0.993528 4.271935 0.590781 0
M  V30 16 N 2.708177 3.206953 1.712643 0
M  V30 17 C 3.472499 4.371164 2.010763 0
M  V30 18 C 4.433991 4.838549 1.168259 0
M  V30 19 C 5.096737 5.977336 1.584473 0
M  V30 20 C 4.853949 6.650662 2.763292 0
M  V30 21 O 5.575922 7.794619 3.098794 0
M  V30 22 C 3.875819 6.152831 3.593072 0
M  V30 23 C 3.190327 5.011329 3.206990 0
M  V30 24 C 1.158478 0.714871 1.122888 0
M  V30 25 C 0.391793 -0.389770 0.815869 0
M  V30 26 C -0.795335 -0.330201 0.123856 0
M  V30 27 N -2.691116 -3.495716 -0.582817 0
M  V30 28 C -2.523926 -4.796731 -0.327437 0
M  V30 29 C -3.288614 -5.902875 -0.633503 0
M  V30 30 C -4.556973 -5.770582 -1.381133 0
M  V30 31 H -4.662031 -8.222878 -0.532382 0
M  V30 32 H -3.285094 -8.795419 -1.494656 0
M  V30 33 H -3.324170 -9.167998 0.252432 0
M  V30 34 H -1.272766 -8.207027 0.810819 0
M  V30 35 H 0.066508 -6.152211 1.332487 0
M  V30 36 H -0.016689 -3.438412 0.953051 0
M  V30 37 H -2.972972 1.411586 -1.345447 0
M  V30 38 H -0.838976 3.017861 -0.311121 0
M  V30 39 H 3.127856 2.317738 2.064725 0
M  V30 40 H 4.664567 4.357976 0.242764 0
M  V30 41 H 5.877324 6.401698 0.955377 0
M  V30 42 H 5.856125 7.897605 4.084291 0
M  V30 43 H 3.650094 6.647621 4.528769 0
M  V30 44 H 2.424492 4.662137 3.906302 0
M  V30 45 H 2.084954 0.612152 1.669839 0
M  V30 46 H 0.774572 -1.332468 1.152027 0
M  V30 47 H -5.352890 -5.610689 -0.614444 0
M  V30 48 H -4.456748 -4.905379 -2.071004 0
M  V30 49 H -4.738194 -6.718484 -1.942835 0
M  V30 END ATOM
M  V30 BEGIN BOND
M  V30 1 1 1 2
M  V30 2 2 2 3
M  V30 3 1 3 4
M  V30 4 2 4 5
M  V30 5 1 5 6
M  V30 6 1 6 7
M  V30 7 1 7 8
M  V30 8 2 8 9
M  V30 9 1 9 10
M  V30 10 1 10 11
M  V30 11 2 11 12
M  V30 12 1 12 13
M  V30 13 1 13 14
M  V30 14 2 14 15
M  V30 15 1 14 16
M  V30 16 1 16 17
M  V30 17 2 17 18
M  V30 18 1 18 19
M  V30 19 2 19 20
M  V30 20 1 20 21
M  V30 21 1 20 22
M  V30 22 2 22 23
M  V30 23 2 13 24
M  V30 24 1 24 25
M  V30 25 2 25 26
M  V30 26 2 7 27
M  V30 27 1 27 28
M  V30 28 2 28 29
M  V30 29 1 29 30
M  V30 30 1 29 2
M  V30 31 1 28 5
M  V30 32 1 26 8
M  V30 33 1 26 11
M  V30 34 1 23 17
M  V30 35 1 1 31
M  V30 36 1 1 32
M  V30 37 1 1 33
M  V30 38 1 3 34
M  V30 39 1 4 35
M  V30 40 1 6 36
M  V30 41 1 10 37
M  V30 42 1 12 38
M  V30 43 1 16 39
M  V30 44 1 18 40
M  V30 45 1 19 41
M  V30 46 1 21 42
M  V30 47 1 22 43
M  V30 48 1 23 44
M  V30 49 1 24 45
M  V30 50 1 25 46
M  V30 51 1 30 47
M  V30 52 1 30 48
M  V30 53 1 30 49
M  V30 END BOND
M  V30 END CTAB
M  END
>  <Dataset>  (260) 
ChEMBL_Kinases

>  <Ligand_Instance>  (260) 
nan

>  <PDB_ID>  (260) 
nan

>  <Standardized_SMILES>  (260) 
Cc1ccc2[nH]c(-c3n[nH]c4cc(C(=O)Nc5ccc(O)cc5)ccc34)nc2c1C

>  <Name>  (260) 
nan

>  <Pocket>  (260) 
nan

>  <ATP_Site>  (260) 
nan

>  <Peripheral>  (260) 
nan

>  <Num_H_Atoms_ProtBoundConf>  (260) 
nan

>  <Num_Resolved_Atoms>  (260) 
nan

>  <Num_Not_Resolved_Atoms>  (260) 
nan

$$$$
CHEMBL488019
     RDKit          3D

  0  0  0  0  0  0  0  0  0  0999 V3000
M  V30 BEGIN CTAB
M  V30 COUNTS 59 62 0 0 0
M  V30 BEGIN ATOM
M  V30 1 O 3.259746 -3.186880 1.748409 0
M  V30 2 C 2.124098 -3.002010 2.218130 0
M  V30 3 O 1.489411 -2.457355 3.361680 0
M  V30 4 C 0.376477 -1.688201 2.847940 0
M  V30 5 C -0.449268 -1.271191 4.019991 0
M  V30 6 O 0.375503 -0.496294 4.867474 0
M  V30 7 C 0.907725 -0.549110 2.056053 0
M  V30 8 O -0.144451 0.258262 1.510495 0
M  V30 9 C 0.231468 1.314758 0.729799 0
M  V30 10 O 1.492636 1.198918 0.765623 0
M  V30 11 C -0.486566 2.367116 -0.008449 0
M  V30 12 C -1.238141 3.216344 0.940439 0
M  V30 13 C -1.393428 4.558854 0.574714 0
M  V30 14 C -2.049153 5.533771 1.297938 0
M  V30 15 C -2.592023 5.096331 2.497330 0
M  V30 16 C -2.464487 3.785880 2.897953 0
M  V30 17 C -1.800027 2.844397 2.143168 0
M  V30 18 C -1.420883 1.808235 -1.030683 0
M  V30 19 C -1.600127 2.460517 -2.250862 0
M  V30 20 C -2.453186 1.998549 -3.254233 0
M  V30 21 C -3.128452 0.816894 -2.948256 0
M  V30 22 C -3.007631 0.115708 -1.772891 0
M  V30 23 C -2.141935 0.633132 -0.820987 0
M  V30 24 C -0.286624 -2.740940 1.971776 0
M  V30 25 C 0.941828 -3.443669 1.436517 0
M  V30 26 C 0.915392 -4.309807 0.425836 0
M  V30 27 C 2.057726 -5.018974 -0.130771 0
M  V30 28 C 3.048939 -5.736210 0.503008 0
M  V30 29 C 4.093449 -6.310671 -0.185233 0
M  V30 30 C 4.209042 -6.202626 -1.554074 0
M  V30 31 C 3.213239 -5.486686 -2.167856 0
M  V30 32 C 2.138968 -4.886493 -1.526429 0
M  V30 33 C 1.142603 -4.146158 -2.368785 0
M  V30 34 F 1.508717 -4.168476 -3.699140 0
M  V30 35 F 0.983533 -2.902471 -1.842065 0
M  V30 36 F -0.097478 -4.804878 -2.299646 0
M  V30 37 H -1.279671 -0.599267 3.744746 0
M  V30 38 H -0.789192 -2.120952 4.640281 0
M  V30 39 H 1.298287 -0.828775 4.842928 0
M  V30 40 H 1.488769 0.120134 2.715815 0
M  V30 41 H 1.531417 -0.943812 1.215722 0
M  V30 42 H 0.226587 3.004281 -0.580155 0
M  V30 43 H -0.963912 4.908263 -0.376345 0
M  V30 44 H -2.113283 6.545026 0.927749 0
M  V30 45 H -3.121547 5.831663 3.106212 0
M  V30 46 H -2.886307 3.439515 3.832745 0
M  V30 47 H -1.660610 1.798322 2.394792 0
M  V30 48 H -1.065641 3.378213 -2.467336 0
M  V30 49 H -2.581106 2.512415 -4.194606 0
M  V30 50 H -3.815474 0.390202 -3.683824 0
M  V30 51 H -3.560321 -0.787738 -1.607260 0
M  V30 52 H -2.017725 0.107813 0.129951 0
M  V30 53 H -0.913559 -2.333116 1.182064 0
M  V30 54 H -0.856792 -3.408763 2.664726 0
M  V30 55 H -0.063143 -4.516019 -0.037345 0
M  V30 56 H 2.932268 -5.823652 1.572767 0
M  V30 57 H 4.822718 -6.853252 0.396223 0
M  V30 58 H 5.017765 -6.645586 -2.105816 0
M  V30 59 H 3.282705 -5.388419 -3.258400 0
M  V30 END ATOM
M  V30 BEGIN BOND
M  V30 1 2 1 2
M  V30 2 1 2 3
M  V30 3 1 3 4
M  V30 4 1 4 5
M  V30 5 1 5 6
M  V30 6 1 4 7
M  V30 7 1 7 8
M  V30 8 1 8 9
M  V30 9 2 9 10
M  V30 10 1 9 11
M  V30 11 1 11 12
M  V30 12 2 12 13
M  V30 13 1 13 14
M  V30 14 2 14 15
M  V30 15 1 15 16
M  V30 16 2 16 17
M  V30 17 1 11 18
M  V30 18 2 18 19
M  V30 19 1 19 20
M  V30 20 2 20 21
M  V30 21 1 21 22
M  V30 22 2 22 23
M  V30 23 1 4 24
M  V30 24 1 24 25
M  V30 25 2 25 26
M  V30 26 1 26 27
M  V30 27 2 27 28
M  V30 28 1 28 29
M  V30 29 2 29 30
M  V30 30 1 30 31
M  V30 31 2 31 32
M  V30 32 1 32 33
M  V30 33 1 33 34
M  V30 34 1 33 35
M  V30 35 1 33 36
M  V30 36 1 25 2
M  V30 37 1 32 27
M  V30 38 1 17 12
M  V30 39 1 23 18
M  V30 40 1 5 37
M  V30 41 1 5 38
M  V30 42 1 6 39
M  V30 43 1 7 40
M  V30 44 1 7 41
M  V30 45 1 11 42
M  V30 46 1 13 43
M  V30 47 1 14 44
M  V30 48 1 15 45
M  V30 49 1 16 46
M  V30 50 1 17 47
M  V30 51 1 19 48
M  V30 52 1 20 49
M  V30 53 1 21 50
M  V30 54 1 22 51
M  V30 55 1 23 52
M  V30 56 1 24 53
M  V30 57 1 24 54
M  V30 58 1 26 55
M  V30 59 1 28 56
M  V30 60 1 29 57
M  V30 61 1 30 58
M  V30 62 1 31 59
M  V30 END BOND
M  V30 END CTAB
M  END
>  <Dataset>  (261) 
ChEMBL_Kinases

>  <Ligand_Instance>  (261) 
nan

>  <PDB_ID>  (261) 
nan

>  <Standardized_SMILES>  (261) 
O=C1OC(CO)(COC(=O)C(c2ccccc2)c2ccccc2)C/C1=C/c1ccccc1C(F)(F)F

>  <Name>  (261) 
nan

>  <Pocket>  (261) 
nan

>  <ATP_Site>  (261) 
nan

>  <Peripheral>  (261) 
nan

>  <Num_H_Atoms_ProtBoundConf>  (261) 
nan

>  <Num_Resolved_Atoms>  (261) 
nan

>  <Num_Not_Resolved_Atoms>  (261) 
nan

$$$$
CHEMBL3911761
     RDKit          3D

  0  0  0  0  0  0  0  0  0  0999 V3000
M  V30 BEGIN CTAB
M  V30 COUNTS 48 52 0 0 0
M  V30 BEGIN ATOM
M  V30 1 N 0.391520 -8.141336 -0.434573 0
M  V30 2 C 1.667532 -7.610158 -0.127806 0
M  V30 3 O 2.611861 -8.384490 0.089485 0
M  V30 4 C 1.811503 -6.161093 -0.081799 0
M  V30 5 C 3.030129 -5.582372 0.205257 0
M  V30 6 C 3.265326 -4.225741 0.272051 0
M  V30 7 C 2.163662 -3.400242 0.024918 0
M  V30 8 N 2.104004 -2.043730 0.023447 0
M  V30 9 C 0.825774 -1.729990 -0.269277 0
M  V30 10 C 0.316906 -0.365595 -0.374826 0
M  V30 11 C 1.177788 0.694128 -0.166766 0
M  V30 12 C 0.682574 1.980915 -0.270282 0
M  V30 13 C -0.636711 2.248932 -0.572998 0
M  V30 14 S -1.332954 3.835846 -0.721291 0
M  V30 15 O -0.324258 4.837326 -1.191352 0
M  V30 16 O -2.461271 3.831385 -1.728314 0
M  V30 17 N -1.953928 4.431897 0.782028 0
M  V30 18 C -0.862017 4.532423 1.726472 0
M  V30 19 C -0.869155 3.245675 2.463064 0
M  V30 20 C 0.143943 2.697083 3.238602 0
M  V30 21 C -0.116964 1.472751 3.824183 0
M  V30 22 C -1.326579 0.834845 3.641746 0
M  V30 23 C -2.308284 1.424067 2.857109 0
M  V30 24 C -2.097957 2.644651 2.250693 0
M  V30 25 C -2.921123 3.528493 1.368430 0
M  V30 26 C -1.486709 1.167344 -0.778719 0
M  V30 27 C -1.013801 -0.138791 -0.680530 0
M  V30 28 N 0.101990 -2.853428 -0.446827 0
M  V30 29 C 0.915296 -3.935967 -0.268636 0
M  V30 30 C 0.754221 -5.316502 -0.318524 0
M  V30 31 H 0.073382 -8.709092 0.403633 0
M  V30 32 H -0.527922 -8.460254 -0.789747 0
M  V30 33 H 3.816363 -6.333631 0.379706 0
M  V30 34 H 4.254913 -3.855692 0.504169 0
M  V30 35 H 2.880839 -1.382112 0.209101 0
M  V30 36 H 2.226015 0.581191 0.074683 0
M  V30 37 H 1.303946 2.833395 -0.119291 0
M  V30 38 H 0.115651 4.705671 1.279214 0
M  V30 39 H -1.127397 5.337020 2.465063 0
M  V30 40 H 1.092856 3.233350 3.361241 0
M  V30 41 H 0.655954 1.023058 4.433760 0
M  V30 42 H -1.560709 -0.122667 4.086010 0
M  V30 43 H -3.275561 0.924139 2.705262 0
M  V30 44 H -3.673056 4.080409 1.972547 0
M  V30 45 H -3.368183 2.880714 0.594578 0
M  V30 46 H -2.549386 1.307470 -1.023303 0
M  V30 47 H -1.622745 -1.024586 -0.828836 0
M  V30 48 H -0.223252 -5.703922 -0.548030 0
M  V30 END ATOM
M  V30 BEGIN BOND
M  V30 1 1 1 2
M  V30 2 2 2 3
M  V30 3 1 2 4
M  V30 4 2 4 5
M  V30 5 1 5 6
M  V30 6 2 6 7
M  V30 7 1 7 8
M  V30 8 1 8 9
M  V30 9 1 9 10
M  V30 10 2 10 11
M  V30 11 1 11 12
M  V30 12 2 12 13
M  V30 13 1 13 14
M  V30 14 2 14 15
M  V30 15 2 14 16
M  V30 16 1 14 17
M  V30 17 1 17 18
M  V30 18 1 18 19
M  V30 19 2 19 20
M  V30 20 1 20 21
M  V30 21 2 21 22
M  V30 22 1 22 23
M  V30 23 2 23 24
M  V30 24 1 24 25
M  V30 25 1 13 26
M  V30 26 2 26 27
M  V30 27 2 9 28
M  V30 28 1 28 29
M  V30 29 2 29 30
M  V30 30 1 30 4
M  V30 31 1 29 7
M  V30 32 1 27 10
M  V30 33 1 25 17
M  V30 34 1 24 19
M  V30 35 1 1 31
M  V30 36 1 1 32
M  V30 37 1 5 33
M  V30 38 1 6 34
M  V30 39 1 8 35
M  V30 40 1 11 36
M  V30 41 1 12 37
M  V30 42 1 18 38
M  V30 43 1 18 39
M  V30 44 1 20 40
M  V30 45 1 21 41
M  V30 46 1 22 42
M  V30 47 1 23 43
M  V30 48 1 25 44
M  V30 49 1 25 45
M  V30 50 1 26 46
M  V30 51 1 27 47
M  V30 52 1 30 48
M  V30 END BOND
M  V30 END CTAB
M  END
>  <Dataset>  (262) 
ChEMBL_Kinases

>  <Ligand_Instance>  (262) 
nan

>  <PDB_ID>  (262) 
nan

>  <Standardized_SMILES>  (262) 
NC(=O)c1ccc2[nH]c(-c3ccc(S(=O)(=O)N4Cc5ccccc5C4)cc3)nc2c1

>  <Name>  (262) 
nan

>  <Pocket>  (262) 
nan

>  <ATP_Site>  (262) 
nan

>  <Peripheral>  (262) 
nan

>  <Num_H_Atoms_ProtBoundConf>  (262) 
nan

>  <Num_Resolved_Atoms>  (262) 
nan

>  <Num_Not_Resolved_Atoms>  (262) 
nan

$$$$
CHEMBL488020
     RDKit          3D

  0  0  0  0  0  0  0  0  0  0999 V3000
M  V30 BEGIN CTAB
M  V30 COUNTS 59 62 0 0 0
M  V30 BEGIN ATOM
M  V30 1 O 3.588135 -3.520067 2.032731 0
M  V30 2 C 2.656672 -2.635822 2.032928 0
M  V30 3 O 2.385495 -1.470841 2.732344 0
M  V30 4 C 1.076044 -1.064972 2.465847 0
M  V30 5 C 0.350757 -0.619583 3.716973 0
M  V30 6 O 1.042819 0.455271 4.267803 0
M  V30 7 C 1.041137 0.102418 1.484882 0
M  V30 8 O -0.335173 0.447677 1.257203 0
M  V30 9 C -0.674155 1.473018 0.407542 0
M  V30 10 O 0.539306 1.708260 0.157025 0
M  V30 11 C -1.943922 2.042787 -0.018585 0
M  V30 12 C -2.706969 2.563993 1.124083 0
M  V30 13 C -3.355006 3.799465 1.010243 0
M  V30 14 C -4.092050 4.374797 2.006514 0
M  V30 15 C -4.216030 3.703983 3.215699 0
M  V30 16 C -3.598534 2.476933 3.391654 0
M  V30 17 C -2.874128 1.966575 2.337121 0
M  V30 18 C -2.778201 1.118728 -0.839428 0
M  V30 19 C -2.838818 -0.241879 -0.621889 0
M  V30 20 C -3.619709 -1.078107 -1.397214 0
M  V30 21 C -4.381183 -0.574843 -2.435536 0
M  V30 22 C -4.343174 0.781149 -2.679640 0
M  V30 23 C -3.557398 1.583489 -1.891318 0
M  V30 24 C 0.383266 -2.228296 1.798109 0
M  V30 25 C 1.559005 -2.838026 1.075592 0
M  V30 26 C 1.622629 -3.403813 -0.109547 0
M  V30 27 C 2.818194 -3.952471 -0.726744 0
M  V30 28 C 2.609540 -5.198834 -1.329312 0
M  V30 29 C 3.618350 -5.880987 -1.982342 0
M  V30 30 C 4.889015 -5.348966 -2.065244 0
M  V30 31 C 5.085763 -4.118046 -1.467943 0
M  V30 32 C 6.436916 -3.501842 -1.530341 0
M  V30 33 F 6.243189 -2.148491 -1.769336 0
M  V30 34 F 7.126930 -3.673443 -0.339982 0
M  V30 35 F 7.136497 -4.019410 -2.591337 0
M  V30 36 C 4.086756 -3.434541 -0.817147 0
M  V30 37 H -0.663534 -0.287743 3.436718 0
M  V30 38 H 0.266392 -1.435036 4.461270 0
M  V30 39 H 1.524169 0.155556 5.084019 0
M  V30 40 H 1.631069 0.962253 1.856040 0
M  V30 41 H 1.408791 -0.301015 0.520576 0
M  V30 42 H -1.726360 2.906991 -0.720380 0
M  V30 43 H -3.256163 4.328742 0.052728 0
M  V30 44 H -4.576229 5.330347 1.875915 0
M  V30 45 H -4.783934 4.089972 4.060432 0
M  V30 46 H -3.676234 1.921320 4.334477 0
M  V30 47 H -2.407604 1.018421 2.490499 0
M  V30 48 H -2.247714 -0.653572 0.189037 0
M  V30 49 H -3.598489 -2.144086 -1.141975 0
M  V30 50 H -4.987111 -1.235358 -3.034704 0
M  V30 51 H -4.936373 1.211792 -3.496882 0
M  V30 52 H -3.556394 2.650516 -2.117936 0
M  V30 53 H -0.029961 -2.947528 2.550567 0
M  V30 54 H -0.358989 -1.850496 1.082469 0
M  V30 55 H 0.669760 -3.453309 -0.663210 0
M  V30 56 H 1.646295 -5.718906 -1.328091 0
M  V30 57 H 3.446938 -6.847157 -2.445866 0
M  V30 58 H 5.681092 -5.878673 -2.574504 0
M  V30 59 H 4.217486 -2.483233 -0.363060 0
M  V30 END ATOM
M  V30 BEGIN BOND
M  V30 1 2 1 2
M  V30 2 1 2 3
M  V30 3 1 3 4
M  V30 4 1 4 5
M  V30 5 1 5 6
M  V30 6 1 4 7
M  V30 7 1 7 8
M  V30 8 1 8 9
M  V30 9 2 9 10
M  V30 10 1 9 11
M  V30 11 1 11 12
M  V30 12 2 12 13
M  V30 13 1 13 14
M  V30 14 2 14 15
M  V30 15 1 15 16
M  V30 16 2 16 17
M  V30 17 1 11 18
M  V30 18 2 18 19
M  V30 19 1 19 20
M  V30 20 2 20 21
M  V30 21 1 21 22
M  V30 22 2 22 23
M  V30 23 1 4 24
M  V30 24 1 24 25
M  V30 25 2 25 26
M  V30 26 1 26 27
M  V30 27 2 27 28
M  V30 28 1 28 29
M  V30 29 2 29 30
M  V30 30 1 30 31
M  V30 31 1 31 32
M  V30 32 1 32 33
M  V30 33 1 32 34
M  V30 34 1 32 35
M  V30 35 2 31 36
M  V30 36 1 25 2
M  V30 37 1 36 27
M  V30 38 1 17 12
M  V30 39 1 23 18
M  V30 40 1 5 37
M  V30 41 1 5 38
M  V30 42 1 6 39
M  V30 43 1 7 40
M  V30 44 1 7 41
M  V30 45 1 11 42
M  V30 46 1 13 43
M  V30 47 1 14 44
M  V30 48 1 15 45
M  V30 49 1 16 46
M  V30 50 1 17 47
M  V30 51 1 19 48
M  V30 52 1 20 49
M  V30 53 1 21 50
M  V30 54 1 22 51
M  V30 55 1 23 52
M  V30 56 1 24 53
M  V30 57 1 24 54
M  V30 58 1 26 55
M  V30 59 1 28 56
M  V30 60 1 29 57
M  V30 61 1 30 58
M  V30 62 1 36 59
M  V30 END BOND
M  V30 END CTAB
M  END
>  <Dataset>  (263) 
ChEMBL_Kinases

>  <Ligand_Instance>  (263) 
nan

>  <PDB_ID>  (263) 
nan

>  <Standardized_SMILES>  (263) 
O=C1OC(CO)(COC(=O)C(c2ccccc2)c2ccccc2)C/C1=C/c1cccc(C(F)(F)F)c1

>  <Name>  (263) 
nan

>  <Pocket>  (263) 
nan

>  <ATP_Site>  (263) 
nan

>  <Peripheral>  (263) 
nan

>  <Num_H_Atoms_ProtBoundConf>  (263) 
nan

>  <Num_Resolved_Atoms>  (263) 
nan

>  <Num_Not_Resolved_Atoms>  (263) 
nan

$$$$
CHEMBL488054
     RDKit          3D

  0  0  0  0  0  0  0  0  0  0999 V3000
M  V30 BEGIN CTAB
M  V30 COUNTS 50 54 0 0 0
M  V30 BEGIN ATOM
M  V30 1 C 0.174358 2.373039 6.141274 0
M  V30 2 O 0.665459 1.844207 4.955420 0
M  V30 3 C 0.306913 0.520561 4.770992 0
M  V30 4 C 0.902480 0.056513 3.441817 0
M  V30 5 C 0.354053 0.911865 2.317724 0
M  V30 6 N 0.856590 0.551103 1.020130 0
M  V30 7 C 1.966036 1.023107 0.379248 0
M  V30 8 C 2.846540 1.966793 0.868328 0
M  V30 9 C 3.923383 2.349928 0.114826 0
M  V30 10 C 4.102883 1.766702 -1.145219 0
M  V30 11 O 5.190481 2.157649 -1.899259 0
M  V30 12 C 3.178015 0.834594 -1.555285 0
M  V30 13 C 2.090634 0.415874 -0.850223 0
M  V30 14 C 1.037448 -0.438339 -0.953861 0
M  V30 15 C 0.685117 -1.270814 -1.946991 0
M  V30 16 C -0.440845 -2.046100 -1.815956 0
M  V30 17 C -1.212975 -1.968422 -0.657858 0
M  V30 18 C -2.415777 -2.770872 -0.472718 0
M  V30 19 C -2.214539 -4.018266 0.127365 0
M  V30 20 C -3.237283 -4.880589 0.367030 0
M  V30 21 C -4.506469 -4.487635 -0.003802 0
M  V30 22 C -4.765728 -3.266971 -0.600424 0
M  V30 23 C -3.703261 -2.422535 -0.825930 0
M  V30 24 Cl -3.894086 -0.839614 -1.577696 0
M  V30 25 C -0.844470 -1.112460 0.355047 0
M  V30 26 C 0.290538 -0.345981 0.196600 0
M  V30 27 C -0.688302 -2.899356 -2.984328 0
M  V30 28 O -1.639765 -3.706425 -3.139963 0
M  V30 29 N 0.404649 -2.571711 -3.856453 0
M  V30 30 C 1.224807 -1.597850 -3.234622 0
M  V30 31 O 2.198950 -1.233608 -3.885347 0
M  V30 32 H -0.936721 2.323758 6.150690 0
M  V30 33 H 0.521401 1.761846 7.002165 0
M  V30 34 H 0.556580 3.402993 6.240101 0
M  V30 35 H 0.571037 -0.143399 5.592331 0
M  V30 36 H -0.809293 0.533210 4.652676 0
M  V30 37 H 0.727574 -1.024702 3.264903 0
M  V30 38 H 1.997913 0.184329 3.557578 0
M  V30 39 H -0.736318 1.033892 2.377812 0
M  V30 40 H 0.763443 1.945222 2.515567 0
M  V30 41 H 2.722414 2.417783 1.823264 0
M  V30 42 H 4.631358 3.085556 0.467483 0
M  V30 43 H 5.113925 2.888675 -2.598969 0
M  V30 44 H 3.381683 0.438555 -2.519162 0
M  V30 45 H -1.223271 -4.343867 0.425534 0
M  V30 46 H -3.086142 -5.849053 0.832162 0
M  V30 47 H -5.391415 -5.120596 0.151878 0
M  V30 48 H -5.760349 -2.964304 -0.888625 0
M  V30 49 H -1.430503 -1.037898 1.261382 0
M  V30 50 H 0.452372 -3.067823 -4.789368 0
M  V30 END ATOM
M  V30 BEGIN BOND
M  V30 1 1 1 2
M  V30 2 1 2 3
M  V30 3 1 3 4
M  V30 4 1 4 5
M  V30 5 1 5 6
M  V30 6 1 6 7
M  V30 7 2 7 8
M  V30 8 1 8 9
M  V30 9 2 9 10
M  V30 10 1 10 11
M  V30 11 1 10 12
M  V30 12 2 12 13
M  V30 13 1 13 14
M  V30 14 2 14 15
M  V30 15 1 15 16
M  V30 16 2 16 17
M  V30 17 1 17 18
M  V30 18 2 18 19
M  V30 19 1 19 20
M  V30 20 2 20 21
M  V30 21 1 21 22
M  V30 22 2 22 23
M  V30 23 1 23 24
M  V30 24 1 17 25
M  V30 25 2 25 26
M  V30 26 1 16 27
M  V30 27 2 27 28
M  V30 28 1 27 29
M  V30 29 1 29 30
M  V30 30 2 30 31
M  V30 31 1 26 6
M  V30 32 1 13 7
M  V30 33 1 26 14
M  V30 34 1 30 15
M  V30 35 1 23 18
M  V30 36 1 1 32
M  V30 37 1 1 33
M  V30 38 1 1 34
M  V30 39 1 3 35
M  V30 40 1 3 36
M  V30 41 1 4 37
M  V30 42 1 4 38
M  V30 43 1 5 39
M  V30 44 1 5 40
M  V30 45 1 8 41
M  V30 46 1 9 42
M  V30 47 1 11 43
M  V30 48 1 12 44
M  V30 49 1 19 45
M  V30 50 1 20 46
M  V30 51 1 21 47
M  V30 52 1 22 48
M  V30 53 1 25 49
M  V30 54 1 29 50
M  V30 END BOND
M  V30 END CTAB
M  END
>  <Dataset>  (264) 
ChEMBL_Kinases

>  <Ligand_Instance>  (264) 
nan

>  <PDB_ID>  (264) 
nan

>  <Standardized_SMILES>  (264) 
COCCCn1c2ccc(O)cc2c2c3c(c(-c4ccccc4Cl)cc21)C(=O)NC3=O

>  <Name>  (264) 
nan

>  <Pocket>  (264) 
nan

>  <ATP_Site>  (264) 
nan

>  <Peripheral>  (264) 
nan

>  <Num_H_Atoms_ProtBoundConf>  (264) 
nan

>  <Num_Resolved_Atoms>  (264) 
nan

>  <Num_Not_Resolved_Atoms>  (264) 
nan

$$$$
CHEMBL3885321
     RDKit          3D

  0  0  0  0  0  0  0  0  0  0999 V3000
M  V30 BEGIN CTAB
M  V30 COUNTS 48 51 0 0 0
M  V30 BEGIN ATOM
M  V30 1 C 2.150765 -2.591342 1.179060 0
M  V30 2 C 1.785552 -1.453862 0.224647 0 CFG=2
M  V30 3 C 3.025906 -0.908396 -0.321770 0
M  V30 4 C 2.790573 0.331553 -0.929383 0
M  V30 5 C 3.825345 1.058440 -1.530968 0
M  V30 6 C 5.092398 0.517514 -1.509342 0
M  V30 7 F 6.150104 1.157771 -2.070381 0
M  V30 8 C 5.357476 -0.700497 -0.919473 0
M  V30 9 C 4.321618 -1.391415 -0.336831 0
M  V30 10 N 0.996894 -0.498414 0.960940 0
M  V30 11 C 1.564326 0.251214 2.028356 0
M  V30 12 O 2.689396 0.303451 2.544248 0
M  V30 13 C 0.521669 1.152711 2.610457 0
M  V30 14 C 0.943960 2.577119 2.480251 0
M  V30 15 C 0.322127 0.694302 4.040059 0
M  V30 16 C -0.686189 0.844602 1.769760 0
M  V30 17 C -1.963108 1.345428 1.806957 0
M  V30 18 N -2.896042 0.891276 0.920363 0
M  V30 19 C -2.551396 -0.056351 0.004952 0
M  V30 20 N -3.526825 -0.546277 -0.933815 0
M  V30 21 C -4.295863 -1.700814 -0.597685 0
M  V30 22 C -4.047891 -2.300659 0.618944 0
M  V30 23 C -4.776350 -3.421546 0.969490 0
M  V30 24 C -5.709304 -3.832137 0.023527 0
M  V30 25 N -5.945403 -3.242656 -1.159886 0
M  V30 26 C -5.234874 -2.150949 -1.499643 0
M  V30 27 N -1.299557 -0.552245 -0.037084 0
M  V30 28 C -0.359146 -0.122950 0.824894 0
M  V30 29 H 2.704476 -3.381802 0.619927 0
M  V30 30 H 2.738337 -2.201148 2.032800 0
M  V30 31 H 1.211587 -3.015042 1.602117 0
M  V30 32 H 1.177494 -1.937173 -0.569906 0
M  V30 33 H 1.838811 0.860292 -1.010280 0
M  V30 34 H 3.689796 2.013309 -2.008978 0
M  V30 35 H 6.305269 -1.209246 -0.848077 0
M  V30 36 H 4.390526 -2.347529 0.156427 0
M  V30 37 H 1.490446 2.905959 3.400891 0
M  V30 38 H 1.616780 2.729361 1.593190 0
M  V30 39 H 0.022525 3.206764 2.324455 0
M  V30 40 H 0.981701 -0.149832 4.326297 0
M  V30 41 H -0.714088 0.317387 4.230599 0
M  V30 42 H 0.548807 1.517887 4.748507 0
M  V30 43 H -2.252373 2.105568 2.535695 0
M  V30 44 H -3.645212 -0.036667 -1.844294 0
M  V30 45 H -3.296072 -1.927201 1.322771 0
M  V30 46 H -4.649037 -3.955728 1.900594 0
M  V30 47 H -6.304083 -4.706629 0.253900 0
M  V30 48 H -5.357830 -1.610613 -2.432558 0
M  V30 END ATOM
M  V30 BEGIN BOND
M  V30 1 1 1 2
M  V30 2 1 2 3
M  V30 3 2 3 4
M  V30 4 1 4 5
M  V30 5 2 5 6
M  V30 6 1 6 7
M  V30 7 1 6 8
M  V30 8 2 8 9
M  V30 9 1 2 10
M  V30 10 1 10 11
M  V30 11 2 11 12
M  V30 12 1 11 13
M  V30 13 1 13 14
M  V30 14 1 13 15
M  V30 15 1 13 16
M  V30 16 2 16 17
M  V30 17 1 17 18
M  V30 18 2 18 19
M  V30 19 1 19 20
M  V30 20 1 20 21
M  V30 21 2 21 22
M  V30 22 1 22 23
M  V30 23 2 23 24
M  V30 24 1 24 25
M  V30 25 2 25 26
M  V30 26 1 19 27
M  V30 27 2 27 28
M  V30 28 1 9 3
M  V30 29 1 28 10
M  V30 30 1 28 16
M  V30 31 1 26 21
M  V30 32 1 1 29
M  V30 33 1 1 30
M  V30 34 1 1 31
M  V30 35 1 2 32 CFG=3
M  V30 36 1 4 33
M  V30 37 1 5 34
M  V30 38 1 8 35
M  V30 39 1 9 36
M  V30 40 1 14 37
M  V30 41 1 14 38
M  V30 42 1 14 39
M  V30 43 1 15 40
M  V30 44 1 15 41
M  V30 45 1 15 42
M  V30 46 1 17 43
M  V30 47 1 20 44
M  V30 48 1 22 45
M  V30 49 1 23 46
M  V30 50 1 24 47
M  V30 51 1 26 48
M  V30 END BOND
M  V30 END CTAB
M  END
>  <Dataset>  (265) 
ChEMBL_Kinases

>  <Ligand_Instance>  (265) 
nan

>  <PDB_ID>  (265) 
nan

>  <Standardized_SMILES>  (265) 
C[C@H](c1ccc(F)cc1)N1C(=O)C(C)(C)c2cnc(Nc3cccnc3)nc21

>  <Name>  (265) 
nan

>  <Pocket>  (265) 
nan

>  <ATP_Site>  (265) 
nan

>  <Peripheral>  (265) 
nan

>  <Num_H_Atoms_ProtBoundConf>  (265) 
nan

>  <Num_Resolved_Atoms>  (265) 
nan

>  <Num_Not_Resolved_Atoms>  (265) 
nan

$$$$
CHEMBL600028
     RDKit          3D

  0  0  0  0  0  0  0  0  0  0999 V3000
M  V30 BEGIN CTAB
M  V30 COUNTS 66 72 0 0 0
M  V30 BEGIN ATOM
M  V30 1 N 7.556258 -0.093241 -0.031912 0
M  V30 2 C 6.676719 -0.737877 -0.929803 0
M  V30 3 O 7.215571 -1.178535 -1.967773 0
M  V30 4 C 5.253605 -0.867567 -0.647884 0
M  V30 5 N 4.658308 -0.400440 0.491446 0
M  V30 6 N 3.372043 -0.663809 0.455855 0
M  V30 7 C 2.529998 -0.279113 1.527052 0
M  V30 8 C 2.015202 1.011551 1.347728 0
M  V30 9 C 1.182208 1.572437 2.293832 0
M  V30 10 C 0.830206 0.885545 3.441008 0
M  V30 11 C 1.345792 -0.378695 3.597261 0
M  V30 12 C 2.173121 -0.971719 2.686711 0
M  V30 13 O 0.884651 -0.909806 4.802062 0
M  V30 14 C 0.369483 0.205503 5.529293 0
M  V30 15 O 0.033391 1.169332 4.550697 0
M  V30 16 C 3.110377 -1.297395 -0.689836 0
M  V30 17 C 4.263361 -1.450968 -1.421584 0
M  V30 18 C 4.500667 -2.080712 -2.740878 0
M  V30 19 C 3.232684 -2.613507 -3.341463 0
M  V30 20 C 2.046077 -2.418192 -2.510954 0
M  V30 21 C 0.896311 -2.924475 -3.087787 0
M  V30 22 C -0.337500 -2.822451 -2.430487 0
M  V30 23 C -0.445585 -2.207392 -1.174460 0
M  V30 24 N -1.774769 -2.184126 -0.640087 0
M  V30 25 C -2.827705 -1.226277 -0.749741 0
M  V30 26 O -2.593122 -0.187269 -1.433654 0
M  V30 27 C -4.009570 -1.665988 -0.017033 0
M  V30 28 C -4.559856 -2.913322 -0.185805 0
M  V30 29 C -5.673079 -3.310025 0.509666 0
M  V30 30 C -6.251264 -2.422361 1.404112 0
M  V30 31 N -5.684935 -1.223276 1.536538 0
M  V30 32 C -4.603419 -0.801983 0.878375 0
M  V30 33 N -4.132081 0.513436 1.148284 0
M  V30 34 C -2.816148 0.812065 1.700921 0
M  V30 35 C -2.669339 2.320215 1.738098 0
M  V30 36 O -3.862860 2.819236 2.265877 0
M  V30 37 C -4.759147 2.858797 1.204969 0
M  V30 38 C -5.180995 1.463970 0.778023 0
M  V30 39 C 0.709878 -1.705842 -0.608882 0
M  V30 40 C 1.898275 -1.825786 -1.284689 0
M  V30 41 H 7.880579 0.391212 0.820364 0
M  V30 42 H 7.837149 0.387874 0.835850 0
M  V30 43 H 2.204923 1.661852 0.502959 0
M  V30 44 H 0.756961 2.573041 2.200497 0
M  V30 45 H 2.626114 -1.952520 2.718625 0
M  V30 46 H -0.520383 -0.111424 6.088227 0
M  V30 47 H 1.165356 0.623037 6.163950 0
M  V30 48 H 5.230426 -2.920853 -2.651283 0
M  V30 49 H 4.925962 -1.296197 -3.437429 0
M  V30 50 H 3.369761 -3.674404 -3.658814 0
M  V30 51 H 3.059288 -2.043856 -4.306295 0
M  V30 52 H 0.856216 -3.425494 -4.064931 0
M  V30 53 H -1.224968 -3.230786 -2.910610 0
M  V30 54 H -1.786876 -3.093318 -0.119345 0
M  V30 55 H -4.099742 -3.598128 -0.886013 0
M  V30 56 H -6.079487 -4.286627 0.358880 0
M  V30 57 H -7.144341 -2.700450 1.981257 0
M  V30 58 H -1.995153 0.292421 1.204009 0
M  V30 59 H -2.870061 0.495143 2.783544 0
M  V30 60 H -1.803351 2.549278 2.378709 0
M  V30 61 H -2.552344 2.720189 0.714870 0
M  V30 62 H -4.278090 3.354481 0.326203 0
M  V30 63 H -5.659784 3.423983 1.528170 0
M  V30 64 H -6.120064 1.185535 1.317314 0
M  V30 65 H -5.372137 1.484941 -0.299593 0
M  V30 66 H 0.578017 -1.253169 0.335023 0
M  V30 END ATOM
M  V30 BEGIN BOND
M  V30 1 1 1 2
M  V30 2 2 2 3
M  V30 3 1 2 4
M  V30 4 2 4 5
M  V30 5 1 5 6
M  V30 6 1 6 7
M  V30 7 2 7 8
M  V30 8 1 8 9
M  V30 9 2 9 10
M  V30 10 1 10 11
M  V30 11 2 11 12
M  V30 12 1 11 13
M  V30 13 1 13 14
M  V30 14 1 14 15
M  V30 15 1 6 16
M  V30 16 2 16 17
M  V30 17 1 17 18
M  V30 18 1 18 19
M  V30 19 1 19 20
M  V30 20 2 20 21
M  V30 21 1 21 22
M  V30 22 2 22 23
M  V30 23 1 23 24
M  V30 24 1 24 25
M  V30 25 2 25 26
M  V30 26 1 25 27
M  V30 27 2 27 28
M  V30 28 1 28 29
M  V30 29 2 29 30
M  V30 30 1 30 31
M  V30 31 2 31 32
M  V30 32 1 32 33
M  V30 33 1 33 34
M  V30 34 1 34 35
M  V30 35 1 35 36
M  V30 36 1 36 37
M  V30 37 1 37 38
M  V30 38 1 23 39
M  V30 39 2 39 40
M  V30 40 1 17 4
M  V30 41 1 40 20
M  V30 42 1 12 7
M  V30 43 1 40 16
M  V30 44 1 15 10
M  V30 45 1 32 27
M  V30 46 1 38 33
M  V30 47 1 1 41
M  V30 48 1 1 42
M  V30 49 1 8 43
M  V30 50 1 9 44
M  V30 51 1 12 45
M  V30 52 1 14 46
M  V30 53 1 14 47
M  V30 54 1 18 48
M  V30 55 1 18 49
M  V30 56 1 19 50
M  V30 57 1 19 51
M  V30 58 1 21 52
M  V30 59 1 22 53
M  V30 60 1 24 54
M  V30 61 1 28 55
M  V30 62 1 29 56
M  V30 63 1 30 57
M  V30 64 1 34 58
M  V30 65 1 34 59
M  V30 66 1 35 60
M  V30 67 1 35 61
M  V30 68 1 37 62
M  V30 69 1 37 63
M  V30 70 1 38 64
M  V30 71 1 38 65
M  V30 72 1 39 66
M  V30 END BOND
M  V30 END CTAB
M  END
>  <Dataset>  (266) 
ChEMBL_Kinases

>  <Ligand_Instance>  (266) 
nan

>  <PDB_ID>  (266) 
nan

>  <Standardized_SMILES>  (266) 
NC(=O)c1nn(-c2ccc3c(c2)OCO3)c2c1CCc1ccc(NC(=O)c3cccnc3N3CCOCC3)cc1-2

>  <Name>  (266) 
nan

>  <Pocket>  (266) 
nan

>  <ATP_Site>  (266) 
nan

>  <Peripheral>  (266) 
nan

>  <Num_H_Atoms_ProtBoundConf>  (266) 
nan

>  <Num_Resolved_Atoms>  (266) 
nan

>  <Num_Not_Resolved_Atoms>  (266) 
nan

$$$$
CHEMBL3911800
     RDKit          3D

  0  0  0  0  0  0  0  0  0  0999 V3000
M  V30 BEGIN CTAB
M  V30 COUNTS 20 21 0 0 0
M  V30 BEGIN ATOM
M  V30 1 O -0.184718 -2.270128 4.405073 0
M  V30 2 C 0.353949 -1.401608 3.686427 0
M  V30 3 N 1.092685 -0.269580 4.120923 0
M  V30 4 C 1.514420 0.643171 3.131892 0
M  V30 5 O 2.172903 1.695155 3.326061 0
M  V30 6 C 1.134708 0.310057 1.764235 0
M  V30 7 C 1.301732 0.959987 0.621350 0
M  V30 8 C 0.781059 0.331516 -0.613016 0
M  V30 9 C 1.380549 0.150016 -1.830108 0
M  V30 10 C 0.679189 -0.456405 -2.848380 0
M  V30 11 N -0.591255 -0.866916 -2.638509 0
M  V30 12 C -1.222727 -0.714405 -1.471123 0
M  V30 13 C -0.530803 -0.105777 -0.437202 0
M  V30 14 S 0.356385 -1.323467 1.902213 0
M  V30 15 H 1.309897 -0.131776 5.140755 0
M  V30 16 H 1.813670 1.914347 0.670185 0
M  V30 17 H 2.397688 0.532006 -1.837111 0
M  V30 18 H 1.227373 -0.560501 -3.778634 0
M  V30 19 H -2.256618 -1.076338 -1.381052 0
M  V30 20 H -1.169988 -0.030474 0.459458 0
M  V30 END ATOM
M  V30 BEGIN BOND
M  V30 1 2 1 2
M  V30 2 1 2 3
M  V30 3 1 3 4
M  V30 4 2 4 5
M  V30 5 1 4 6
M  V30 6 2 6 7
M  V30 7 1 7 8
M  V30 8 2 8 9
M  V30 9 1 9 10
M  V30 10 2 10 11
M  V30 11 1 11 12
M  V30 12 2 12 13
M  V30 13 1 6 14
M  V30 14 1 14 2
M  V30 15 1 13 8
M  V30 16 1 3 15
M  V30 17 1 7 16
M  V30 18 1 9 17
M  V30 19 1 10 18
M  V30 20 1 12 19
M  V30 21 1 13 20
M  V30 END BOND
M  V30 END CTAB
M  END
>  <Dataset>  (267) 
ChEMBL_Kinases

>  <Ligand_Instance>  (267) 
nan

>  <PDB_ID>  (267) 
nan

>  <Standardized_SMILES>  (267) 
O=C1NC(=O)/C(=C/c2ccncc2)S1

>  <Name>  (267) 
nan

>  <Pocket>  (267) 
nan

>  <ATP_Site>  (267) 
nan

>  <Peripheral>  (267) 
nan

>  <Num_H_Atoms_ProtBoundConf>  (267) 
nan

>  <Num_Resolved_Atoms>  (267) 
nan

>  <Num_Not_Resolved_Atoms>  (267) 
nan

$$$$
CHEMBL488498
     RDKit          3D

  0  0  0  0  0  0  0  0  0  0999 V3000
M  V30 BEGIN CTAB
M  V30 COUNTS 54 55 0 0 0
M  V30 BEGIN ATOM
M  V30 1 C -0.304805 -2.192536 3.028924 0
M  V30 2 C 0.521901 -1.615711 1.882910 0
M  V30 3 C 1.736975 -0.966443 2.485200 0
M  V30 4 C 2.642214 -0.349698 1.465333 0
M  V30 5 C 3.872643 0.309887 2.050158 0
M  V30 6 C 4.729726 -0.638435 2.821709 0
M  V30 7 C 5.257432 -1.802751 2.048393 0
M  V30 8 C 1.896762 0.670089 0.682496 0
M  V30 9 O 2.163351 1.887217 0.781760 0
M  V30 10 O 0.866658 0.589134 -0.229145 0
M  V30 11 C 0.350071 1.777431 -0.807847 0
M  V30 12 C -0.721875 1.407444 -1.803584 0
M  V30 13 C -1.410867 2.638583 -2.286888 0
M  V30 14 O -1.978946 3.259736 -1.157238 0
M  V30 15 C -1.790314 0.510390 -1.207974 0
M  V30 16 C -1.344151 -0.821969 -1.619177 0
M  V30 17 C -1.856832 -2.049646 -1.474586 0
M  V30 18 C -3.108269 -2.328029 -0.802092 0
M  V30 19 C -4.339351 -1.730283 -0.906314 0
M  V30 20 C -5.470037 -2.052591 -0.198580 0
M  V30 21 C -5.340095 -3.085617 0.706196 0
M  V30 22 F -6.448331 -3.436433 1.433122 0
M  V30 23 C -4.149423 -3.744944 0.880816 0
M  V30 24 Br -4.083416 -5.163328 2.170508 0
M  V30 25 C -3.052933 -3.368513 0.136469 0
M  V30 26 C -0.062860 -0.677200 -2.328891 0
M  V30 27 O 0.833300 -1.553775 -2.466739 0
M  V30 28 O -0.084622 0.645253 -2.804091 0
M  V30 29 H -0.446738 -1.454589 3.853915 0
M  V30 30 H 0.145485 -3.119472 3.422916 0
M  V30 31 H -1.314306 -2.391963 2.593145 0
M  V30 32 H 0.761314 -2.461613 1.212902 0
M  V30 33 H -0.043908 -0.871771 1.317261 0
M  V30 34 H 1.349788 -0.180219 3.197809 0
M  V30 35 H 2.287625 -1.670029 3.159894 0
M  V30 36 H 3.003278 -1.125929 0.772315 0
M  V30 37 H 4.464883 0.660356 1.156714 0
M  V30 38 H 3.619171 1.174499 2.679442 0
M  V30 39 H 5.578411 -0.093710 3.308173 0
M  V30 40 H 4.134981 -1.047518 3.683236 0
M  V30 41 H 4.489284 -2.591329 1.895475 0
M  V30 42 H 6.039402 -2.293351 2.698900 0
M  V30 43 H 5.707284 -1.530326 1.080290 0
M  V30 44 H 1.168052 2.277705 -1.364406 0
M  V30 45 H -0.016242 2.490356 -0.038425 0
M  V30 46 H -2.203277 2.417148 -3.015321 0
M  V30 47 H -0.710540 3.374353 -2.727273 0
M  V30 48 H -2.694946 2.715786 -0.746735 0
M  V30 49 H -2.791003 0.767974 -1.541253 0
M  V30 50 H -1.709197 0.601478 -0.086739 0
M  V30 51 H -1.356615 -2.948202 -1.860844 0
M  V30 52 H -4.387055 -0.936533 -1.634699 0
M  V30 53 H -6.369701 -1.480890 -0.399467 0
M  V30 54 H -2.138378 -3.922925 0.310627 0
M  V30 END ATOM
M  V30 BEGIN BOND
M  V30 1 1 1 2
M  V30 2 1 2 3
M  V30 3 1 3 4
M  V30 4 1 4 5
M  V30 5 1 5 6
M  V30 6 1 6 7
M  V30 7 1 4 8
M  V30 8 2 8 9
M  V30 9 1 8 10
M  V30 10 1 10 11
M  V30 11 1 11 12
M  V30 12 1 12 13
M  V30 13 1 13 14
M  V30 14 1 12 15
M  V30 15 1 15 16
M  V30 16 2 16 17
M  V30 17 1 17 18
M  V30 18 2 18 19
M  V30 19 1 19 20
M  V30 20 2 20 21
M  V30 21 1 21 22
M  V30 22 1 21 23
M  V30 23 1 23 24
M  V30 24 2 23 25
M  V30 25 1 16 26
M  V30 26 2 26 27
M  V30 27 1 26 28
M  V30 28 1 28 12
M  V30 29 1 25 18
M  V30 30 1 1 29
M  V30 31 1 1 30
M  V30 32 1 1 31
M  V30 33 1 2 32
M  V30 34 1 2 33
M  V30 35 1 3 34
M  V30 36 1 3 35
M  V30 37 1 4 36
M  V30 38 1 5 37
M  V30 39 1 5 38
M  V30 40 1 6 39
M  V30 41 1 6 40
M  V30 42 1 7 41
M  V30 43 1 7 42
M  V30 44 1 7 43
M  V30 45 1 11 44
M  V30 46 1 11 45
M  V30 47 1 13 46
M  V30 48 1 13 47
M  V30 49 1 14 48
M  V30 50 1 15 49
M  V30 51 1 15 50
M  V30 52 1 17 51
M  V30 53 1 19 52
M  V30 54 1 20 53
M  V30 55 1 25 54
M  V30 END BOND
M  V30 END CTAB
M  END
>  <Dataset>  (268) 
ChEMBL_Kinases

>  <Ligand_Instance>  (268) 
nan

>  <PDB_ID>  (268) 
nan

>  <Standardized_SMILES>  (268) 
CCCC(CCC)C(=O)OCC1(CO)C/C(=C\c2ccc(F)c(Br)c2)C(=O)O1

>  <Name>  (268) 
nan

>  <Pocket>  (268) 
nan

>  <ATP_Site>  (268) 
nan

>  <Peripheral>  (268) 
nan

>  <Num_H_Atoms_ProtBoundConf>  (268) 
nan

>  <Num_Resolved_Atoms>  (268) 
nan

>  <Num_Not_Resolved_Atoms>  (268) 
nan

$$$$
CHEMBL599849
     RDKit          3D

  0  0  0  0  0  0  0  0  0  0999 V3000
M  V30 BEGIN CTAB
M  V30 COUNTS 48 51 0 0 0
M  V30 BEGIN ATOM
M  V30 1 N 0.311584 0.754857 3.866510 0
M  V30 2 C -0.165223 0.045393 2.661107 0
M  V30 3 C -0.082669 0.996444 1.560708 0
M  V30 4 O 0.425526 1.706996 2.501890 0
M  V30 5 N -0.313021 1.285701 0.218239 0
M  V30 6 C 0.071728 2.584047 -0.218971 0
M  V30 7 C 1.488254 2.924581 -0.082038 0
M  V30 8 C 1.951890 3.777563 0.922722 0
M  V30 9 C 3.310410 4.096165 1.036481 0
M  V30 10 C 4.233487 3.559811 0.136862 0
M  V30 11 Cl 5.922265 3.991182 0.323634 0
M  V30 12 C 3.801570 2.715676 -0.863195 0
M  V30 13 C 2.443844 2.423068 -0.943524 0
M  V30 14 Cl 1.898751 1.340246 -2.227403 0
M  V30 15 C 0.766302 -1.106397 2.366170 0
M  V30 16 C 0.282629 -1.937866 1.244644 0
M  V30 17 N -1.130952 -2.257433 1.248741 0
M  V30 18 C -1.636560 -3.469583 0.696298 0
M  V30 19 N -2.256859 -4.337075 1.543558 0
M  V30 20 C -2.757494 -5.522434 1.082102 0
M  V30 21 N -2.689224 -5.924021 -0.184235 0
M  V30 22 C -2.079452 -5.091019 -1.064715 0
M  V30 23 N -1.833208 -5.152582 -2.375610 0
M  V30 24 C -1.178078 -4.035215 -2.810002 0
M  V30 25 C -1.018568 -3.248124 -1.689064 0
M  V30 26 C -1.572040 -3.894664 -0.610485 0
M  V30 27 C -2.058578 -1.337435 1.827124 0
M  V30 28 C -1.508526 -0.528887 2.950894 0
M  V30 29 H 0.484473 0.076006 4.633954 0
M  V30 30 H -0.515639 1.319379 4.192077 0
M  V30 31 H -0.734124 0.392741 -0.089935 0
M  V30 32 H -0.280897 2.693751 -1.265809 0
M  V30 33 H -0.514649 3.334876 0.357036 0
M  V30 34 H 1.267455 4.218690 1.646388 0
M  V30 35 H 3.607574 4.772318 1.847601 0
M  V30 36 H 4.546263 2.335795 -1.520047 0
M  V30 37 H 0.857275 -1.713315 3.287499 0
M  V30 38 H 1.733848 -0.647361 2.069279 0
M  V30 39 H 0.887466 -2.904225 1.310000 0
M  V30 40 H 0.563532 -1.546537 0.250402 0
M  V30 41 H -3.244664 -6.198292 1.756504 0
M  V30 42 H -2.103305 -5.957407 -3.016004 0
M  V30 43 H -0.854704 -3.814839 -3.810891 0
M  V30 44 H -0.532064 -2.284822 -1.711688 0
M  V30 45 H -2.524006 -0.621555 1.109977 0
M  V30 46 H -2.892382 -1.959067 2.274009 0
M  V30 47 H -1.365600 -1.245994 3.810605 0
M  V30 48 H -2.269616 0.223651 3.245324 0
M  V30 END ATOM
M  V30 BEGIN BOND
M  V30 1 1 1 2
M  V30 2 1 2 3
M  V30 3 2 3 4
M  V30 4 1 3 5
M  V30 5 1 5 6
M  V30 6 1 6 7
M  V30 7 2 7 8
M  V30 8 1 8 9
M  V30 9 2 9 10
M  V30 10 1 10 11
M  V30 11 1 10 12
M  V30 12 2 12 13
M  V30 13 1 13 14
M  V30 14 1 2 15
M  V30 15 1 15 16
M  V30 16 1 16 17
M  V30 17 1 17 18
M  V30 18 2 18 19
M  V30 19 1 19 20
M  V30 20 2 20 21
M  V30 21 1 21 22
M  V30 22 1 22 23
M  V30 23 1 23 24
M  V30 24 2 24 25
M  V30 25 1 25 26
M  V30 26 1 17 27
M  V30 27 1 27 28
M  V30 28 1 28 2
M  V30 29 1 13 7
M  V30 30 1 26 18
M  V30 31 2 26 22
M  V30 32 1 1 29
M  V30 33 1 1 30
M  V30 34 1 5 31
M  V30 35 1 6 32
M  V30 36 1 6 33
M  V30 37 1 8 34
M  V30 38 1 9 35
M  V30 39 1 12 36
M  V30 40 1 15 37
M  V30 41 1 15 38
M  V30 42 1 16 39
M  V30 43 1 16 40
M  V30 44 1 20 41
M  V30 45 1 23 42
M  V30 46 1 24 43
M  V30 47 1 25 44
M  V30 48 1 27 45
M  V30 49 1 27 46
M  V30 50 1 28 47
M  V30 51 1 28 48
M  V30 END BOND
M  V30 END CTAB
M  END
>  <Dataset>  (269) 
ChEMBL_Kinases

>  <Ligand_Instance>  (269) 
nan

>  <PDB_ID>  (269) 
nan

>  <Standardized_SMILES>  (269) 
NC1(C(=O)NCc2ccc(Cl)cc2Cl)CCN(c2ncnc3[nH]ccc23)CC1

>  <Name>  (269) 
nan

>  <Pocket>  (269) 
nan

>  <ATP_Site>  (269) 
nan

>  <Peripheral>  (269) 
nan

>  <Num_H_Atoms_ProtBoundConf>  (269) 
nan

>  <Num_Resolved_Atoms>  (269) 
nan

>  <Num_Not_Resolved_Atoms>  (269) 
nan

$$$$
CHEMBL488500
     RDKit          3D

  0  0  0  0  0  0  0  0  0  0999 V3000
M  V30 BEGIN CTAB
M  V30 COUNTS 54 55 0 0 0
M  V30 BEGIN ATOM
M  V30 1 C -0.865838 -1.242622 4.836747 0
M  V30 2 C 0.468733 -1.497187 4.122807 0
M  V30 3 C 0.143342 -1.766670 2.691485 0
M  V30 4 C 1.377283 -2.050477 1.835889 0
M  V30 5 C 2.257945 -0.852651 1.886793 0
M  V30 6 C 3.530560 -0.991907 1.083372 0
M  V30 7 C 3.271806 -1.234021 -0.372857 0
M  V30 8 C 1.550976 0.375927 1.514546 0
M  V30 9 O 1.284009 1.464844 2.063302 0
M  V30 10 O 0.946064 0.586185 0.262863 0
M  V30 11 C 0.306789 1.802094 0.029823 0
M  V30 12 C -0.313566 1.972652 -1.314701 0
M  V30 13 C -1.023293 3.291806 -1.453484 0
M  V30 14 O -2.037152 3.369784 -0.495860 0
M  V30 15 C -1.304776 0.891538 -1.698592 0
M  V30 16 C -0.411384 -0.260347 -1.881107 0
M  V30 17 C -0.354108 -1.543946 -1.630389 0
M  V30 18 C -1.442539 -2.221062 -0.954406 0
M  V30 19 C -2.217250 -1.885605 0.110535 0
M  V30 20 C -3.235081 -2.595828 0.668530 0
M  V30 21 C -3.530740 -3.827441 0.083007 0
M  V30 22 Cl -4.831505 -4.775231 0.767302 0
M  V30 23 C -2.793031 -4.268276 -1.018937 0
M  V30 24 C -1.763649 -3.463208 -1.520792 0
M  V30 25 C 0.703800 0.438258 -2.557738 0
M  V30 26 O 1.624065 0.019536 -3.347565 0
M  V30 27 O 0.752914 1.822911 -2.271507 0
M  V30 28 H -0.783080 -1.482816 5.911012 0
M  V30 29 H -1.131309 -0.184551 4.680351 0
M  V30 30 H -1.656960 -1.862815 4.382976 0
M  V30 31 H 0.988475 -2.347130 4.610121 0
M  V30 32 H 1.043020 -0.551664 4.214012 0
M  V30 33 H -0.530960 -2.613841 2.559217 0
M  V30 34 H -0.374358 -0.844368 2.302971 0
M  V30 35 H 1.088149 -2.242369 0.784033 0
M  V30 36 H 1.861749 -2.975530 2.193996 0
M  V30 37 H 2.602781 -0.718878 2.949242 0
M  V30 38 H 4.046240 -0.011000 1.170979 0
M  V30 39 H 4.170945 -1.783477 1.507598 0
M  V30 40 H 2.955527 -0.296080 -0.902977 0
M  V30 41 H 4.277334 -1.462333 -0.833362 0
M  V30 42 H 2.628299 -2.089263 -0.598361 0
M  V30 43 H -0.510788 2.001392 0.785367 0
M  V30 44 H 1.057665 2.599058 0.259075 0
M  V30 45 H -0.345577 4.147915 -1.450862 0
M  V30 46 H -1.570067 3.340194 -2.439394 0
M  V30 47 H -2.745208 2.722946 -0.738916 0
M  V30 48 H -1.712436 1.192132 -2.702052 0
M  V30 49 H -2.083447 0.797606 -0.948215 0
M  V30 50 H 0.529635 -2.131385 -1.930137 0
M  V30 51 H -1.972373 -0.947941 0.554507 0
M  V30 52 H -3.763701 -2.211235 1.505839 0
M  V30 53 H -3.024221 -5.229977 -1.474839 0
M  V30 54 H -1.248750 -3.897096 -2.382545 0
M  V30 END ATOM
M  V30 BEGIN BOND
M  V30 1 1 1 2
M  V30 2 1 2 3
M  V30 3 1 3 4
M  V30 4 1 4 5
M  V30 5 1 5 6
M  V30 6 1 6 7
M  V30 7 1 5 8
M  V30 8 2 8 9
M  V30 9 1 8 10
M  V30 10 1 10 11
M  V30 11 1 11 12
M  V30 12 1 12 13
M  V30 13 1 13 14
M  V30 14 1 12 15
M  V30 15 1 15 16
M  V30 16 2 16 17
M  V30 17 1 17 18
M  V30 18 2 18 19
M  V30 19 1 19 20
M  V30 20 2 20 21
M  V30 21 1 21 22
M  V30 22 1 21 23
M  V30 23 2 23 24
M  V30 24 1 16 25
M  V30 25 2 25 26
M  V30 26 1 25 27
M  V30 27 1 27 12
M  V30 28 1 24 18
M  V30 29 1 1 28
M  V30 30 1 1 29
M  V30 31 1 1 30
M  V30 32 1 2 31
M  V30 33 1 2 32
M  V30 34 1 3 33
M  V30 35 1 3 34
M  V30 36 1 4 35
M  V30 37 1 4 36
M  V30 38 1 5 37
M  V30 39 1 6 38
M  V30 40 1 6 39
M  V30 41 1 7 40
M  V30 42 1 7 41
M  V30 43 1 7 42
M  V30 44 1 11 43
M  V30 45 1 11 44
M  V30 46 1 13 45
M  V30 47 1 13 46
M  V30 48 1 14 47
M  V30 49 1 15 48
M  V30 50 1 15 49
M  V30 51 1 17 50
M  V30 52 1 19 51
M  V30 53 1 20 52
M  V30 54 1 23 53
M  V30 55 1 24 54
M  V30 END BOND
M  V30 END CTAB
M  END
>  <Dataset>  (270) 
ChEMBL_Kinases

>  <Ligand_Instance>  (270) 
nan

>  <PDB_ID>  (270) 
nan

>  <Standardized_SMILES>  (270) 
CCCCC(CC)C(=O)OCC1(CO)C/C(=C\c2ccc(Cl)cc2)C(=O)O1

>  <Name>  (270) 
nan

>  <Pocket>  (270) 
nan

>  <ATP_Site>  (270) 
nan

>  <Peripheral>  (270) 
nan

>  <Num_H_Atoms_ProtBoundConf>  (270) 
nan

>  <Num_Resolved_Atoms>  (270) 
nan

>  <Num_Not_Resolved_Atoms>  (270) 
nan

$$$$
CHEMBL488509
     RDKit          3D

  0  0  0  0  0  0  0  0  0  0999 V3000
M  V30 BEGIN CTAB
M  V30 COUNTS 52 55 0 0 0
M  V30 BEGIN ATOM
M  V30 1 C 0.005569 -6.424745 2.825910 0
M  V30 2 O 1.271753 -6.140111 2.242829 0
M  V30 3 C 1.686870 -4.863038 1.949490 0
M  V30 4 C 2.925482 -4.664515 1.383231 0
M  V30 5 C 3.281492 -3.369646 1.113317 0
M  V30 6 C 2.456358 -2.315961 1.388012 0
M  V30 7 C 2.942670 -0.996411 1.030784 0
M  V30 8 O 4.089151 -0.882215 0.492532 0
M  V30 9 O 2.257719 0.208327 1.222577 0
M  V30 10 C 2.819035 1.442069 0.823154 0
M  V30 11 C 1.948503 2.608472 1.143725 0
M  V30 12 C 2.492934 3.889146 0.623046 0
M  V30 13 O 2.637618 3.825153 -0.766048 0
M  V30 14 C 0.486766 2.401038 0.686312 0
M  V30 15 C 0.064357 1.421419 1.726298 0
M  V30 16 C -0.993259 0.658975 1.552123 0
M  V30 17 C -1.928416 0.565152 0.449348 0
M  V30 18 C -2.377431 1.672901 -0.255023 0
M  V30 19 N -3.244286 1.531690 -1.271592 0
M  V30 20 C -3.722770 0.324060 -1.662687 0
M  V30 21 C -4.613622 0.243958 -2.711777 0
M  V30 22 C -5.081857 -1.005577 -3.077866 0
M  V30 23 C -4.659298 -2.154699 -2.398240 0
M  V30 24 C -3.761289 -2.063197 -1.343246 0
M  V30 25 C -3.294690 -0.794782 -0.981775 0
M  V30 26 C -2.403004 -0.699877 0.071648 0
M  V30 27 C 1.006368 1.526614 2.831037 0
M  V30 28 O 1.011709 0.696747 3.806534 0
M  V30 29 O 1.797198 2.658648 2.542255 0
M  V30 30 C 1.212085 -2.496417 1.957228 0
M  V30 31 C 0.812871 -3.799609 2.246758 0
M  V30 32 H -0.785373 -6.222964 2.045813 0
M  V30 33 H -0.181151 -5.820428 3.712137 0
M  V30 34 H -0.014746 -7.499941 3.113377 0
M  V30 35 H 3.529990 -5.515321 1.189777 0
M  V30 36 H 4.270272 -3.249773 0.664029 0
M  V30 37 H 3.755326 1.573306 1.444643 0
M  V30 38 H 3.029617 1.475792 -0.268377 0
M  V30 39 H 3.514220 4.004878 1.036590 0
M  V30 40 H 1.915595 4.778239 0.931350 0
M  V30 41 H 2.884940 4.757781 -1.068964 0
M  V30 42 H 0.481451 2.020124 -0.331282 0
M  V30 43 H 0.035588 3.396400 0.795462 0
M  V30 44 H -1.194067 -0.018765 2.391213 0
M  V30 45 H -2.053157 2.670682 -0.010290 0
M  V30 46 H -4.920832 1.168354 -3.218545 0
M  V30 47 H -5.790510 -1.037440 -3.915586 0
M  V30 48 H -5.086483 -3.076379 -2.764303 0
M  V30 49 H -3.461140 -2.955840 -0.845622 0
M  V30 50 H -2.098097 -1.630755 0.572389 0
M  V30 51 H 0.554301 -1.672519 2.177953 0
M  V30 52 H -0.147988 -4.045541 2.692029 0
M  V30 END ATOM
M  V30 BEGIN BOND
M  V30 1 1 1 2
M  V30 2 1 2 3
M  V30 3 2 3 4
M  V30 4 1 4 5
M  V30 5 2 5 6
M  V30 6 1 6 7
M  V30 7 2 7 8
M  V30 8 1 7 9
M  V30 9 1 9 10
M  V30 10 1 10 11
M  V30 11 1 11 12
M  V30 12 1 12 13
M  V30 13 1 11 14
M  V30 14 1 14 15
M  V30 15 2 15 16
M  V30 16 1 16 17
M  V30 17 2 17 18
M  V30 18 1 18 19
M  V30 19 2 19 20
M  V30 20 1 20 21
M  V30 21 2 21 22
M  V30 22 1 22 23
M  V30 23 2 23 24
M  V30 24 1 24 25
M  V30 25 2 25 26
M  V30 26 1 15 27
M  V30 27 2 27 28
M  V30 28 1 27 29
M  V30 29 1 6 30
M  V30 30 2 30 31
M  V30 31 1 31 3
M  V30 32 1 29 11
M  V30 33 1 26 17
M  V30 34 1 25 20
M  V30 35 1 1 32
M  V30 36 1 1 33
M  V30 37 1 1 34
M  V30 38 1 4 35
M  V30 39 1 5 36
M  V30 40 1 10 37
M  V30 41 1 10 38
M  V30 42 1 12 39
M  V30 43 1 12 40
M  V30 44 1 13 41
M  V30 45 1 14 42
M  V30 46 1 14 43
M  V30 47 1 16 44
M  V30 48 1 18 45
M  V30 49 1 21 46
M  V30 50 1 22 47
M  V30 51 1 23 48
M  V30 52 1 24 49
M  V30 53 1 26 50
M  V30 54 1 30 51
M  V30 55 1 31 52
M  V30 END BOND
M  V30 END CTAB
M  END
>  <Dataset>  (271) 
ChEMBL_Kinases

>  <Ligand_Instance>  (271) 
nan

>  <PDB_ID>  (271) 
nan

>  <Standardized_SMILES>  (271) 
COc1ccc(C(=O)OCC2(CO)C/C(=C\c3cnc4ccccc4c3)C(=O)O2)cc1

>  <Name>  (271) 
nan

>  <Pocket>  (271) 
nan

>  <ATP_Site>  (271) 
nan

>  <Peripheral>  (271) 
nan

>  <Num_H_Atoms_ProtBoundConf>  (271) 
nan

>  <Num_Resolved_Atoms>  (271) 
nan

>  <Num_Not_Resolved_Atoms>  (271) 
nan

$$$$
CHEMBL488571
     RDKit          3D

  0  0  0  0  0  0  0  0  0  0999 V3000
M  V30 BEGIN CTAB
M  V30 COUNTS 42 46 0 0 0
M  V30 BEGIN ATOM
M  V30 1 O 6.239568 -0.922785 -0.134031 0
M  V30 2 C 5.323958 -0.094329 0.109048 0
M  V30 3 N 5.464130 1.283650 0.470279 0
M  V30 4 C 4.168794 1.827538 0.647825 0
M  V30 5 O 4.113442 3.022412 0.965638 0
M  V30 6 C 3.165852 0.824054 0.407853 0
M  V30 7 C 3.881686 -0.303156 0.090881 0
M  V30 8 C 3.231876 -1.499901 -0.209421 0
M  V30 9 C 1.852529 -1.525493 -0.180380 0
M  V30 10 C 1.153146 -0.392513 0.138048 0
M  V30 11 C 1.806718 0.781792 0.431960 0
M  V30 12 C 0.906978 1.760649 0.714782 0
M  V30 13 C 0.869559 3.057872 1.059121 0
M  V30 14 C -0.281592 3.774318 1.278872 0
M  V30 15 O -0.341337 5.113815 1.634802 0
M  V30 16 C -1.523138 3.141999 1.143889 0
M  V30 17 C -1.513640 1.807932 0.790412 0
M  V30 18 C -0.322039 1.153127 0.585956 0
M  V30 19 N -0.162660 -0.144387 0.238424 0
M  V30 20 C -1.185283 -1.145430 0.001997 0
M  V30 21 C -1.441279 -1.807616 1.340648 0
M  V30 22 C -2.468080 -2.864691 1.284788 0
M  V30 23 O -3.700239 -2.628026 1.295886 0
M  V30 24 N -2.042710 -4.210309 1.215248 0
M  V30 25 C -2.792559 -5.337788 1.157315 0
M  V30 26 C -2.001742 -6.473415 1.098037 0
M  V30 27 N -0.735290 -6.014199 1.121077 0
M  V30 28 C -0.770073 -4.686630 1.189929 0
M  V30 29 H 6.431795 1.700738 0.556036 0
M  V30 30 H 3.773984 -2.402180 -0.462504 0
M  V30 31 H 1.369850 -2.473913 -0.418600 0
M  V30 32 H 1.738717 3.633606 1.188659 0
M  V30 33 H 0.135864 5.791520 1.062676 0
M  V30 34 H -2.453947 3.669877 1.307554 0
M  V30 35 H -2.461226 1.307914 0.682801 0
M  V30 36 H -0.950846 -1.862081 -0.784879 0
M  V30 37 H -2.104711 -0.593929 -0.278395 0
M  V30 38 H -1.785807 -1.036114 2.073473 0
M  V30 39 H -0.508036 -2.227049 1.786231 0
M  V30 40 H -3.880604 -5.271881 1.161056 0
M  V30 41 H -2.463673 -7.451509 1.047488 0
M  V30 42 H 0.126959 -4.076036 1.221234 0
M  V30 END ATOM
M  V30 BEGIN BOND
M  V30 1 2 1 2
M  V30 2 1 2 3
M  V30 3 1 3 4
M  V30 4 2 4 5
M  V30 5 1 4 6
M  V30 6 2 6 7
M  V30 7 1 7 8
M  V30 8 2 8 9
M  V30 9 1 9 10
M  V30 10 2 10 11
M  V30 11 1 11 12
M  V30 12 2 12 13
M  V30 13 1 13 14
M  V30 14 1 14 15
M  V30 15 2 14 16
M  V30 16 1 16 17
M  V30 17 2 17 18
M  V30 18 1 18 19
M  V30 19 1 19 20
M  V30 20 1 20 21
M  V30 21 1 21 22
M  V30 22 2 22 23
M  V30 23 1 22 24
M  V30 24 1 24 25
M  V30 25 2 25 26
M  V30 26 1 26 27
M  V30 27 2 27 28
M  V30 28 1 7 2
M  V30 29 1 19 10
M  V30 30 1 28 24
M  V30 31 1 11 6
M  V30 32 1 18 12
M  V30 33 1 3 29
M  V30 34 1 8 30
M  V30 35 1 9 31
M  V30 36 1 13 32
M  V30 37 1 15 33
M  V30 38 1 16 34
M  V30 39 1 17 35
M  V30 40 1 20 36
M  V30 41 1 20 37
M  V30 42 1 21 38
M  V30 43 1 21 39
M  V30 44 1 25 40
M  V30 45 1 26 41
M  V30 46 1 28 42
M  V30 END BOND
M  V30 END CTAB
M  END
>  <Dataset>  (272) 
ChEMBL_Kinases

>  <Ligand_Instance>  (272) 
nan

>  <PDB_ID>  (272) 
nan

>  <Standardized_SMILES>  (272) 
O=C1NC(=O)c2c1ccc1c2c2cc(O)ccc2n1CCC(=O)n1ccnc1

>  <Name>  (272) 
nan

>  <Pocket>  (272) 
nan

>  <ATP_Site>  (272) 
nan

>  <Peripheral>  (272) 
nan

>  <Num_H_Atoms_ProtBoundConf>  (272) 
nan

>  <Num_Resolved_Atoms>  (272) 
nan

>  <Num_Not_Resolved_Atoms>  (272) 
nan

$$$$
CHEMBL3912065
     RDKit          3D

  0  0  0  0  0  0  0  0  0  0999 V3000
M  V30 BEGIN CTAB
M  V30 COUNTS 74 78 0 0 0
M  V30 BEGIN ATOM
M  V30 1 C 5.073431 -0.829181 5.643745 0
M  V30 2 C 5.585755 0.593056 5.574493 0
M  V30 3 N 5.604355 1.042914 4.184114 0
M  V30 4 C 6.587246 0.949279 3.273958 0
M  V30 5 C 6.178167 1.506167 2.077906 0
M  V30 6 C 4.872093 1.949596 2.317273 0
M  V30 7 C 4.028566 2.613445 1.324413 0
M  V30 8 O 4.526765 2.791309 0.180322 0
M  V30 9 N 2.718063 3.000881 1.736968 0
M  V30 10 C 1.745531 3.663478 0.904176 0
M  V30 11 N 1.562781 4.995014 0.736057 0
M  V30 12 N 0.563032 5.159699 -0.115177 0
M  V30 13 C 0.046936 4.012818 -0.542834 0
M  V30 14 C 0.800181 3.059774 0.106577 0
M  V30 15 C 0.324347 1.712773 -0.282258 0
M  V30 16 N -0.914668 1.938930 -1.022603 0
M  V30 17 C -2.030846 1.176288 -1.454788 0
M  V30 18 O -3.070639 1.534152 -2.107833 0
M  V30 19 N -2.272945 -0.210748 -1.262315 0
M  V30 20 C -3.508903 -0.735204 -1.804339 0
M  V30 21 C -3.124650 -1.899154 -2.720546 0
M  V30 22 N -2.645364 -2.931139 -1.862987 0
M  V30 23 C -3.029250 -4.226352 -2.108301 0
M  V30 24 C -2.584241 -5.362799 -1.273899 0
M  V30 25 C -3.156059 -6.700196 -1.763603 0
M  V30 26 C -2.481534 -7.765314 -0.917269 0
M  V30 27 O -2.810721 -7.625876 0.409219 0
M  V30 28 C -2.578179 -6.376936 0.945192 0
M  V30 29 C -3.172903 -5.255718 0.142474 0
M  V30 30 C -1.465104 -2.558058 -1.246470 0
M  V30 31 C -1.450906 -1.195387 -0.594844 0 CFG=2
M  V30 32 C -1.746662 -1.314595 0.884763 0
M  V30 33 C -0.966003 3.350375 -1.398014 0
M  V30 34 C -2.293813 3.982185 -1.062828 0
M  V30 35 C -0.663370 3.564787 -2.848823 0
M  V30 36 N 4.596140 1.638600 3.598367 0
M  V30 37 H 5.160358 -1.294076 4.635577 0
M  V30 38 H 5.632606 -1.390605 6.425373 0
M  V30 39 H 4.001529 -0.813539 5.907892 0
M  V30 40 H 4.896507 1.242136 6.163970 0
M  V30 41 H 6.609785 0.631793 6.035228 0
M  V30 42 H 7.536955 0.494048 3.503736 0
M  V30 43 H 6.766454 1.566862 1.178278 0
M  V30 44 H 2.402022 2.806188 2.711350 0
M  V30 45 H 0.244733 6.126074 -0.394859 0
M  V30 46 H 0.077917 1.166069 0.666513 0
M  V30 47 H 1.067726 1.128060 -0.814151 0
M  V30 48 H -4.201990 -1.073775 -1.006442 0
M  V30 49 H -4.074149 -0.047101 -2.430858 0
M  V30 50 H -3.933974 -2.193919 -3.400667 0
M  V30 51 H -2.239456 -1.517036 -3.290139 0
M  V30 52 H -2.714239 -4.481642 -3.166099 0
M  V30 53 H -4.141886 -4.289560 -2.175713 0
M  V30 54 H -1.521216 -5.524916 -1.143340 0
M  V30 55 H -2.951769 -6.868292 -2.822610 0
M  V30 56 H -4.224239 -6.695032 -1.492958 0
M  V30 57 H -1.396420 -7.732685 -1.112036 0
M  V30 58 H -2.854681 -8.753594 -1.248378 0
M  V30 59 H -1.502218 -6.185474 1.191152 0
M  V30 60 H -3.107383 -6.366055 1.937748 0
M  V30 61 H -4.268470 -5.438880 0.092645 0
M  V30 62 H -2.961731 -4.307178 0.625911 0
M  V30 63 H -0.999003 -3.252905 -0.531991 0
M  V30 64 H -0.688027 -2.482525 -2.065835 0
M  V30 65 H -0.408396 -0.754640 -0.645298 0
M  V30 66 H -1.009944 -0.790698 1.528356 0
M  V30 67 H -2.750174 -0.939550 1.161817 0
M  V30 68 H -1.618031 -2.393372 1.162825 0
M  V30 69 H -2.949281 3.872177 -1.951268 0
M  V30 70 H -2.081207 5.082454 -0.964534 0
M  V30 71 H -2.782407 3.539587 -0.193761 0
M  V30 72 H -1.509520 3.233182 -3.479130 0
M  V30 73 H 0.272833 2.998176 -3.070566 0
M  V30 74 H -0.390034 4.636177 -2.986562 0
M  V30 END ATOM
M  V30 BEGIN BOND
M  V30 1 1 1 2
M  V30 2 1 2 3
M  V30 3 1 3 4
M  V30 4 2 4 5
M  V30 5 1 5 6
M  V30 6 1 6 7
M  V30 7 2 7 8
M  V30 8 1 7 9
M  V30 9 1 9 10
M  V30 10 2 10 11
M  V30 11 1 11 12
M  V30 12 1 12 13
M  V30 13 2 13 14
M  V30 14 1 14 15
M  V30 15 1 15 16
M  V30 16 1 16 17
M  V30 17 2 17 18
M  V30 18 1 17 19
M  V30 19 1 19 20
M  V30 20 1 20 21
M  V30 21 1 21 22
M  V30 22 1 22 23
M  V30 23 1 23 24
M  V30 24 1 24 25
M  V30 25 1 25 26
M  V30 26 1 26 27
M  V30 27 1 27 28
M  V30 28 1 28 29
M  V30 29 1 22 30
M  V30 30 1 30 31
M  V30 31 1 31 32
M  V30 32 1 16 33
M  V30 33 1 33 34
M  V30 34 1 33 35
M  V30 35 2 6 36
M  V30 36 1 36 3
M  V30 37 1 14 10
M  V30 38 1 31 19
M  V30 39 1 33 13
M  V30 40 1 29 24
M  V30 41 1 1 37
M  V30 42 1 1 38
M  V30 43 1 1 39
M  V30 44 1 2 40
M  V30 45 1 2 41
M  V30 46 1 4 42
M  V30 47 1 5 43
M  V30 48 1 9 44
M  V30 49 1 12 45
M  V30 50 1 15 46
M  V30 51 1 15 47
M  V30 52 1 20 48
M  V30 53 1 20 49
M  V30 54 1 21 50
M  V30 55 1 21 51
M  V30 56 1 23 52
M  V30 57 1 23 53
M  V30 58 1 24 54
M  V30 59 1 25 55
M  V30 60 1 25 56
M  V30 61 1 26 57
M  V30 62 1 26 58
M  V30 63 1 28 59
M  V30 64 1 28 60
M  V30 65 1 29 61
M  V30 66 1 29 62
M  V30 67 1 30 63
M  V30 68 1 30 64
M  V30 69 1 31 65 CFG=1
M  V30 70 1 32 66
M  V30 71 1 32 67
M  V30 72 1 32 68
M  V30 73 1 34 69
M  V30 74 1 34 70
M  V30 75 1 34 71
M  V30 76 1 35 72
M  V30 77 1 35 73
M  V30 78 1 35 74
M  V30 END BOND
M  V30 END CTAB
M  END
>  <Dataset>  (273) 
ChEMBL_Kinases

>  <Ligand_Instance>  (273) 
nan

>  <PDB_ID>  (273) 
nan

>  <Standardized_SMILES>  (273) 
CCn1ccc(C(=O)Nc2n[nH]c3c2CN(C(=O)N2CCN(CC4CCOCC4)C[C@@H]2C)C3(C)C)n1

>  <Name>  (273) 
nan

>  <Pocket>  (273) 
nan

>  <ATP_Site>  (273) 
nan

>  <Peripheral>  (273) 
nan

>  <Num_H_Atoms_ProtBoundConf>  (273) 
nan

>  <Num_Resolved_Atoms>  (273) 
nan

>  <Num_Not_Resolved_Atoms>  (273) 
nan

$$$$
CHEMBL488270
     RDKit          3D

  0  0  0  0  0  0  0  0  0  0999 V3000
M  V30 BEGIN CTAB
M  V30 COUNTS 57 63 0 0 0
M  V30 BEGIN ATOM
M  V30 1 O 2.349719 -2.199903 -0.740692 0
M  V30 2 C 1.650514 -1.999532 0.279476 0
M  V30 3 C 0.211424 -2.220424 0.511786 0
M  V30 4 C -0.165650 -1.881234 1.763474 0
M  V30 5 C 1.009440 -1.395512 2.483834 0
M  V30 6 O 1.046634 -0.995296 3.657601 0
M  V30 7 N 2.091923 -1.484517 1.542838 0
M  V30 8 C 3.449353 -1.091463 1.867617 0
M  V30 9 C 3.663060 0.369382 1.546563 0
M  V30 10 C 3.433928 0.664828 0.084062 0
M  V30 11 S 3.704992 2.424788 -0.240488 0
M  V30 12 C 2.465933 3.427396 0.552627 0
M  V30 13 N 2.826944 4.615791 0.246961 0
M  V30 14 C 1.921986 5.585321 0.815128 0
M  V30 15 C 0.758072 4.753862 1.274485 0
M  V30 16 N 1.295350 3.414283 1.352550 0
M  V30 17 N -1.487059 -1.969877 2.325781 0
M  V30 18 C -1.838827 -1.374764 3.466798 0
M  V30 19 C -3.175321 -1.680207 3.680213 0
M  V30 20 C -3.543640 -2.466941 2.610772 0
M  V30 21 C -4.790687 -3.013375 2.398185 0
M  V30 22 C -4.958422 -3.780658 1.263246 0
M  V30 23 C -3.879635 -3.951465 0.420531 0
M  V30 24 C -2.610809 -3.431990 0.577390 0
M  V30 25 C -2.501975 -2.672398 1.732086 0
M  V30 26 C -1.644681 -3.781647 -0.476880 0
M  V30 27 C -2.122898 -3.922300 -1.851175 0
M  V30 28 C -1.358899 -2.900595 -2.619080 0
M  V30 29 C -1.486991 -2.643093 -3.974379 0
M  V30 30 C -0.754214 -1.626253 -4.567299 0
M  V30 31 C 0.112232 -0.865759 -3.782642 0
M  V30 32 C 0.214934 -1.148021 -2.442079 0
M  V30 33 C -0.501315 -2.150235 -1.848389 0
M  V30 34 N -0.643810 -2.740006 -0.534780 0
M  V30 35 H 4.151411 -1.745536 1.318957 0
M  V30 36 H 3.648116 -1.261701 2.940187 0
M  V30 37 H 4.698879 0.647224 1.861853 0
M  V30 38 H 2.985866 0.982751 2.151835 0
M  V30 39 H 4.100729 0.090624 -0.573842 0
M  V30 40 H 2.354410 0.479580 -0.136084 0
M  V30 41 H 1.632575 6.346469 0.053308 0
M  V30 42 H 2.465854 6.061007 1.669725 0
M  V30 43 H 0.421496 5.105407 2.281417 0
M  V30 44 H -0.078495 4.827520 0.547053 0
M  V30 45 H 1.164483 2.460531 1.755144 0
M  V30 46 H -1.227588 -0.778315 4.102388 0
M  V30 47 H -3.752972 -1.347138 4.518888 0
M  V30 48 H -5.637093 -2.866469 3.079734 0
M  V30 49 H -5.930536 -4.214780 1.083212 0
M  V30 50 H -4.116605 -4.574637 -0.432556 0
M  V30 51 H -1.146715 -4.732067 -0.152795 0
M  V30 52 H -1.824178 -4.904385 -2.272386 0
M  V30 53 H -3.209104 -3.845164 -2.038238 0
M  V30 54 H -2.121775 -3.161625 -4.675102 0
M  V30 55 H -0.812199 -1.374543 -5.638084 0
M  V30 56 H 0.686581 -0.069484 -4.242990 0
M  V30 57 H 0.867270 -0.507207 -1.886653 0
M  V30 END ATOM
M  V30 BEGIN BOND
M  V30 1 2 1 2
M  V30 2 1 2 3
M  V30 3 2 3 4
M  V30 4 1 4 5
M  V30 5 2 5 6
M  V30 6 1 5 7
M  V30 7 1 7 8
M  V30 8 1 8 9
M  V30 9 1 9 10
M  V30 10 1 10 11
M  V30 11 1 11 12
M  V30 12 2 12 13
M  V30 13 1 13 14
M  V30 14 1 14 15
M  V30 15 1 15 16
M  V30 16 1 4 17
M  V30 17 1 17 18
M  V30 18 2 18 19
M  V30 19 1 19 20
M  V30 20 2 20 21
M  V30 21 1 21 22
M  V30 22 2 22 23
M  V30 23 1 23 24
M  V30 24 2 24 25
M  V30 25 1 24 26
M  V30 26 1 26 27
M  V30 27 1 27 28
M  V30 28 2 28 29
M  V30 29 1 29 30
M  V30 30 2 30 31
M  V30 31 1 31 32
M  V30 32 2 32 33
M  V30 33 1 33 34
M  V30 34 1 7 2
M  V30 35 1 16 12
M  V30 36 1 25 17
M  V30 37 1 34 26
M  V30 38 1 34 3
M  V30 39 1 25 20
M  V30 40 1 33 28
M  V30 41 1 8 35
M  V30 42 1 8 36
M  V30 43 1 9 37
M  V30 44 1 9 38
M  V30 45 1 10 39
M  V30 46 1 10 40
M  V30 47 1 14 41
M  V30 48 1 14 42
M  V30 49 1 15 43
M  V30 50 1 15 44
M  V30 51 1 16 45
M  V30 52 1 18 46
M  V30 53 1 19 47
M  V30 54 1 21 48
M  V30 55 1 22 49
M  V30 56 1 23 50
M  V30 57 1 26 51
M  V30 58 1 27 52
M  V30 59 1 27 53
M  V30 60 1 29 54
M  V30 61 1 30 55
M  V30 62 1 31 56
M  V30 63 1 32 57
M  V30 END BOND
M  V30 END CTAB
M  END
>  <Dataset>  (274) 
ChEMBL_Kinases

>  <Ligand_Instance>  (274) 
nan

>  <PDB_ID>  (274) 
nan

>  <Standardized_SMILES>  (274) 
O=C1C2=C(C(=O)N1CCCSC1=NCCN1)n1ccc3cccc(c31)C1Cc3ccccc3N21

>  <Name>  (274) 
nan

>  <Pocket>  (274) 
nan

>  <ATP_Site>  (274) 
nan

>  <Peripheral>  (274) 
nan

>  <Num_H_Atoms_ProtBoundConf>  (274) 
nan

>  <Num_Resolved_Atoms>  (274) 
nan

>  <Num_Not_Resolved_Atoms>  (274) 
nan

$$$$
CHEMBL4877788
     RDKit          3D

  0  0  0  0  0  0  0  0  0  0999 V3000
M  V30 BEGIN CTAB
M  V30 COUNTS 53 57 0 0 0
M  V30 BEGIN ATOM
M  V30 1 C 3.395875 -5.604637 1.038351 0
M  V30 2 O 2.988308 -4.507411 1.807891 0
M  V30 3 C 3.639463 -3.290725 1.658355 0
M  V30 4 C 4.677871 -2.978362 0.828228 0
M  V30 5 C 5.231802 -1.726884 0.779625 0
M  V30 6 C 4.723848 -0.743356 1.598623 0
M  V30 7 C 3.666278 -0.981320 2.473149 0
M  V30 8 C 3.121013 0.083319 3.355294 0
M  V30 9 N 2.053766 0.746297 2.591931 0
M  V30 10 C 2.314973 1.879693 1.744731 0
M  V30 11 C 1.618883 1.809451 0.406700 0
M  V30 12 C 0.183697 2.288571 0.471306 0
M  V30 13 C -0.632130 1.098531 0.847113 0
M  V30 14 C -1.769931 0.919598 0.090087 0
M  V30 15 C -2.634176 -0.129355 0.305164 0
M  V30 16 C -3.839373 -0.340070 -0.478802 0
M  V30 17 C -4.982695 -0.923244 0.033840 0
M  V30 18 C -6.118087 -1.113815 -0.730373 0
M  V30 19 C -6.106978 -0.702337 -2.065059 0
M  V30 20 N -7.051455 -0.762817 -3.021722 0
M  V30 21 N -6.545173 -0.237157 -4.124660 0
M  V30 22 C -5.276350 0.166908 -3.897131 0
M  V30 23 C -4.945886 -0.112947 -2.576312 0
M  V30 24 C -3.814359 0.068905 -1.788250 0
M  V30 25 C -2.384577 -1.065417 1.315120 0
M  V30 26 C -1.251223 -0.909906 2.088834 0
M  V30 27 C -0.386498 0.163831 1.852690 0
M  V30 28 C 0.761334 0.155429 2.779834 0
M  V30 29 O 0.559163 -0.448009 3.857945 0
M  V30 30 C 3.154849 -2.268220 2.470277 0
M  V30 31 H 3.668818 -5.293223 0.003779 0
M  V30 32 H 4.276676 -6.061373 1.528391 0
M  V30 33 H 2.576726 -6.370908 0.972525 0
M  V30 34 H 5.031066 -3.791488 0.212079 0
M  V30 35 H 6.064144 -1.545170 0.088921 0
M  V30 36 H 5.175753 0.239730 1.545271 0
M  V30 37 H 2.708510 -0.356237 4.272155 0
M  V30 38 H 3.909087 0.825610 3.616773 0
M  V30 39 H 1.987334 2.843986 2.199778 0
M  V30 40 H 3.400280 2.020171 1.542829 0
M  V30 41 H 1.668291 0.808517 -0.070010 0
M  V30 42 H 2.153682 2.495336 -0.277278 0
M  V30 43 H 0.055582 3.007388 1.326380 0
M  V30 44 H -0.197553 2.725893 -0.448034 0
M  V30 45 H -1.980559 1.644156 -0.705815 0
M  V30 46 H -4.988998 -1.241636 1.070063 0
M  V30 47 H -7.016418 -1.563351 -0.356147 0
M  V30 48 H -8.005143 -1.160326 -2.885435 0
M  V30 49 H -4.614886 0.632042 -4.612680 0
M  V30 50 H -2.983352 0.527214 -2.273354 0
M  V30 51 H -3.003075 -1.918096 1.557509 0
M  V30 52 H -0.989011 -1.592909 2.889851 0
M  V30 53 H 2.336882 -2.423854 3.157273 0
M  V30 END ATOM
M  V30 BEGIN BOND
M  V30 1 1 1 2
M  V30 2 1 2 3
M  V30 3 2 3 4
M  V30 4 1 4 5
M  V30 5 2 5 6
M  V30 6 1 6 7
M  V30 7 1 7 8
M  V30 8 1 8 9
M  V30 9 1 9 10
M  V30 10 1 10 11
M  V30 11 1 11 12
M  V30 12 1 12 13
M  V30 13 2 13 14
M  V30 14 1 14 15
M  V30 15 1 15 16
M  V30 16 2 16 17
M  V30 17 1 17 18
M  V30 18 2 18 19
M  V30 19 1 19 20
M  V30 20 1 20 21
M  V30 21 2 21 22
M  V30 22 1 22 23
M  V30 23 2 23 24
M  V30 24 2 15 25
M  V30 25 1 25 26
M  V30 26 2 26 27
M  V30 27 1 27 28
M  V30 28 2 28 29
M  V30 29 2 7 30
M  V30 30 1 30 3
M  V30 31 1 28 9
M  V30 32 1 27 13
M  V30 33 1 24 16
M  V30 34 1 23 19
M  V30 35 1 1 31
M  V30 36 1 1 32
M  V30 37 1 1 33
M  V30 38 1 4 34
M  V30 39 1 5 35
M  V30 40 1 6 36
M  V30 41 1 8 37
M  V30 42 1 8 38
M  V30 43 1 10 39
M  V30 44 1 10 40
M  V30 45 1 11 41
M  V30 46 1 11 42
M  V30 47 1 12 43
M  V30 48 1 12 44
M  V30 49 1 14 45
M  V30 50 1 17 46
M  V30 51 1 18 47
M  V30 52 1 20 48
M  V30 53 1 22 49
M  V30 54 1 24 50
M  V30 55 1 25 51
M  V30 56 1 26 52
M  V30 57 1 30 53
M  V30 END BOND
M  V30 END CTAB
M  END
>  <Dataset>  (275) 
ChEMBL_Kinases

>  <Ligand_Instance>  (275) 
nan

>  <PDB_ID>  (275) 
nan

>  <Standardized_SMILES>  (275) 
COc1cccc(CN2CCCc3cc(-c4ccc5[nH]ncc5c4)ccc3C2=O)c1

>  <Name>  (275) 
nan

>  <Pocket>  (275) 
nan

>  <ATP_Site>  (275) 
nan

>  <Peripheral>  (275) 
nan

>  <Num_H_Atoms_ProtBoundConf>  (275) 
nan

>  <Num_Resolved_Atoms>  (275) 
nan

>  <Num_Not_Resolved_Atoms>  (275) 
nan

$$$$
CHEMBL604510
     RDKit          3D

  0  0  0  0  0  0  0  0  0  0999 V3000
M  V30 BEGIN CTAB
M  V30 COUNTS 56 61 0 0 0
M  V30 BEGIN ATOM
M  V30 1 C 0.617113 4.642133 2.717210 0
M  V30 2 N -0.509991 5.349892 2.108169 0
M  V30 3 C -1.040860 6.555465 2.465690 0
M  V30 4 C -2.086635 6.835374 1.620992 0
M  V30 5 C -2.217677 5.797690 0.721998 0
M  V30 6 C -3.057003 5.510728 -0.334484 0
M  V30 7 C -2.923028 4.331192 -1.071737 0
M  V30 8 C -1.925272 3.407031 -0.751390 0
M  V30 9 C -1.873363 2.220510 -1.575368 0
M  V30 10 C -2.245155 2.309687 -2.915930 0
M  V30 11 C -2.226741 1.223943 -3.768476 0
M  V30 12 C -1.824704 -0.014258 -3.288680 0
M  V30 13 C -1.443755 -0.150555 -1.952913 0
M  V30 14 N -1.009368 -1.334060 -1.295089 0
M  V30 15 C 0.192283 -1.902707 -1.129840 0
M  V30 16 C 0.054419 -3.060589 -0.398441 0
M  V30 17 C 1.094864 -3.993826 0.016290 0
M  V30 18 C 0.950882 -4.370143 1.355492 0
M  V30 19 C 1.850595 -5.251434 1.920673 0
M  V30 20 C 2.895157 -5.778586 1.206062 0
M  V30 21 C 3.020845 -5.393967 -0.118294 0
M  V30 22 C 2.141019 -4.515963 -0.715740 0
M  V30 23 C 4.129123 -5.925510 -0.943872 0
M  V30 24 C 4.541078 -7.280164 -0.412756 0
M  V30 25 N 4.891490 -7.215987 1.014127 0
M  V30 26 C 3.829140 -6.709827 1.831190 0
M  V30 27 O 3.684330 -7.039611 3.043803 0
M  V30 28 C -1.294248 -3.163412 -0.129352 0
M  V30 29 N -1.868910 -4.231778 0.614488 0
M  V30 30 N -1.922965 -2.102402 -0.684109 0
M  V30 31 C -1.482703 0.982735 -1.138933 0
M  V30 32 C -1.119661 3.727077 0.295235 0
M  V30 33 C -1.221313 4.877688 1.043814 0
M  V30 34 H 1.538823 4.842325 2.138692 0
M  V30 35 H 0.379270 3.563860 2.640822 0
M  V30 36 H 0.690179 4.996866 3.764692 0
M  V30 37 H -0.680441 7.165926 3.279749 0
M  V30 38 H -2.733390 7.685426 1.598629 0
M  V30 39 H -3.832844 6.254490 -0.564844 0
M  V30 40 H -3.654795 4.246977 -1.869772 0
M  V30 41 H -2.565682 3.287080 -3.307910 0
M  V30 42 H -2.513081 1.289843 -4.803099 0
M  V30 43 H -1.771897 -0.931266 -3.865309 0
M  V30 44 H 1.096998 -1.476807 -1.529856 0
M  V30 45 H 0.158297 -4.017786 2.028286 0
M  V30 46 H 1.758678 -5.560385 2.964218 0
M  V30 47 H 2.167550 -4.170796 -1.726503 0
M  V30 48 H 5.017647 -5.239502 -0.891644 0
M  V30 49 H 3.831997 -6.077063 -1.988228 0
M  V30 50 H 5.446235 -7.665181 -0.912431 0
M  V30 51 H 3.663876 -7.951024 -0.576702 0
M  V30 52 H 5.791705 -7.482590 1.514430 0
M  V30 53 H -1.689004 -5.193352 0.250774 0
M  V30 54 H -2.396429 -3.814445 1.438416 0
M  V30 55 H -1.200970 0.947036 -0.095794 0
M  V30 56 H -0.342283 3.004883 0.543324 0
M  V30 END ATOM
M  V30 BEGIN BOND
M  V30 1 1 1 2
M  V30 2 1 2 3
M  V30 3 2 3 4
M  V30 4 1 4 5
M  V30 5 2 5 6
M  V30 6 1 6 7
M  V30 7 2 7 8
M  V30 8 1 8 9
M  V30 9 2 9 10
M  V30 10 1 10 11
M  V30 11 2 11 12
M  V30 12 1 12 13
M  V30 13 1 13 14
M  V30 14 1 14 15
M  V30 15 2 15 16
M  V30 16 1 16 17
M  V30 17 2 17 18
M  V30 18 1 18 19
M  V30 19 2 19 20
M  V30 20 1 20 21
M  V30 21 2 21 22
M  V30 22 1 21 23
M  V30 23 1 23 24
M  V30 24 1 24 25
M  V30 25 1 25 26
M  V30 26 2 26 27
M  V30 27 1 16 28
M  V30 28 1 28 29
M  V30 29 2 28 30
M  V30 30 2 13 31
M  V30 31 1 8 32
M  V30 32 2 32 33
M  V30 33 1 33 2
M  V30 34 1 33 5
M  V30 35 1 31 9
M  V30 36 1 30 14
M  V30 37 1 22 17
M  V30 38 1 26 20
M  V30 39 1 1 34
M  V30 40 1 1 35
M  V30 41 1 1 36
M  V30 42 1 3 37
M  V30 43 1 4 38
M  V30 44 1 6 39
M  V30 45 1 7 40
M  V30 46 1 10 41
M  V30 47 1 11 42
M  V30 48 1 12 43
M  V30 49 1 15 44
M  V30 50 1 18 45
M  V30 51 1 19 46
M  V30 52 1 22 47
M  V30 53 1 23 48
M  V30 54 1 23 49
M  V30 55 1 24 50
M  V30 56 1 24 51
M  V30 57 1 25 52
M  V30 58 1 29 53
M  V30 59 1 29 54
M  V30 60 1 31 55
M  V30 61 1 32 56
M  V30 END BOND
M  V30 END CTAB
M  END
>  <Dataset>  (276) 
ChEMBL_Kinases

>  <Ligand_Instance>  (276) 
nan

>  <PDB_ID>  (276) 
nan

>  <Standardized_SMILES>  (276) 
Cn1ccc2ccc(-c3cccc(-n4cc(-c5ccc6c(c5)CCNC6=O)c(N)n4)c3)cc21

>  <Name>  (276) 
nan

>  <Pocket>  (276) 
nan

>  <ATP_Site>  (276) 
nan

>  <Peripheral>  (276) 
nan

>  <Num_H_Atoms_ProtBoundConf>  (276) 
nan

>  <Num_Resolved_Atoms>  (276) 
nan

>  <Num_Not_Resolved_Atoms>  (276) 
nan

$$$$
CHEMBL4878998
     RDKit          3D

  0  0  0  0  0  0  0  0  0  0999 V3000
M  V30 BEGIN CTAB
M  V30 COUNTS 46 49 0 0 0
M  V30 BEGIN ATOM
M  V30 1 N 2.974740 -1.601842 7.397599 0
M  V30 2 C 2.415436 -1.388385 6.100464 0
M  V30 3 C 3.459689 -1.254532 5.011583 0
M  V30 4 N 2.722058 -1.040225 3.756938 0
M  V30 5 C 3.451155 -0.878790 2.548805 0
M  V30 6 O 4.710708 -0.932245 2.638165 0
M  V30 7 C 2.845179 -0.659642 1.239383 0
M  V30 8 C 3.701208 -0.521989 0.167066 0
M  V30 9 C 3.139806 -0.311480 -1.087374 0
M  V30 10 C 1.776384 -0.244279 -1.244026 0
M  V30 11 C 0.947084 -0.385462 -0.154518 0
M  V30 12 C 1.473791 -0.595397 1.103355 0
M  V30 13 N -0.377781 -0.318279 -0.316573 0
M  V30 14 C -1.027660 -0.121095 -1.464023 0
M  V30 15 N -2.429791 -0.052456 -1.616503 0
M  V30 16 C -3.410389 -0.199762 -0.609138 0
M  V30 17 C -3.139012 -0.589815 0.665084 0
M  V30 18 C -4.074758 -0.732451 1.665854 0
M  V30 19 C -5.402181 -0.471155 1.403761 0
M  V30 20 C -5.733471 -0.072470 0.128573 0
M  V30 21 Cl -7.396565 0.271769 -0.260738 0
M  V30 22 C -4.748758 0.049329 -0.821795 0
M  V30 23 C -0.200622 0.019475 -2.550531 0
M  V30 24 C -0.662339 0.230330 -3.830110 0
M  V30 25 C 0.108881 0.381031 -4.972508 0
M  V30 26 N 1.442391 0.311947 -4.798297 0
M  V30 27 C 1.976706 0.105086 -3.560298 0
M  V30 28 C 1.170303 -0.038143 -2.459503 0
M  V30 29 H 3.059307 -0.719073 7.961843 0
M  V30 30 H 2.407138 -2.321911 7.898462 0
M  V30 31 H 1.719604 -0.529548 6.114320 0
M  V30 32 H 1.791600 -2.272181 5.826538 0
M  V30 33 H 4.183343 -0.456624 5.221057 0
M  V30 34 H 4.027895 -2.193017 4.868579 0
M  V30 35 H 1.687622 -1.001525 3.714734 0
M  V30 36 H 4.792802 -0.574001 0.280289 0
M  V30 37 H 3.834659 -0.210204 -1.889562 0
M  V30 38 H 0.797251 -0.698786 1.913590 0
M  V30 39 H -2.867879 0.121884 -2.540732 0
M  V30 40 H -2.155366 -0.833066 1.026480 0
M  V30 41 H -3.860375 -1.041068 2.673294 0
M  V30 42 H -6.186836 -0.562414 2.140055 0
M  V30 43 H -5.082023 0.369123 -1.809355 0
M  V30 44 H -1.711197 0.293397 -4.029431 0
M  V30 45 H -0.308726 0.544744 -5.952644 0
M  V30 46 H 3.047286 0.078727 -3.610313 0
M  V30 END ATOM
M  V30 BEGIN BOND
M  V30 1 1 1 2
M  V30 2 1 2 3
M  V30 3 1 3 4
M  V30 4 1 4 5
M  V30 5 2 5 6
M  V30 6 1 5 7
M  V30 7 2 7 8
M  V30 8 1 8 9
M  V30 9 2 9 10
M  V30 10 1 10 11
M  V30 11 2 11 12
M  V30 12 1 11 13
M  V30 13 2 13 14
M  V30 14 1 14 15
M  V30 15 1 15 16
M  V30 16 2 16 17
M  V30 17 1 17 18
M  V30 18 2 18 19
M  V30 19 1 19 20
M  V30 20 1 20 21
M  V30 21 2 20 22
M  V30 22 1 14 23
M  V30 23 2 23 24
M  V30 24 1 24 25
M  V30 25 2 25 26
M  V30 26 1 26 27
M  V30 27 2 27 28
M  V30 28 1 12 7
M  V30 29 1 22 16
M  V30 30 1 28 23
M  V30 31 1 28 10
M  V30 32 1 1 29
M  V30 33 1 1 30
M  V30 34 1 2 31
M  V30 35 1 2 32
M  V30 36 1 3 33
M  V30 37 1 3 34
M  V30 38 1 4 35
M  V30 39 1 8 36
M  V30 40 1 9 37
M  V30 41 1 12 38
M  V30 42 1 15 39
M  V30 43 1 17 40
M  V30 44 1 18 41
M  V30 45 1 19 42
M  V30 46 1 22 43
M  V30 47 1 24 44
M  V30 48 1 25 45
M  V30 49 1 27 46
M  V30 END BOND
M  V30 END CTAB
M  END
>  <Dataset>  (277) 
ChEMBL_Kinases

>  <Ligand_Instance>  (277) 
nan

>  <PDB_ID>  (277) 
nan

>  <Standardized_SMILES>  (277) 
NCCNC(=O)c1ccc2c(c1)nc(Nc1cccc(Cl)c1)c1ccncc12

>  <Name>  (277) 
nan

>  <Pocket>  (277) 
nan

>  <ATP_Site>  (277) 
nan

>  <Peripheral>  (277) 
nan

>  <Num_H_Atoms_ProtBoundConf>  (277) 
nan

>  <Num_Resolved_Atoms>  (277) 
nan

>  <Num_Not_Resolved_Atoms>  (277) 
nan

$$$$
CHEMBL388530
     RDKit          3D

  0  0  0  0  0  0  0  0  0  0999 V3000
M  V30 BEGIN CTAB
M  V30 COUNTS 54 58 0 0 0
M  V30 BEGIN ATOM
M  V30 1 O 4.341383 -0.113629 -1.494141 0
M  V30 2 C 3.890039 0.807848 -0.749532 0
M  V30 3 N 4.766801 1.861548 -0.396740 0
M  V30 4 C 6.154247 2.038682 -0.779800 0
M  V30 5 C 6.972599 1.114030 0.045665 0
M  V30 6 C 7.364461 -0.179182 -0.209249 0
M  V30 7 C 8.128112 -0.873064 0.695887 0
M  V30 8 C 8.523364 -0.288516 1.888675 0
M  V30 9 C 8.154479 1.010441 2.191051 0
M  V30 10 C 7.387795 1.673937 1.256891 0
M  V30 11 C 2.510682 0.748277 -0.293484 0
M  V30 12 C 1.891653 1.672429 0.521038 0
M  V30 13 C 0.581074 1.596701 0.942873 0
M  V30 14 C -0.191742 0.527854 0.535166 0
M  V30 15 C -1.574101 0.471215 0.996255 0
M  V30 16 C -2.452056 -0.537897 0.664699 0
M  V30 17 C -3.753357 -0.542628 1.130400 0
M  V30 18 C -4.649209 -1.630996 0.753084 0
M  V30 19 C -4.332825 -2.703529 -0.058040 0
M  V30 20 C -5.458606 -3.495534 -0.160790 0
M  V30 21 C -6.472761 -2.910481 0.588971 0
M  V30 22 N -5.938701 -1.782134 1.125824 0
M  V30 23 C -7.841514 -3.507316 0.702229 0
M  V30 24 C -7.748798 -4.997882 0.570522 0
M  V30 25 N -7.116981 -5.288219 -0.721200 0
M  V30 26 C -5.791695 -4.755965 -0.858305 0
M  V30 27 O -4.895254 -5.318336 -1.550456 0
M  V30 28 C -4.216115 0.469269 1.946642 0
M  V30 29 C -3.297226 1.457678 2.250146 0
M  V30 30 N -2.013208 1.460687 1.789577 0
M  V30 31 C 0.388789 -0.420204 -0.280832 0
M  V30 32 C 1.706640 -0.306986 -0.681203 0
M  V30 33 H 4.397849 2.618906 0.214059 0
M  V30 34 H 6.487333 3.071771 -0.727383 0
M  V30 35 H 6.245728 1.670615 -1.839733 0
M  V30 36 H 7.017988 -0.555425 -1.156089 0
M  V30 37 H 8.399696 -1.892902 0.424696 0
M  V30 38 H 9.129741 -0.850297 2.599439 0
M  V30 39 H 8.475544 1.427363 3.114925 0
M  V30 40 H 7.135264 2.699292 1.567101 0
M  V30 41 H 2.473979 2.519216 0.854467 0
M  V30 42 H 0.196546 2.397316 1.594216 0
M  V30 43 H -2.119596 -1.344699 0.027419 0
M  V30 44 H -3.387262 -2.909107 -0.536769 0
M  V30 45 H -6.497802 -1.131700 1.751848 0
M  V30 46 H -8.309938 -3.181525 1.633059 0
M  V30 47 H -8.411945 -3.142790 -0.191523 0
M  V30 48 H -7.248395 -5.491635 1.407908 0
M  V30 49 H -8.806604 -5.370183 0.559790 0
M  V30 50 H -7.482943 -5.818009 -1.544833 0
M  V30 51 H -5.224496 0.511982 2.337359 0
M  V30 52 H -3.561430 2.309773 2.892342 0
M  V30 53 H -0.191789 -1.259363 -0.610360 0
M  V30 54 H 2.155521 -1.060150 -1.325063 0
M  V30 END ATOM
M  V30 BEGIN BOND
M  V30 1 2 1 2
M  V30 2 1 2 3
M  V30 3 1 3 4
M  V30 4 1 4 5
M  V30 5 2 5 6
M  V30 6 1 6 7
M  V30 7 2 7 8
M  V30 8 1 8 9
M  V30 9 2 9 10
M  V30 10 1 2 11
M  V30 11 2 11 12
M  V30 12 1 12 13
M  V30 13 2 13 14
M  V30 14 1 14 15
M  V30 15 2 15 16
M  V30 16 1 16 17
M  V30 17 1 17 18
M  V30 18 2 18 19
M  V30 19 1 19 20
M  V30 20 2 20 21
M  V30 21 1 21 22
M  V30 22 1 21 23
M  V30 23 1 23 24
M  V30 24 1 24 25
M  V30 25 1 25 26
M  V30 26 2 26 27
M  V30 27 2 17 28
M  V30 28 1 28 29
M  V30 29 2 29 30
M  V30 30 1 14 31
M  V30 31 2 31 32
M  V30 32 1 10 5
M  V30 33 1 32 11
M  V30 34 1 30 15
M  V30 35 1 22 18
M  V30 36 1 26 20
M  V30 37 1 3 33
M  V30 38 1 4 34
M  V30 39 1 4 35
M  V30 40 1 6 36
M  V30 41 1 7 37
M  V30 42 1 8 38
M  V30 43 1 9 39
M  V30 44 1 10 40
M  V30 45 1 12 41
M  V30 46 1 13 42
M  V30 47 1 16 43
M  V30 48 1 19 44
M  V30 49 1 22 45
M  V30 50 1 23 46
M  V30 51 1 23 47
M  V30 52 1 24 48
M  V30 53 1 24 49
M  V30 54 1 25 50
M  V30 55 1 28 51
M  V30 56 1 29 52
M  V30 57 1 31 53
M  V30 58 1 32 54
M  V30 END BOND
M  V30 END CTAB
M  END
>  <Dataset>  (278) 
ChEMBL_Kinases

>  <Ligand_Instance>  (278) 
nan

>  <PDB_ID>  (278) 
nan

>  <Standardized_SMILES>  (278) 
O=C(NCc1ccccc1)c1ccc(-c2cc(-c3cc4c([nH]3)CCNC4=O)ccn2)cc1

>  <Name>  (278) 
nan

>  <Pocket>  (278) 
nan

>  <ATP_Site>  (278) 
nan

>  <Peripheral>  (278) 
nan

>  <Num_H_Atoms_ProtBoundConf>  (278) 
nan

>  <Num_Resolved_Atoms>  (278) 
nan

>  <Num_Not_Resolved_Atoms>  (278) 
nan

$$$$
CHEMBL3911325
     RDKit          3D

  0  0  0  0  0  0  0  0  0  0999 V3000
M  V30 BEGIN CTAB
M  V30 COUNTS 46 51 0 0 0
M  V30 BEGIN ATOM
M  V30 1 C -0.436688 -2.664259 1.432728 0
M  V30 2 C 0.369870 -2.918769 0.418741 0
M  V30 3 C 1.063770 -1.916443 -0.371631 0
M  V30 4 C 0.992989 -0.555867 -0.192766 0
M  V30 5 C 1.692482 0.279456 -1.001273 0
M  V30 6 C 2.488562 -0.216069 -2.018545 0
M  V30 7 C 2.556098 -1.580841 -2.193681 0
M  V30 8 N 1.849695 -2.375612 -1.373908 0
M  V30 9 N 3.211154 0.544595 -2.860612 0
M  V30 10 C 3.150334 1.878305 -2.695860 0
M  V30 11 C 2.370594 2.419851 -1.695694 0
M  V30 12 N 2.119535 3.688483 -1.300165 0
M  V30 13 C 1.261614 3.650964 -0.242252 0
M  V30 14 N 0.978610 2.358940 0.020775 0
M  V30 15 C 0.102215 2.121537 1.088114 0
M  V30 16 C 0.478200 1.938772 2.427811 0
M  V30 17 C -0.440194 1.719582 3.434083 0
M  V30 18 C -1.793340 1.668457 3.169397 0
M  V30 19 N -2.916767 1.480899 3.882419 0
M  V30 20 C -4.001060 1.535509 3.055953 0
M  V30 21 N -3.567194 1.762960 1.784131 0
M  V30 22 C -2.240053 1.839309 1.875274 0
M  V30 23 C -1.287860 2.055874 0.900689 0
M  V30 24 C 1.638419 1.619885 -0.844420 0
M  V30 25 C 0.509178 -4.371261 0.149060 0
M  V30 26 C 0.950822 -5.042596 1.441485 0
M  V30 27 C 0.060477 -4.696851 2.606814 0
M  V30 28 C -1.093046 -3.788960 2.168486 0
M  V30 29 H -0.618439 -1.642460 1.725957 0
M  V30 30 H 0.352558 -0.268071 0.618166 0
M  V30 31 H 3.150800 -2.091654 -2.963065 0
M  V30 32 H 3.679606 2.598764 -3.301676 0
M  V30 33 H 0.968177 4.621895 0.185664 0
M  V30 34 H 1.542700 1.981379 2.620685 0
M  V30 35 H -0.095208 1.584534 4.453441 0
M  V30 36 H -5.045156 1.423267 3.319629 0
M  V30 37 H -4.153784 1.858876 0.910378 0
M  V30 38 H -1.600404 2.195755 -0.135508 0
M  V30 39 H 1.320439 -4.547625 -0.587494 0
M  V30 40 H -0.448588 -4.837766 -0.162724 0
M  V30 41 H 0.977395 -6.140544 1.352480 0
M  V30 42 H 1.979837 -4.717033 1.699685 0
M  V30 43 H -0.427515 -5.592770 3.068363 0
M  V30 44 H 0.590636 -4.132107 3.402427 0
M  V30 45 H -1.797130 -4.358782 1.517784 0
M  V30 46 H -1.556045 -3.417975 3.098555 0
M  V30 END ATOM
M  V30 BEGIN BOND
M  V30 1 2 1 2
M  V30 2 1 2 3
M  V30 3 2 3 4
M  V30 4 1 4 5
M  V30 5 2 5 6
M  V30 6 1 6 7
M  V30 7 2 7 8
M  V30 8 1 6 9
M  V30 9 2 9 10
M  V30 10 1 10 11
M  V30 11 1 11 12
M  V30 12 2 12 13
M  V30 13 1 13 14
M  V30 14 1 14 15
M  V30 15 2 15 16
M  V30 16 1 16 17
M  V30 17 2 17 18
M  V30 18 1 18 19
M  V30 19 2 19 20
M  V30 20 1 20 21
M  V30 21 1 21 22
M  V30 22 2 22 23
M  V30 23 1 14 24
M  V30 24 1 2 25
M  V30 25 1 25 26
M  V30 26 1 26 27
M  V30 27 1 27 28
M  V30 28 1 28 1
M  V30 29 1 8 3
M  V30 30 2 24 11
M  V30 31 1 24 5
M  V30 32 1 23 15
M  V30 33 1 22 18
M  V30 34 1 1 29
M  V30 35 1 4 30
M  V30 36 1 7 31
M  V30 37 1 10 32
M  V30 38 1 13 33
M  V30 39 1 16 34
M  V30 40 1 17 35
M  V30 41 1 20 36
M  V30 42 1 21 37
M  V30 43 1 23 38
M  V30 44 1 25 39
M  V30 45 1 25 40
M  V30 46 1 26 41
M  V30 47 1 26 42
M  V30 48 1 27 43
M  V30 49 1 27 44
M  V30 50 1 28 45
M  V30 51 1 28 46
M  V30 END BOND
M  V30 END CTAB
M  END
>  <Dataset>  (279) 
ChEMBL_Kinases

>  <Ligand_Instance>  (279) 
nan

>  <PDB_ID>  (279) 
nan

>  <Standardized_SMILES>  (279) 
C1=C(c2cc3c(cn2)ncc2ncn(-c4ccc5nc[nH]c5c4)c23)CCCC1

>  <Name>  (279) 
nan

>  <Pocket>  (279) 
nan

>  <ATP_Site>  (279) 
nan

>  <Peripheral>  (279) 
nan

>  <Num_H_Atoms_ProtBoundConf>  (279) 
nan

>  <Num_Resolved_Atoms>  (279) 
nan

>  <Num_Not_Resolved_Atoms>  (279) 
nan

$$$$
CHEMBL3885257
     RDKit          3D

  0  0  0  0  0  0  0  0  0  0999 V3000
M  V30 BEGIN CTAB
M  V30 COUNTS 49 52 0 0 0
M  V30 BEGIN ATOM
M  V30 1 C 1.504231 -2.840525 4.440480 0
M  V30 2 C 1.110963 -1.610033 3.664027 0
M  V30 3 C 0.611344 -0.503944 4.543598 0
M  V30 4 C 2.259463 -1.070169 2.872998 0
M  V30 5 O 3.284415 -0.721962 3.534189 0
M  V30 6 N 1.992220 -1.041168 1.474714 0
M  V30 7 C 2.907862 -0.575868 0.485420 0 CFG=2
M  V30 8 C 2.347033 0.678711 -0.078660 0
M  V30 9 C 1.854682 1.569834 0.878086 0
M  V30 10 C 1.308899 2.762033 0.527430 0
M  V30 11 C 1.244868 3.089432 -0.808613 0
M  V30 12 C 1.724220 2.226430 -1.771847 0
M  V30 13 C 2.281014 1.011974 -1.426536 0
M  V30 14 C 3.346384 -1.568539 -0.522294 0
M  V30 15 F 2.338748 -2.107372 -1.273446 0
M  V30 16 F 3.987572 -2.589251 0.130263 0
M  V30 17 C 0.680917 -1.557750 1.358025 0
M  V30 18 N -0.066099 -1.750655 0.254308 0
M  V30 19 C -1.309265 -2.260911 0.354132 0
M  V30 20 N -2.216177 -2.521678 -0.714331 0
M  V30 21 C -3.159282 -1.566794 -1.197204 0
M  V30 22 C -3.182816 -0.329541 -0.587627 0
M  V30 23 C -4.109697 0.562883 -1.085846 0
M  V30 24 C -4.972067 0.239288 -2.140532 0
M  V30 25 C -4.889244 -1.037032 -2.709010 0
M  V30 26 C -3.965461 -1.977640 -2.238665 0
M  V30 27 N -1.836688 -2.591752 1.566883 0
M  V30 28 C -1.122430 -2.416228 2.713475 0
M  V30 29 C 0.143352 -1.894744 2.591924 0
M  V30 30 H 2.221682 -3.406238 3.840887 0
M  V30 31 H 0.562970 -3.379495 4.661486 0
M  V30 32 H 1.952956 -2.509577 5.392522 0
M  V30 33 H 0.354999 0.343722 3.869751 0
M  V30 34 H -0.357295 -0.782441 5.045805 0
M  V30 35 H 1.344131 -0.129493 5.255454 0
M  V30 36 H 3.839017 -0.254666 1.035146 0
M  V30 37 H 1.880436 1.361764 1.943223 0
M  V30 38 H 0.919997 3.468964 1.261977 0
M  V30 39 H 0.818072 4.031349 -1.149306 0
M  V30 40 H 1.706671 2.417619 -2.838594 0
M  V30 41 H 2.680573 0.275049 -2.108323 0
M  V30 42 H 4.040738 -1.066912 -1.214735 0
M  V30 43 H -2.107904 -3.480485 -1.094022 0
M  V30 44 H -2.513068 -0.087676 0.226651 0
M  V30 45 H -4.196545 1.564384 -0.662305 0
M  V30 46 H -5.701891 0.938995 -2.534330 0
M  V30 47 H -5.523649 -1.368715 -3.532829 0
M  V30 48 H -3.881856 -2.970071 -2.660885 0
M  V30 49 H -1.546095 -2.680553 3.672688 0
M  V30 END ATOM
M  V30 BEGIN BOND
M  V30 1 1 1 2
M  V30 2 1 2 3
M  V30 3 1 2 4
M  V30 4 2 4 5
M  V30 5 1 4 6
M  V30 6 1 6 7
M  V30 7 1 7 8
M  V30 8 2 8 9
M  V30 9 1 9 10
M  V30 10 2 10 11
M  V30 11 1 11 12
M  V30 12 2 12 13
M  V30 13 1 7 14
M  V30 14 1 14 15
M  V30 15 1 14 16
M  V30 16 1 6 17
M  V30 17 2 17 18
M  V30 18 1 18 19
M  V30 19 1 19 20
M  V30 20 1 20 21
M  V30 21 2 21 22
M  V30 22 1 22 23
M  V30 23 2 23 24
M  V30 24 1 24 25
M  V30 25 2 25 26
M  V30 26 2 19 27
M  V30 27 1 27 28
M  V30 28 2 28 29
M  V30 29 1 29 2
M  V30 30 1 13 8
M  V30 31 1 29 17
M  V30 32 1 26 21
M  V30 33 1 1 30
M  V30 34 1 1 31
M  V30 35 1 1 32
M  V30 36 1 3 33
M  V30 37 1 3 34
M  V30 38 1 3 35
M  V30 39 1 7 36 CFG=1
M  V30 40 1 9 37
M  V30 41 1 10 38
M  V30 42 1 11 39
M  V30 43 1 12 40
M  V30 44 1 13 41
M  V30 45 1 14 42
M  V30 46 1 20 43
M  V30 47 1 22 44
M  V30 48 1 23 45
M  V30 49 1 24 46
M  V30 50 1 25 47
M  V30 51 1 26 48
M  V30 52 1 28 49
M  V30 END BOND
M  V30 END CTAB
M  END
>  <Dataset>  (280) 
ChEMBL_Kinases

>  <Ligand_Instance>  (280) 
nan

>  <PDB_ID>  (280) 
nan

>  <Standardized_SMILES>  (280) 
CC1(C)C(=O)N([C@H](c2ccccc2)C(F)F)c2nc(Nc3ccccc3)ncc21

>  <Name>  (280) 
nan

>  <Pocket>  (280) 
nan

>  <ATP_Site>  (280) 
nan

>  <Peripheral>  (280) 
nan

>  <Num_H_Atoms_ProtBoundConf>  (280) 
nan

>  <Num_Resolved_Atoms>  (280) 
nan

>  <Num_Not_Resolved_Atoms>  (280) 
nan

$$$$
CHEMBL3885232
     RDKit          3D

  0  0  0  0  0  0  0  0  0  0999 V3000
M  V30 BEGIN CTAB
M  V30 COUNTS 50 53 0 0 0
M  V30 BEGIN ATOM
M  V30 1 C 0.999102 -3.265219 0.197349 0
M  V30 2 N 2.158689 -2.522421 -0.293426 0
M  V30 3 C 3.530210 -2.894742 -0.397906 0
M  V30 4 O 3.924399 -4.037143 -0.061691 0
M  V30 5 C 4.381404 -1.794044 -0.932786 0
M  V30 6 C 5.260260 -1.371427 0.238264 0
M  V30 7 C 5.174873 -2.164603 -2.132880 0
M  V30 8 C 3.363041 -0.729097 -1.158628 0
M  V30 9 C 3.432365 0.567131 -1.641307 0
M  V30 10 N 2.326369 1.324055 -1.721435 0
M  V30 11 C 1.107869 0.897570 -1.351962 0
M  V30 12 N -0.132506 1.634068 -1.384956 0
M  V30 13 C -0.518295 1.778209 -0.000036 0
M  V30 14 C -0.145356 2.654558 0.979214 0
M  V30 15 C -0.682465 2.507124 2.240181 0
M  V30 16 C -1.580378 1.504219 2.539478 0
M  V30 17 C -1.967054 0.606946 1.555453 0
M  V30 18 N -2.878525 -0.427918 1.909694 0
M  V30 19 C -3.107495 -0.781635 3.296106 0
M  V30 20 C -4.457460 -0.307648 3.704276 0
M  V30 21 N -5.269340 -0.186914 2.500600 0
M  V30 22 C -5.057035 -1.293673 1.583250 0
M  V30 23 C -3.653940 -1.206628 0.992939 0
M  V30 24 C -1.431184 0.750944 0.284360 0
M  V30 25 N 1.062362 -0.361229 -0.887978 0
M  V30 26 C 2.118405 -1.182868 -0.775127 0
M  V30 27 H 1.178988 -4.349899 0.197245 0
M  V30 28 H 0.750628 -2.982463 1.257466 0
M  V30 29 H 0.091155 -2.989365 -0.408328 0
M  V30 30 H 5.968407 -0.568644 -0.010016 0
M  V30 31 H 4.574576 -0.981068 1.021714 0
M  V30 32 H 5.771073 -2.244500 0.681976 0
M  V30 33 H 6.066224 -2.726643 -1.772272 0
M  V30 34 H 5.462227 -1.275925 -2.685292 0
M  V30 35 H 4.540257 -2.777738 -2.807175 0
M  V30 36 H 4.367533 0.989467 -1.962694 0
M  V30 37 H -0.616394 1.985396 -2.259403 0
M  V30 38 H 0.555867 3.375974 0.597062 0
M  V30 39 H -0.333853 3.250174 2.971617 0
M  V30 40 H -1.937903 1.493321 3.569423 0
M  V30 41 H -2.273616 -0.486924 3.955752 0
M  V30 42 H -3.133278 -1.909168 3.401414 0
M  V30 43 H -4.373656 0.656125 4.223902 0
M  V30 44 H -4.947319 -1.008009 4.431653 0
M  V30 45 H -5.027345 0.697117 2.002978 0
M  V30 46 H -5.171457 -2.271987 2.114432 0
M  V30 47 H -5.818579 -1.167745 0.788577 0
M  V30 48 H -3.218051 -2.229166 0.992441 0
M  V30 49 H -3.716855 -0.805310 -0.026012 0
M  V30 50 H -1.815423 -0.012073 -0.388245 0
M  V30 END ATOM
M  V30 BEGIN BOND
M  V30 1 1 1 2
M  V30 2 1 2 3
M  V30 3 2 3 4
M  V30 4 1 3 5
M  V30 5 1 5 6
M  V30 6 1 5 7
M  V30 7 1 5 8
M  V30 8 2 8 9
M  V30 9 1 9 10
M  V30 10 2 10 11
M  V30 11 1 11 12
M  V30 12 1 12 13
M  V30 13 2 13 14
M  V30 14 1 14 15
M  V30 15 2 15 16
M  V30 16 1 16 17
M  V30 17 1 17 18
M  V30 18 1 18 19
M  V30 19 1 19 20
M  V30 20 1 20 21
M  V30 21 1 21 22
M  V30 22 1 22 23
M  V30 23 2 17 24
M  V30 24 1 11 25
M  V30 25 2 25 26
M  V30 26 1 26 2
M  V30 27 1 26 8
M  V30 28 1 24 13
M  V30 29 1 23 18
M  V30 30 1 1 27
M  V30 31 1 1 28
M  V30 32 1 1 29
M  V30 33 1 6 30
M  V30 34 1 6 31
M  V30 35 1 6 32
M  V30 36 1 7 33
M  V30 37 1 7 34
M  V30 38 1 7 35
M  V30 39 1 9 36
M  V30 40 1 12 37
M  V30 41 1 14 38
M  V30 42 1 15 39
M  V30 43 1 16 40
M  V30 44 1 19 41
M  V30 45 1 19 42
M  V30 46 1 20 43
M  V30 47 1 20 44
M  V30 48 1 21 45
M  V30 49 1 22 46
M  V30 50 1 22 47
M  V30 51 1 23 48
M  V30 52 1 23 49
M  V30 53 1 24 50
M  V30 END BOND
M  V30 END CTAB
M  END
>  <Dataset>  (281) 
ChEMBL_Kinases

>  <Ligand_Instance>  (281) 
nan

>  <PDB_ID>  (281) 
nan

>  <Standardized_SMILES>  (281) 
CN1C(=O)C(C)(C)c2cnc(Nc3cccc(N4CCNCC4)c3)nc21

>  <Name>  (281) 
nan

>  <Pocket>  (281) 
nan

>  <ATP_Site>  (281) 
nan

>  <Peripheral>  (281) 
nan

>  <Num_H_Atoms_ProtBoundConf>  (281) 
nan

>  <Num_Resolved_Atoms>  (281) 
nan

>  <Num_Not_Resolved_Atoms>  (281) 
nan

$$$$
CHEMBL3885080
     RDKit          3D

  0  0  0  0  0  0  0  0  0  0999 V3000
M  V30 BEGIN CTAB
M  V30 COUNTS 42 45 0 0 0
M  V30 BEGIN ATOM
M  V30 1 C 1.843362 -4.799208 2.391002 0
M  V30 2 C 2.374033 -3.591352 1.646460 0
M  V30 3 C 1.162289 -2.865632 1.122202 0 CFG=2
M  V30 4 C 0.436718 -3.865172 0.205397 0
M  V30 5 N 1.499237 -1.669094 0.400645 0
M  V30 6 C 2.343194 -1.719502 -0.761919 0
M  V30 7 O 2.872335 -2.701107 -1.327586 0
M  V30 8 C 2.530071 -0.354960 -1.255812 0
M  V30 9 C 2.616433 -0.133180 -2.704504 0
M  V30 10 C 3.816754 0.137693 -1.768949 0
M  V30 11 C 1.695979 0.455415 -0.345893 0
M  V30 12 C 1.468896 1.831304 -0.369882 0
M  V30 13 N 0.676595 2.387091 0.578630 0
M  V30 14 C 0.116001 1.598939 1.536369 0
M  V30 15 N -0.673976 2.378352 2.417139 0
M  V30 16 C -2.091023 2.313102 2.359580 0
M  V30 17 C -2.721466 1.363724 1.540039 0
M  V30 18 C -4.117721 1.280489 1.475320 0
M  V30 19 C -4.841001 2.165483 2.246057 0
M  V30 20 N -4.223756 3.084981 3.039239 0
M  V30 21 C -2.886943 3.183437 3.117520 0
M  V30 22 N 0.327702 0.260569 1.570439 0
M  V30 23 C 1.122426 -0.322338 0.625099 0
M  V30 24 H 2.641658 -5.367470 2.908941 0
M  V30 25 H 1.039054 -4.539767 3.100769 0
M  V30 26 H 1.354607 -5.510292 1.665107 0
M  V30 27 H 2.958231 -4.013916 0.788406 0
M  V30 28 H 2.977680 -3.029370 2.360631 0
M  V30 29 H 0.515836 -2.644841 1.983518 0
M  V30 30 H 1.209260 -4.535925 -0.238741 0
M  V30 31 H 0.078295 -3.253899 -0.653536 0
M  V30 32 H -0.368995 -4.381790 0.727436 0
M  V30 33 H 2.714867 -0.958610 -3.415590 0
M  V30 34 H 2.090526 0.745870 -3.136572 0
M  V30 35 H 4.088726 1.179615 -1.599110 0
M  V30 36 H 4.652136 -0.606381 -1.898547 0
M  V30 37 H 1.934681 2.443853 -1.156996 0
M  V30 38 H -0.271679 3.033117 3.140606 0
M  V30 39 H -2.146887 0.660857 0.927685 0
M  V30 40 H -4.591232 0.531565 0.832640 0
M  V30 41 H -5.939418 2.096006 2.192435 0
M  V30 42 H -2.418592 3.939798 3.766041 0
M  V30 END ATOM
M  V30 BEGIN BOND
M  V30 1 1 1 2
M  V30 2 1 2 3
M  V30 3 1 3 4
M  V30 4 1 3 5
M  V30 5 1 5 6
M  V30 6 2 6 7
M  V30 7 1 6 8
M  V30 8 1 8 9
M  V30 9 1 9 10
M  V30 10 1 8 11
M  V30 11 2 11 12
M  V30 12 1 12 13
M  V30 13 2 13 14
M  V30 14 1 14 15
M  V30 15 1 15 16
M  V30 16 2 16 17
M  V30 17 1 17 18
M  V30 18 2 18 19
M  V30 19 1 19 20
M  V30 20 2 20 21
M  V30 21 1 14 22
M  V30 22 2 22 23
M  V30 23 1 23 5
M  V30 24 1 10 8
M  V30 25 1 23 11
M  V30 26 1 21 16
M  V30 27 1 1 24
M  V30 28 1 1 25
M  V30 29 1 1 26
M  V30 30 1 2 27
M  V30 31 1 2 28
M  V30 32 1 3 29 CFG=1
M  V30 33 1 4 30
M  V30 34 1 4 31
M  V30 35 1 4 32
M  V30 36 1 9 33
M  V30 37 1 9 34
M  V30 38 1 10 35
M  V30 39 1 10 36
M  V30 40 1 12 37
M  V30 41 1 15 38
M  V30 42 1 17 39
M  V30 43 1 18 40
M  V30 44 1 19 41
M  V30 45 1 21 42
M  V30 END BOND
M  V30 END CTAB
M  END
>  <Dataset>  (282) 
ChEMBL_Kinases

>  <Ligand_Instance>  (282) 
nan

>  <PDB_ID>  (282) 
nan

>  <Standardized_SMILES>  (282) 
CC[C@H](C)N1C(=O)C2(CC2)c2cnc(Nc3cccnc3)nc21

>  <Name>  (282) 
nan

>  <Pocket>  (282) 
nan

>  <ATP_Site>  (282) 
nan

>  <Peripheral>  (282) 
nan

>  <Num_H_Atoms_ProtBoundConf>  (282) 
nan

>  <Num_Resolved_Atoms>  (282) 
nan

>  <Num_Not_Resolved_Atoms>  (282) 
nan

$$$$
CHEMBL600047
     RDKit          3D

  0  0  0  0  0  0  0  0  0  0999 V3000
M  V30 BEGIN CTAB
M  V30 COUNTS 62 66 0 0 0
M  V30 BEGIN ATOM
M  V30 1 C 0.878560 -0.407468 8.118317 0
M  V30 2 C 0.642217 0.253948 6.812714 0
M  V30 3 C -0.146196 -0.291588 5.824777 0
M  V30 4 C -0.305909 0.395359 4.650145 0
M  V30 5 C 0.237282 1.600132 4.317663 0
M  V30 6 C 0.096774 2.344841 3.092324 0
M  V30 7 N 0.677670 3.546452 2.926417 0
M  V30 8 C 0.432266 4.066513 1.729752 0
M  V30 9 C 0.822764 5.331845 1.070193 0
M  V30 10 F 1.146228 6.225513 2.098094 0
M  V30 11 F 1.892269 5.173625 0.233269 0
M  V30 12 F -0.274397 5.862588 0.416291 0
M  V30 13 N -0.331602 3.187051 1.083449 0
M  V30 14 C -0.541109 2.140207 1.898928 0
M  V30 15 C -1.322140 0.986732 1.544957 0
M  V30 16 O -1.881719 -0.114191 1.640957 0
M  V30 17 N -1.880637 1.015371 0.201540 0
M  V30 18 C -2.675570 -0.121241 -0.209506 0
M  V30 19 C -4.037358 -0.174708 -0.004750 0
M  V30 20 C -4.718775 -1.284184 -0.422420 0
M  V30 21 C -4.076759 -2.328278 -1.032950 0
M  V30 22 C -4.916036 -3.475934 -1.442213 0
M  V30 23 C -2.720652 -2.329316 -1.263278 0
M  V30 24 N -2.137295 -3.438333 -1.913437 0
M  V30 25 C -0.835559 -3.740565 -2.351148 0
M  V30 26 C -0.335075 -5.048169 -2.298631 0
M  V30 27 C 0.907270 -5.442620 -2.715204 0
M  V30 28 C 1.726507 -4.478941 -3.224452 0
M  V30 29 N 2.953605 -4.850607 -3.638980 0
M  V30 30 C 3.826477 -3.956009 -4.156131 0
M  V30 31 N 3.416115 -2.662695 -4.241772 0
M  V30 32 C 4.349687 -1.702819 -4.795554 0
M  V30 33 C 2.200542 -2.243054 -3.841141 0
M  V30 34 O 1.806277 -1.070882 -3.909866 0
M  V30 35 C 1.336791 -3.174961 -3.320543 0
M  V30 36 C 0.075409 -2.855353 -2.882547 0
M  V30 37 C -2.074542 -1.196595 -0.827842 0
M  V30 38 C 1.010994 2.096952 5.334104 0
M  V30 39 C 1.218304 1.471049 6.534192 0
M  V30 40 F 1.998318 2.030971 7.485656 0
M  V30 41 H -0.019557 -0.937562 8.492920 0
M  V30 42 H 1.228139 0.363019 8.829884 0
M  V30 43 H 1.687774 -1.161855 8.026061 0
M  V30 44 H -0.603340 -1.238716 6.022888 0
M  V30 45 H -0.938263 -0.116313 3.957777 0
M  V30 46 H 1.285981 4.155243 3.553589 0
M  V30 47 H -1.782462 1.790436 -0.557318 0
M  V30 48 H -4.545111 0.655885 0.480469 0
M  V30 49 H -5.784993 -1.304531 -0.251199 0
M  V30 50 H -4.710751 -3.679767 -2.530152 0
M  V30 51 H -5.983762 -3.297439 -1.334683 0
M  V30 52 H -4.564339 -4.371157 -0.894982 0
M  V30 53 H -2.786705 -4.247405 -2.147653 0
M  V30 54 H -1.003571 -5.819397 -1.885828 0
M  V30 55 H 1.221183 -6.471992 -2.642033 0
M  V30 56 H 4.804412 -4.288302 -4.479764 0
M  V30 57 H 4.676389 -1.939128 -5.825076 0
M  V30 58 H 3.956712 -0.681269 -4.769797 0
M  V30 59 H 5.288778 -1.690318 -4.177084 0
M  V30 60 H -0.184076 -1.826163 -2.992840 0
M  V30 61 H -1.017106 -1.121254 -0.956801 0
M  V30 62 H 1.532492 3.065108 5.243955 0
M  V30 END ATOM
M  V30 BEGIN BOND
M  V30 1 1 1 2
M  V30 2 2 2 3
M  V30 3 1 3 4
M  V30 4 2 4 5
M  V30 5 1 5 6
M  V30 6 1 6 7
M  V30 7 1 7 8
M  V30 8 1 8 9
M  V30 9 1 9 10
M  V30 10 1 9 11
M  V30 11 1 9 12
M  V30 12 2 8 13
M  V30 13 1 13 14
M  V30 14 1 14 15
M  V30 15 2 15 16
M  V30 16 1 15 17
M  V30 17 1 17 18
M  V30 18 2 18 19
M  V30 19 1 19 20
M  V30 20 2 20 21
M  V30 21 1 21 22
M  V30 22 1 21 23
M  V30 23 1 23 24
M  V30 24 1 24 25
M  V30 25 2 25 26
M  V30 26 1 26 27
M  V30 27 2 27 28
M  V30 28 1 28 29
M  V30 29 2 29 30
M  V30 30 1 30 31
M  V30 31 1 31 32
M  V30 32 1 31 33
M  V30 33 2 33 34
M  V30 34 1 33 35
M  V30 35 2 35 36
M  V30 36 2 23 37
M  V30 37 1 5 38
M  V30 38 2 38 39
M  V30 39 1 39 40
M  V30 40 1 39 2
M  V30 41 2 14 6
M  V30 42 1 37 18
M  V30 43 1 36 25
M  V30 44 1 35 28
M  V30 45 1 1 41
M  V30 46 1 1 42
M  V30 47 1 1 43
M  V30 48 1 3 44
M  V30 49 1 4 45
M  V30 50 1 7 46
M  V30 51 1 17 47
M  V30 52 1 19 48
M  V30 53 1 20 49
M  V30 54 1 22 50
M  V30 55 1 22 51
M  V30 56 1 22 52
M  V30 57 1 24 53
M  V30 58 1 26 54
M  V30 59 1 27 55
M  V30 60 1 30 56
M  V30 61 1 32 57
M  V30 62 1 32 58
M  V30 63 1 32 59
M  V30 64 1 36 60
M  V30 65 1 37 61
M  V30 66 1 38 62
M  V30 END BOND
M  V30 END CTAB
M  END
>  <Dataset>  (283) 
ChEMBL_Kinases

>  <Ligand_Instance>  (283) 
nan

>  <PDB_ID>  (283) 
nan

>  <Standardized_SMILES>  (283) 
Cc1ccc(-c2[nH]c(C(F)(F)F)nc2C(=O)Nc2ccc(C)c(Nc3ccc4ncn(C)c(=O)c4c3)c2)cc1F

>  <Name>  (283) 
nan

>  <Pocket>  (283) 
nan

>  <ATP_Site>  (283) 
nan

>  <Peripheral>  (283) 
nan

>  <Num_H_Atoms_ProtBoundConf>  (283) 
nan

>  <Num_Resolved_Atoms>  (283) 
nan

>  <Num_Not_Resolved_Atoms>  (283) 
nan

$$$$
CHEMBL4877712
     RDKit          3D

  0  0  0  0  0  0  0  0  0  0999 V3000
M  V30 BEGIN CTAB
M  V30 COUNTS 38 41 0 0 0
M  V30 BEGIN ATOM
M  V30 1 F -1.376533 -2.215478 4.852728 0
M  V30 2 C -0.339696 -2.823390 4.205170 0
M  V30 3 C 0.196197 -4.043738 4.614880 0
M  V30 4 C 1.253386 -4.579762 3.885746 0
M  V30 5 C 1.735018 -3.888280 2.784900 0
M  V30 6 F 2.756916 -4.514565 2.168954 0
M  V30 7 C 1.213911 -2.679787 2.368573 0
M  V30 8 C 1.809226 -2.052970 1.195132 0
M  V30 9 C 1.371673 -0.848366 0.689846 0
M  V30 10 C 1.923106 -0.243023 -0.417276 0
M  V30 11 N 1.476255 0.997724 -0.943281 0
M  V30 12 C 0.400836 1.873703 -0.647821 0
M  V30 13 C 0.612968 3.185075 -0.220706 0
M  V30 14 C -0.378302 4.092287 0.081686 0
M  V30 15 N -1.634607 3.659844 -0.052061 0
M  V30 16 C -1.957623 2.424015 -0.454199 0
M  V30 17 C -3.277625 2.017812 -0.583644 0
M  V30 18 C -3.612363 0.727816 -1.008586 0
M  V30 19 C -2.570661 -0.153845 -1.303722 0
M  V30 20 C -1.283384 0.299365 -1.158491 0
M  V30 21 C -0.938336 1.566633 -0.740590 0
M  V30 22 C 2.968119 -0.852440 -1.072761 0
M  V30 23 C 3.392776 -2.055247 -0.554698 0
M  V30 24 N 2.836734 -2.616874 0.521630 0
M  V30 25 C 0.166669 -2.163999 3.103327 0
M  V30 26 H -0.260215 -4.498312 5.493195 0
M  V30 27 H 1.640466 -5.523821 4.233105 0
M  V30 28 H 0.556370 -0.317244 1.155519 0
M  V30 29 H 1.955955 1.476536 -1.719066 0
M  V30 30 H 1.638956 3.542025 -0.110323 0
M  V30 31 H -0.146020 5.086487 0.405145 0
M  V30 32 H -4.090001 2.719306 -0.348987 0
M  V30 33 H -4.647694 0.429079 -1.103447 0
M  V30 34 H -2.813442 -1.157698 -1.634675 0
M  V30 35 H -0.532982 -0.436055 -1.410319 0
M  V30 36 H 3.467991 -0.457359 -1.950165 0
M  V30 37 H 4.212218 -2.578319 -1.031572 0
M  V30 38 H -0.251544 -1.218267 2.789037 0
M  V30 END ATOM
M  V30 BEGIN BOND
M  V30 1 1 1 2
M  V30 2 2 2 3
M  V30 3 1 3 4
M  V30 4 2 4 5
M  V30 5 1 5 6
M  V30 6 1 5 7
M  V30 7 1 7 8
M  V30 8 2 8 9
M  V30 9 1 9 10
M  V30 10 1 10 11
M  V30 11 1 11 12
M  V30 12 2 12 13
M  V30 13 1 13 14
M  V30 14 2 14 15
M  V30 15 1 15 16
M  V30 16 2 16 17
M  V30 17 1 17 18
M  V30 18 2 18 19
M  V30 19 1 19 20
M  V30 20 2 20 21
M  V30 21 2 10 22
M  V30 22 1 22 23
M  V30 23 2 23 24
M  V30 24 2 7 25
M  V30 25 1 25 2
M  V30 26 1 24 8
M  V30 27 1 21 12
M  V30 28 1 21 16
M  V30 29 1 3 26
M  V30 30 1 4 27
M  V30 31 1 9 28
M  V30 32 1 11 29
M  V30 33 1 13 30
M  V30 34 1 14 31
M  V30 35 1 17 32
M  V30 36 1 18 33
M  V30 37 1 19 34
M  V30 38 1 20 35
M  V30 39 1 22 36
M  V30 40 1 23 37
M  V30 41 1 25 38
M  V30 END BOND
M  V30 END CTAB
M  END
>  <Dataset>  (284) 
ChEMBL_Kinases

>  <Ligand_Instance>  (284) 
nan

>  <PDB_ID>  (284) 
nan

>  <Standardized_SMILES>  (284) 
Fc1ccc(F)c(-c2cc(Nc3ccnc4ccccc34)ccn2)c1

>  <Name>  (284) 
nan

>  <Pocket>  (284) 
nan

>  <ATP_Site>  (284) 
nan

>  <Peripheral>  (284) 
nan

>  <Num_H_Atoms_ProtBoundConf>  (284) 
nan

>  <Num_Resolved_Atoms>  (284) 
nan

>  <Num_Not_Resolved_Atoms>  (284) 
nan

$$$$
CHEMBL600852
     RDKit          3D

  0  0  0  0  0  0  0  0  0  0999 V3000
M  V30 BEGIN CTAB
M  V30 COUNTS 58 61 0 0 0
M  V30 BEGIN ATOM
M  V30 1 N 6.068852 -2.966392 4.388788 0
M  V30 2 C 6.379168 -1.584765 4.524594 0
M  V30 3 O 7.183116 -1.195302 5.410278 0
M  V30 4 C 5.755232 -0.624318 3.625852 0
M  V30 5 C 6.015540 0.722807 3.705729 0
M  V30 6 C 5.430397 1.650516 2.858727 0
M  V30 7 C 4.544837 1.256117 1.879582 0
M  V30 8 N 3.976438 2.241974 1.040854 0
M  V30 9 C 3.057140 2.108215 -0.015535 0
M  V30 10 O 2.635296 0.970213 -0.311900 0
M  V30 11 N 2.549832 3.157897 -0.795445 0
M  V30 12 C 1.612806 3.005015 -1.863909 0
M  V30 13 C 0.220217 2.793381 -1.471193 0
M  V30 14 C -0.511991 3.969090 -1.320870 0
M  V30 15 C -1.839169 3.940266 -0.955644 0
M  V30 16 C -2.535481 2.776022 -0.714703 0
M  V30 17 C -1.792871 1.602699 -0.867773 0
M  V30 18 C -2.325124 0.248045 -0.661343 0
M  V30 19 O -1.673167 -0.839844 -0.766111 0
M  V30 20 N -3.667966 -0.001564 -0.311504 0
M  V30 21 C -3.875067 -1.418781 -0.181032 0
M  V30 22 C -3.673721 -1.936718 1.088099 0
M  V30 23 C -3.863359 -3.295652 1.241622 0
M  V30 24 C -4.240791 -4.100302 0.159762 0
M  V30 25 C -4.418442 -3.498899 -1.066185 0
M  V30 26 C -4.242484 -2.148692 -1.273613 0
M  V30 27 C -4.813704 -4.472333 -2.118926 0
M  V30 28 N -4.138253 -5.743007 -1.943458 0
M  V30 29 C -4.440976 -6.396989 -0.705149 0
M  V30 30 C -4.401621 -5.535497 0.508571 0
M  V30 31 C -0.462699 1.615867 -1.233251 0
M  V30 32 C 4.310063 -0.095690 1.830452 0
M  V30 33 C 4.872984 -1.038714 2.654178 0
M  V30 34 H 5.110852 -3.382400 4.515141 0
M  V30 35 H 6.756241 -3.716391 4.149805 0
M  V30 36 H 6.703726 1.128485 4.450154 0
M  V30 37 H 5.668872 2.700134 2.963065 0
M  V30 38 H 4.244593 3.243978 1.181998 0
M  V30 39 H 2.880152 4.142103 -0.584051 0
M  V30 40 H 1.929774 2.112566 -2.484695 0
M  V30 41 H 1.674698 3.859102 -2.592241 0
M  V30 42 H -0.092579 4.962233 -1.478485 0
M  V30 43 H -2.403799 4.857218 -0.840356 0
M  V30 44 H -3.560351 2.668912 -0.429097 0
M  V30 45 H -4.346979 0.806582 -0.187169 0
M  V30 46 H -3.380131 -1.291492 1.915545 0
M  V30 47 H -3.696620 -3.672822 2.255295 0
M  V30 48 H -4.397386 -1.755893 -2.247875 0
M  V30 49 H -4.491197 -4.068227 -3.100375 0
M  V30 50 H -5.904882 -4.608966 -2.096244 0
M  V30 51 H -3.124787 -5.652035 -2.066274 0
M  V30 52 H -3.656519 -7.203104 -0.594993 0
M  V30 53 H -5.396624 -6.962709 -0.742861 0
M  V30 54 H -5.345207 -5.672443 1.092020 0
M  V30 55 H -3.537228 -5.841565 1.168956 0
M  V30 56 H 0.134581 0.727147 -1.362415 0
M  V30 57 H 3.632927 -0.490513 1.096991 0
M  V30 58 H 4.647449 -2.092415 2.565882 0
M  V30 END ATOM
M  V30 BEGIN BOND
M  V30 1 1 1 2
M  V30 2 2 2 3
M  V30 3 1 2 4
M  V30 4 2 4 5
M  V30 5 1 5 6
M  V30 6 2 6 7
M  V30 7 1 7 8
M  V30 8 1 8 9
M  V30 9 2 9 10
M  V30 10 1 9 11
M  V30 11 1 11 12
M  V30 12 1 12 13
M  V30 13 2 13 14
M  V30 14 1 14 15
M  V30 15 2 15 16
M  V30 16 1 16 17
M  V30 17 1 17 18
M  V30 18 2 18 19
M  V30 19 1 18 20
M  V30 20 1 20 21
M  V30 21 2 21 22
M  V30 22 1 22 23
M  V30 23 2 23 24
M  V30 24 1 24 25
M  V30 25 2 25 26
M  V30 26 1 25 27
M  V30 27 1 27 28
M  V30 28 1 28 29
M  V30 29 1 29 30
M  V30 30 2 17 31
M  V30 31 1 7 32
M  V30 32 2 32 33
M  V30 33 1 33 4
M  V30 34 1 31 13
M  V30 35 1 26 21
M  V30 36 1 30 24
M  V30 37 1 1 34
M  V30 38 1 1 35
M  V30 39 1 5 36
M  V30 40 1 6 37
M  V30 41 1 8 38
M  V30 42 1 11 39
M  V30 43 1 12 40
M  V30 44 1 12 41
M  V30 45 1 14 42
M  V30 46 1 15 43
M  V30 47 1 16 44
M  V30 48 1 20 45
M  V30 49 1 22 46
M  V30 50 1 23 47
M  V30 51 1 26 48
M  V30 52 1 27 49
M  V30 53 1 27 50
M  V30 54 1 28 51
M  V30 55 1 29 52
M  V30 56 1 29 53
M  V30 57 1 30 54
M  V30 58 1 30 55
M  V30 59 1 31 56
M  V30 60 1 32 57
M  V30 61 1 33 58
M  V30 END BOND
M  V30 END CTAB
M  END
>  <Dataset>  (285) 
ChEMBL_Kinases

>  <Ligand_Instance>  (285) 
nan

>  <PDB_ID>  (285) 
nan

>  <Standardized_SMILES>  (285) 
NC(=O)c1ccc(NC(=O)NCc2cccc(C(=O)Nc3ccc4c(c3)CNCC4)c2)cc1

>  <Name>  (285) 
nan

>  <Pocket>  (285) 
nan

>  <ATP_Site>  (285) 
nan

>  <Peripheral>  (285) 
nan

>  <Num_H_Atoms_ProtBoundConf>  (285) 
nan

>  <Num_Resolved_Atoms>  (285) 
nan

>  <Num_Not_Resolved_Atoms>  (285) 
nan

$$$$
CHEMBL4879029
     RDKit          3D

  0  0  0  0  0  0  0  0  0  0999 V3000
M  V30 BEGIN CTAB
M  V30 COUNTS 48 49 0 0 0
M  V30 BEGIN ATOM
M  V30 1 N 2.778242 -6.890359 3.230417 0
M  V30 2 C 2.507388 -6.068324 2.473792 0
M  V30 3 C 2.189890 -5.029512 1.532872 0
M  V30 4 C 2.237367 -3.682944 1.812539 0
M  V30 5 C 1.910394 -2.775020 0.829392 0
M  V30 6 C 1.530789 -3.142373 -0.442532 0
M  V30 7 N 1.175681 -2.267394 -1.498618 0
M  V30 8 C 1.054447 -0.856739 -1.456515 0
M  V30 9 N 0.741911 -0.190048 -2.589929 0
M  V30 10 C 0.601647 1.134025 -2.655583 0
M  V30 11 C 0.778723 1.893098 -1.521460 0
M  V30 12 C 0.641640 3.356276 -1.513811 0
M  V30 13 F 0.317987 3.752277 -2.809047 0
M  V30 14 F 1.789837 4.038487 -1.197053 0
M  V30 15 F -0.441660 3.769840 -0.736715 0
M  V30 16 C 1.102012 1.247227 -0.328660 0
M  V30 17 N 1.296680 1.997189 0.862256 0
M  V30 18 C 1.629040 1.495006 2.179584 0
M  V30 19 C 0.572470 0.597299 2.764085 0
M  V30 20 C -0.727000 1.373309 2.881295 0
M  V30 21 N -1.784401 0.596919 3.439727 0
M  V30 22 C -2.273018 -0.479612 2.647932 0
M  V30 23 C -3.002509 -0.066603 1.409989 0
M  V30 24 C -3.453992 -1.290192 0.690191 0
M  V30 25 N -4.186935 -1.085607 -0.509761 0
M  V30 26 O -3.316357 -2.524221 0.932977 0
M  V30 27 N 1.216907 -0.078749 -0.379680 0
M  V30 28 C 1.511181 -4.504962 -0.633216 0
M  V30 29 N 1.820354 -5.408395 0.291581 0
M  V30 30 H 2.531402 -3.374278 2.799136 0
M  V30 31 H 1.962755 -1.742676 1.081208 0
M  V30 32 H 0.980404 -2.730041 -2.424572 0
M  V30 33 H 0.350517 1.610314 -3.593912 0
M  V30 34 H 1.185551 3.051086 0.785518 0
M  V30 35 H 1.873537 2.319533 2.874531 0
M  V30 36 H 2.589856 0.899737 2.121602 0
M  V30 37 H 0.406517 -0.290768 2.156669 0
M  V30 38 H 0.866708 0.290784 3.786639 0
M  V30 39 H -0.535954 2.209589 3.589511 0
M  V30 40 H -1.020219 1.851172 1.931063 0
M  V30 41 H -1.583594 0.304333 4.399571 0
M  V30 42 H -2.997008 -1.043305 3.307142 0
M  V30 43 H -1.493381 -1.238658 2.398793 0
M  V30 44 H -2.304093 0.460260 0.724072 0
M  V30 45 H -3.862084 0.572071 1.656877 0
M  V30 46 H -5.125972 -1.520366 -0.752812 0
M  V30 47 H -4.522871 -0.785816 -1.442269 0
M  V30 48 H 1.223239 -4.920079 -1.610091 0
M  V30 END ATOM
M  V30 BEGIN BOND
M  V30 1 3 1 2
M  V30 2 1 2 3
M  V30 3 2 3 4
M  V30 4 1 4 5
M  V30 5 2 5 6
M  V30 6 1 6 7
M  V30 7 1 7 8
M  V30 8 2 8 9
M  V30 9 1 9 10
M  V30 10 2 10 11
M  V30 11 1 11 12
M  V30 12 1 12 13
M  V30 13 1 12 14
M  V30 14 1 12 15
M  V30 15 1 11 16
M  V30 16 1 16 17
M  V30 17 1 17 18
M  V30 18 1 18 19
M  V30 19 1 19 20
M  V30 20 1 20 21
M  V30 21 1 21 22
M  V30 22 1 22 23
M  V30 23 1 23 24
M  V30 24 1 24 25
M  V30 25 2 24 26
M  V30 26 2 16 27
M  V30 27 1 6 28
M  V30 28 2 28 29
M  V30 29 1 29 3
M  V30 30 1 27 8
M  V30 31 1 4 30
M  V30 32 1 5 31
M  V30 33 1 7 32
M  V30 34 1 10 33
M  V30 35 1 17 34
M  V30 36 1 18 35
M  V30 37 1 18 36
M  V30 38 1 19 37
M  V30 39 1 19 38
M  V30 40 1 20 39
M  V30 41 1 20 40
M  V30 42 1 21 41
M  V30 43 1 22 42
M  V30 44 1 22 43
M  V30 45 1 23 44
M  V30 46 1 23 45
M  V30 47 1 25 46
M  V30 48 1 25 47
M  V30 49 1 28 48
M  V30 END BOND
M  V30 END CTAB
M  END
>  <Dataset>  (286) 
ChEMBL_Kinases

>  <Ligand_Instance>  (286) 
nan

>  <PDB_ID>  (286) 
nan

>  <Standardized_SMILES>  (286) 
N#Cc1ccc(Nc2ncc(C(F)(F)F)c(NCCCNCCC(N)=O)n2)cn1

>  <Name>  (286) 
nan

>  <Pocket>  (286) 
nan

>  <ATP_Site>  (286) 
nan

>  <Peripheral>  (286) 
nan

>  <Num_H_Atoms_ProtBoundConf>  (286) 
nan

>  <Num_Resolved_Atoms>  (286) 
nan

>  <Num_Not_Resolved_Atoms>  (286) 
nan

$$$$
CHEMBL3885021
     RDKit          3D

  0  0  0  0  0  0  0  0  0  0999 V3000
M  V30 BEGIN CTAB
M  V30 COUNTS 40 43 0 0 0
M  V30 BEGIN ATOM
M  V30 1 C 3.807974 -1.278486 4.087525 0
M  V30 2 O 2.756330 -0.971565 3.203913 0
M  V30 3 C 2.570221 -1.663102 2.020863 0
M  V30 4 C 3.323940 -2.705256 1.528643 0
M  V30 5 C 3.066099 -3.339543 0.336594 0
M  V30 6 C 1.994052 -2.953690 -0.470632 0
M  V30 7 N 1.516332 -3.377177 -1.648817 0
M  V30 8 C 0.422385 -2.628869 -1.984968 0
M  V30 9 C 0.267691 -1.735353 -0.949589 0
M  V30 10 C 1.238134 -1.910733 0.019723 0
M  V30 11 C 1.489805 -1.264256 1.221587 0
M  V30 12 C 0.781085 -0.144944 1.871203 0
M  V30 13 C 1.574923 1.151523 1.752891 0
M  V30 14 N -0.546226 0.096792 1.395420 0
M  V30 15 C -1.169641 0.068414 0.094876 0
M  V30 16 C -2.243227 1.041057 -0.042642 0
M  V30 17 C -3.230285 1.160359 0.943776 0
M  V30 18 C -4.259436 2.059995 0.908083 0
M  V30 19 C -4.359584 2.928490 -0.166516 0
M  V30 20 N -3.411087 2.814250 -1.114115 0
M  V30 21 C -2.411852 1.928339 -1.062450 0
M  V30 22 C -0.791697 -0.733297 -0.884684 0
M  V30 23 C -1.595161 -0.586878 -2.061381 0
M  V30 24 N -2.264855 -0.483305 -3.027478 0
M  V30 25 H 4.682663 -0.591293 3.926964 0
M  V30 26 H 3.526214 -1.089624 5.155769 0
M  V30 27 H 4.164900 -2.322013 4.040927 0
M  V30 28 H 4.164268 -3.020524 2.143862 0
M  V30 29 H 3.693049 -4.156725 -0.002678 0
M  V30 30 H 1.894528 -4.155403 -2.244829 0
M  V30 31 H -0.212677 -2.701561 -2.874418 0
M  V30 32 H 0.734812 -0.380687 2.966192 0
M  V30 33 H 1.627221 1.669308 2.729821 0
M  V30 34 H 1.098910 1.831703 0.991613 0
M  V30 35 H 2.605231 0.985919 1.391617 0
M  V30 36 H -1.236528 0.360371 2.161029 0
M  V30 37 H -3.232933 0.518172 1.825131 0
M  V30 38 H -5.006808 2.123224 1.689161 0
M  V30 39 H -5.122699 3.672919 -0.296640 0
M  V30 40 H -1.702594 1.935003 -1.869520 0
M  V30 END ATOM
M  V30 BEGIN BOND
M  V30 1 1 1 2
M  V30 2 1 2 3
M  V30 3 2 3 4
M  V30 4 1 4 5
M  V30 5 2 5 6
M  V30 6 1 6 7
M  V30 7 1 7 8
M  V30 8 2 8 9
M  V30 9 1 9 10
M  V30 10 2 10 11
M  V30 11 1 11 12
M  V30 12 1 12 13
M  V30 13 1 12 14
M  V30 14 1 14 15
M  V30 15 1 15 16
M  V30 16 2 16 17
M  V30 17 1 17 18
M  V30 18 2 18 19
M  V30 19 1 19 20
M  V30 20 2 20 21
M  V30 21 2 15 22
M  V30 22 1 22 23
M  V30 23 3 23 24
M  V30 24 1 11 3
M  V30 25 1 21 16
M  V30 26 1 10 6
M  V30 27 1 22 9
M  V30 28 1 1 25
M  V30 29 1 1 26
M  V30 30 1 1 27
M  V30 31 1 4 28
M  V30 32 1 5 29
M  V30 33 1 7 30
M  V30 34 1 8 31
M  V30 35 1 12 32
M  V30 36 1 13 33
M  V30 37 1 13 34
M  V30 38 1 13 35
M  V30 39 1 14 36
M  V30 40 1 17 37
M  V30 41 1 18 38
M  V30 42 1 19 39
M  V30 43 1 21 40
M  V30 END BOND
M  V30 END CTAB
M  END
>  <Dataset>  (287) 
ChEMBL_Kinases

>  <Ligand_Instance>  (287) 
nan

>  <PDB_ID>  (287) 
nan

>  <Standardized_SMILES>  (287) 
COc1ccc2[nH]cc3c2c1C(C)NC(c1cccnc1)=C3C#N

>  <Name>  (287) 
nan

>  <Pocket>  (287) 
nan

>  <ATP_Site>  (287) 
nan

>  <Peripheral>  (287) 
nan

>  <Num_H_Atoms_ProtBoundConf>  (287) 
nan

>  <Num_Resolved_Atoms>  (287) 
nan

>  <Num_Not_Resolved_Atoms>  (287) 
nan

$$$$
CHEMBL4879157
     RDKit          3D

  0  0  0  0  0  0  0  0  0  0999 V3000
M  V30 BEGIN CTAB
M  V30 COUNTS 70 75 0 0 0
M  V30 BEGIN ATOM
M  V30 1 C 5.554706 1.437911 -0.973048 0
M  V30 2 C 6.368202 1.002699 -0.028563 0
M  V30 3 C 5.478060 -0.106508 0.339887 0
M  V30 4 N 4.287337 -0.236094 -0.422184 0
M  V30 5 C 4.203762 -0.986022 -1.546241 0
M  V30 6 O 5.112538 -1.665206 -2.093860 0
M  V30 7 C 2.922907 -0.897585 -2.028595 0
M  V30 8 C 2.350916 -1.483777 -3.138617 0
M  V30 9 N 1.047589 -1.201559 -3.344185 0
M  V30 10 C 0.333836 -0.401962 -2.531145 0
M  V30 11 N -1.032951 -0.210614 -2.871300 0
M  V30 12 C -1.972866 -0.957739 -2.109157 0
M  V30 13 C -1.541059 -1.671416 -1.002485 0
M  V30 14 C -2.364438 -2.432889 -0.185518 0
M  V30 15 C -3.698848 -2.460791 -0.525802 0
M  V30 16 N -4.657281 -3.191116 0.221903 0
M  V30 17 C -6.057781 -3.499348 -0.085302 0
M  V30 18 C -6.291073 -4.987281 0.119860 0
M  V30 19 N -5.036543 -5.691347 0.149139 0
M  V30 20 C -5.167447 -7.113572 0.100785 0
M  V30 21 C -4.252558 -5.323710 1.314920 0
M  V30 22 C -4.380068 -3.803565 1.533433 0
M  V30 23 C -4.166607 -1.764258 -1.620160 0
M  V30 24 C -3.321993 -1.015513 -2.413458 0
M  V30 25 N 0.944901 0.140924 -1.465082 0
M  V30 26 C 2.245785 -0.077219 -1.166546 0
M  V30 27 N 3.110657 0.301279 -0.206120 0
M  V30 28 C 2.600794 1.142798 0.814914 0
M  V30 29 C 2.239665 0.326891 1.889950 0
M  V30 30 C 1.665634 0.923169 3.023981 0
M  V30 31 C 1.521551 2.292636 2.937396 0
M  V30 32 C 1.870660 3.110302 1.893825 0
M  V30 33 N 2.429015 2.490345 0.805556 0
M  V30 34 C 1.568182 4.530763 2.148569 0 CFG=1
M  V30 35 C 2.745050 5.356589 1.671665 0
M  V30 36 O 0.386986 4.934235 1.515799 0
M  V30 37 C 1.378234 4.572713 3.642807 0
M  V30 38 C 0.923123 3.175153 3.967072 0
M  V30 39 H 5.949929 2.314920 -1.479372 0
M  V30 40 H 5.926492 2.312038 -1.492917 0
M  V30 41 H 7.275048 1.036344 0.567148 0
M  V30 42 H 5.313124 -0.051243 1.444145 0
M  V30 43 H 6.112105 -1.038677 0.228821 0
M  V30 44 H 2.827871 -2.129858 -3.839983 0
M  V30 45 H -1.362991 0.433670 -3.630008 0
M  V30 46 H -0.486030 -1.669870 -0.703487 0
M  V30 47 H -1.974999 -2.971974 0.665480 0
M  V30 48 H -6.331363 -3.231230 -1.129527 0
M  V30 49 H -6.682310 -2.965224 0.653188 0
M  V30 50 H -6.863488 -5.153834 1.037160 0
M  V30 51 H -6.904326 -5.383005 -0.718103 0
M  V30 52 H -5.651294 -7.545666 1.013985 0
M  V30 53 H -5.706739 -7.471174 -0.795939 0
M  V30 54 H -4.160143 -7.619509 0.040875 0
M  V30 55 H -3.186521 -5.564408 1.131853 0
M  V30 56 H -4.588971 -5.859373 2.193999 0
M  V30 57 H -5.222612 -3.674961 2.242800 0
M  V30 58 H -3.453668 -3.400619 1.945287 0
M  V30 59 H -5.180942 -1.732514 -1.953454 0
M  V30 60 H -3.609980 -0.438266 -3.293267 0
M  V30 61 H 2.342257 -0.750347 1.980026 0
M  V30 62 H 1.355986 0.365554 3.894478 0
M  V30 63 H 3.124926 4.890007 0.741881 0
M  V30 64 H 3.565346 5.378543 2.388075 0
M  V30 65 H 2.396607 6.368331 1.368898 0
M  V30 66 H 0.145311 4.194116 0.906148 0
M  V30 67 H 0.616502 5.332082 3.943706 0
M  V30 68 H 2.369821 4.801504 4.083508 0
M  V30 69 H 1.181986 2.846797 4.997902 0
M  V30 70 H -0.203740 3.184206 3.851104 0
M  V30 END ATOM
M  V30 BEGIN BOND
M  V30 1 2 1 2
M  V30 2 1 2 3
M  V30 3 1 3 4
M  V30 4 1 4 5
M  V30 5 2 5 6
M  V30 6 1 5 7
M  V30 7 2 7 8
M  V30 8 1 8 9
M  V30 9 2 9 10
M  V30 10 1 10 11
M  V30 11 1 11 12
M  V30 12 2 12 13
M  V30 13 1 13 14
M  V30 14 2 14 15
M  V30 15 1 15 16
M  V30 16 1 16 17
M  V30 17 1 17 18
M  V30 18 1 18 19
M  V30 19 1 19 20
M  V30 20 1 19 21
M  V30 21 1 21 22
M  V30 22 1 15 23
M  V30 23 2 23 24
M  V30 24 1 10 25
M  V30 25 2 25 26
M  V30 26 1 26 27
M  V30 27 1 27 28
M  V30 28 2 28 29
M  V30 29 1 29 30
M  V30 30 2 30 31
M  V30 31 1 31 32
M  V30 32 2 32 33
M  V30 33 1 32 34
M  V30 34 1 34 35
M  V30 35 1 34 36 CFG=3
M  V30 36 1 34 37
M  V30 37 1 37 38
M  V30 38 1 27 4
M  V30 39 1 33 28
M  V30 40 1 26 7
M  V30 41 1 38 31
M  V30 42 1 24 12
M  V30 43 1 22 16
M  V30 44 1 1 39
M  V30 45 1 1 40
M  V30 46 1 2 41
M  V30 47 1 3 42
M  V30 48 1 3 43
M  V30 49 1 8 44
M  V30 50 1 11 45
M  V30 51 1 13 46
M  V30 52 1 14 47
M  V30 53 1 17 48
M  V30 54 1 17 49
M  V30 55 1 18 50
M  V30 56 1 18 51
M  V30 57 1 20 52
M  V30 58 1 20 53
M  V30 59 1 20 54
M  V30 60 1 21 55
M  V30 61 1 21 56
M  V30 62 1 22 57
M  V30 63 1 22 58
M  V30 64 1 23 59
M  V30 65 1 24 60
M  V30 66 1 29 61
M  V30 67 1 30 62
M  V30 68 1 35 63
M  V30 69 1 35 64
M  V30 70 1 35 65
M  V30 71 1 36 66
M  V30 72 1 37 67
M  V30 73 1 37 68
M  V30 74 1 38 69
M  V30 75 1 38 70
M  V30 END BOND
M  V30 END CTAB
M  END
>  <Dataset>  (288) 
ChEMBL_Kinases

>  <Ligand_Instance>  (288) 
nan

>  <PDB_ID>  (288) 
nan

>  <Standardized_SMILES>  (288) 
C=CCn1c(=O)c2cnc(Nc3ccc(N4CCN(C)CC4)cc3)nc2n1-c1ccc2c(n1)[C@@](C)(O)CC2

>  <Name>  (288) 
nan

>  <Pocket>  (288) 
nan

>  <ATP_Site>  (288) 
nan

>  <Peripheral>  (288) 
nan

>  <Num_H_Atoms_ProtBoundConf>  (288) 
nan

>  <Num_Resolved_Atoms>  (288) 
nan

>  <Num_Not_Resolved_Atoms>  (288) 
nan

$$$$
CHEMBL4879259
     RDKit          3D

  0  0  0  0  0  0  0  0  0  0999 V3000
M  V30 BEGIN CTAB
M  V30 COUNTS 54 57 0 0 0
M  V30 BEGIN ATOM
M  V30 1 C 5.239470 -2.250513 1.842356 0
M  V30 2 O 4.099973 -2.155379 1.209393 0
M  V30 3 C 3.056428 -2.253305 0.469055 0
M  V30 4 C 3.038361 -3.315189 -0.455529 0
M  V30 5 C 1.930806 -3.488942 -1.298727 0
M  V30 6 C 0.878433 -2.573365 -1.167108 0
M  V30 7 C 0.884729 -1.525638 -0.264764 0
M  V30 8 C 1.987684 -1.361257 0.565777 0
M  V30 9 N 2.055145 -0.322754 1.528484 0
M  V30 10 C 1.074166 0.721304 1.557104 0
M  V30 11 N 1.725476 1.833140 1.144446 0
M  V30 12 C 1.146844 3.022167 1.018319 0
M  V30 13 C -0.191497 3.199891 1.309560 0
M  V30 14 C -0.798289 4.507657 1.133422 0
M  V30 15 N 0.041138 5.568351 0.715086 0
M  V30 16 O -1.990915 4.891391 1.290468 0
M  V30 17 C -0.799418 2.043298 1.722277 0
M  V30 18 N -2.172009 2.120622 2.052999 0
M  V30 19 C -3.289086 1.294456 2.436174 0
M  V30 20 C -3.671241 0.927031 3.706080 0
M  V30 21 F -2.895841 1.399576 4.701257 0
M  V30 22 C -4.769258 0.133647 3.897128 0
M  V30 23 C -5.467928 -0.280063 2.810296 0
M  V30 24 C -5.171608 0.029751 1.500290 0
M  V30 25 C -4.048422 0.839828 1.339485 0
M  V30 26 F -3.729223 1.166754 0.055704 0
M  V30 27 N -0.233069 0.835344 1.855754 0
M  V30 28 C -0.367743 -2.658137 -1.959904 0
M  V30 29 N -0.475580 -3.970650 -2.569524 0
M  V30 30 C -0.902931 -4.977149 -1.616675 0
M  V30 31 C 0.748757 -4.348628 -3.242378 0
M  V30 32 C 1.886759 -4.574587 -2.302486 0
M  V30 33 H 5.679363 -3.266033 2.025529 0
M  V30 34 H 6.037468 -1.611330 1.333765 0
M  V30 35 H 5.209135 -1.763279 2.877655 0
M  V30 36 H 3.866021 -4.015303 -0.541361 0
M  V30 37 H 0.076057 -0.818058 -0.164550 0
M  V30 38 H 2.820696 -0.301362 2.231784 0
M  V30 39 H 1.709506 3.910023 0.680813 0
M  V30 40 H 0.166486 6.579455 0.845749 0
M  V30 41 H -0.163598 6.544141 1.124624 0
M  V30 42 H -2.737168 2.982809 2.094328 0
M  V30 43 H -5.061289 -0.150624 4.914538 0
M  V30 44 H -6.339107 -0.911985 3.012160 0
M  V30 45 H -5.730345 -0.300744 0.633752 0
M  V30 46 H -1.262463 -2.529425 -1.314054 0
M  V30 47 H -0.387361 -1.904561 -2.756435 0
M  V30 48 H -1.902365 -5.382130 -1.873034 0
M  V30 49 H -1.016961 -4.483085 -0.636805 0
M  V30 50 H -0.180450 -5.795744 -1.509627 0
M  V30 51 H 0.981093 -3.491069 -3.931399 0
M  V30 52 H 0.551061 -5.237800 -3.844448 0
M  V30 53 H 2.845860 -4.482586 -2.901255 0
M  V30 54 H 1.909209 -5.573415 -1.876846 0
M  V30 END ATOM
M  V30 BEGIN BOND
M  V30 1 1 1 2
M  V30 2 1 2 3
M  V30 3 2 3 4
M  V30 4 1 4 5
M  V30 5 2 5 6
M  V30 6 1 6 7
M  V30 7 2 7 8
M  V30 8 1 8 9
M  V30 9 1 9 10
M  V30 10 2 10 11
M  V30 11 1 11 12
M  V30 12 2 12 13
M  V30 13 1 13 14
M  V30 14 1 14 15
M  V30 15 2 14 16
M  V30 16 1 13 17
M  V30 17 1 17 18
M  V30 18 1 18 19
M  V30 19 2 19 20
M  V30 20 1 20 21
M  V30 21 1 20 22
M  V30 22 2 22 23
M  V30 23 1 23 24
M  V30 24 2 24 25
M  V30 25 1 25 26
M  V30 26 2 17 27
M  V30 27 1 6 28
M  V30 28 1 28 29
M  V30 29 1 29 30
M  V30 30 1 29 31
M  V30 31 1 31 32
M  V30 32 1 8 3
M  V30 33 1 27 10
M  V30 34 1 32 5
M  V30 35 1 25 19
M  V30 36 1 1 33
M  V30 37 1 1 34
M  V30 38 1 1 35
M  V30 39 1 4 36
M  V30 40 1 7 37
M  V30 41 1 9 38
M  V30 42 1 12 39
M  V30 43 1 15 40
M  V30 44 1 15 41
M  V30 45 1 18 42
M  V30 46 1 22 43
M  V30 47 1 23 44
M  V30 48 1 24 45
M  V30 49 1 28 46
M  V30 50 1 28 47
M  V30 51 1 30 48
M  V30 52 1 30 49
M  V30 53 1 30 50
M  V30 54 1 31 51
M  V30 55 1 31 52
M  V30 56 1 32 53
M  V30 57 1 32 54
M  V30 END BOND
M  V30 END CTAB
M  END
>  <Dataset>  (289) 
ChEMBL_Kinases

>  <Ligand_Instance>  (289) 
nan

>  <PDB_ID>  (289) 
nan

>  <Standardized_SMILES>  (289) 
COc1cc2c(cc1Nc1ncc(C(N)=O)c(Nc3c(F)cccc3F)n1)CN(C)CC2

>  <Name>  (289) 
nan

>  <Pocket>  (289) 
nan

>  <ATP_Site>  (289) 
nan

>  <Peripheral>  (289) 
nan

>  <Num_H_Atoms_ProtBoundConf>  (289) 
nan

>  <Num_Resolved_Atoms>  (289) 
nan

>  <Num_Not_Resolved_Atoms>  (289) 
nan

$$$$
CHEMBL605125
     RDKit          3D

  0  0  0  0  0  0  0  0  0  0999 V3000
M  V30 BEGIN CTAB
M  V30 COUNTS 57 61 0 0 0
M  V30 BEGIN ATOM
M  V30 1 C 6.496833 -1.736850 3.588102 0
M  V30 2 S 4.832563 -1.950440 3.114767 0
M  V30 3 O 4.165943 -2.826520 4.161023 0
M  V30 4 O 4.732435 -2.745908 1.826606 0
M  V30 5 N 3.909480 -0.534502 2.973595 0
M  V30 6 C 4.172731 0.530299 2.068169 0
M  V30 7 C 5.407376 1.096793 1.823474 0
M  V30 8 C 5.572615 2.130764 0.924899 0
M  V30 9 C 4.491914 2.637926 0.232729 0
M  V30 10 C 3.235391 2.125879 0.423464 0
M  V30 11 C 2.035221 2.601492 -0.265632 0
M  V30 12 C 1.922197 3.947572 -0.632969 0
M  V30 13 C 0.794030 4.396759 -1.281621 0
M  V30 14 C -0.252257 3.549588 -1.589446 0
M  V30 15 C -0.158179 2.219590 -1.235021 0
M  V30 16 N -1.127180 1.196851 -1.465129 0
M  V30 17 C -1.610277 0.403494 -0.463970 0
M  V30 18 C -2.531485 -0.479762 -1.035308 0
M  V30 19 C -3.305033 -1.522718 -0.330284 0
M  V30 20 C -3.931941 -1.251719 0.870609 0
M  V30 21 C -4.659974 -2.231355 1.535288 0
M  V30 22 C -4.750106 -3.471104 0.986710 0
M  V30 23 C -4.146642 -3.801347 -0.208406 0
M  V30 24 C -3.441768 -2.804674 -0.824660 0
M  V30 25 C -4.152207 -5.100190 -0.929757 0
M  V30 26 C -5.118676 -6.094793 -0.386746 0
M  V30 27 N -5.512899 -5.788650 0.952804 0
M  V30 28 C -5.507817 -4.553168 1.642215 0
M  V30 29 O -6.092299 -4.366409 2.724724 0
M  V30 30 C -2.568956 -0.178500 -2.387240 0
M  V30 31 N -3.370765 -0.824495 -3.367539 0
M  V30 32 N -1.714067 0.825835 -2.584333 0
M  V30 33 C 0.993771 1.789168 -0.579308 0
M  V30 34 C 3.123273 1.092332 1.333142 0
M  V30 35 H 7.187364 -1.476063 2.783682 0
M  V30 36 H 6.856558 -2.740372 3.963849 0
M  V30 37 H 6.538562 -1.067581 4.470463 0
M  V30 38 H 3.047067 -0.333937 3.564516 0
M  V30 39 H 6.246961 0.692438 2.370911 0
M  V30 40 H 6.571085 2.539006 0.772146 0
M  V30 41 H 4.615621 3.450865 -0.475229 0
M  V30 42 H 2.718787 4.662571 -0.414569 0
M  V30 43 H 0.683311 5.429764 -1.575273 0
M  V30 44 H -1.176472 3.828272 -2.100191 0
M  V30 45 H -1.335594 0.442658 0.590045 0
M  V30 46 H -3.870072 -0.272807 1.319768 0
M  V30 47 H -5.160597 -2.056905 2.471561 0
M  V30 48 H -2.917239 -2.947806 -1.782327 0
M  V30 49 H -3.110957 -5.509727 -0.781845 0
M  V30 50 H -4.335397 -4.876207 -2.001737 0
M  V30 51 H -5.999734 -6.212660 -1.075965 0
M  V30 52 H -4.628783 -7.110431 -0.432037 0
M  V30 53 H -5.857860 -6.614408 1.498758 0
M  V30 54 H -2.875208 -1.646005 -3.807574 0
M  V30 55 H -4.323069 -0.397763 -3.508565 0
M  V30 56 H 1.126564 0.753038 -0.274593 0
M  V30 57 H 2.127872 0.669069 1.500347 0
M  V30 END ATOM
M  V30 BEGIN BOND
M  V30 1 1 1 2
M  V30 2 2 2 3
M  V30 3 2 2 4
M  V30 4 1 2 5
M  V30 5 1 5 6
M  V30 6 2 6 7
M  V30 7 1 7 8
M  V30 8 2 8 9
M  V30 9 1 9 10
M  V30 10 1 10 11
M  V30 11 2 11 12
M  V30 12 1 12 13
M  V30 13 2 13 14
M  V30 14 1 14 15
M  V30 15 1 15 16
M  V30 16 1 16 17
M  V30 17 2 17 18
M  V30 18 1 18 19
M  V30 19 2 19 20
M  V30 20 1 20 21
M  V30 21 2 21 22
M  V30 22 1 22 23
M  V30 23 2 23 24
M  V30 24 1 23 25
M  V30 25 1 25 26
M  V30 26 1 26 27
M  V30 27 1 27 28
M  V30 28 2 28 29
M  V30 29 1 18 30
M  V30 30 1 30 31
M  V30 31 2 30 32
M  V30 32 2 15 33
M  V30 33 2 10 34
M  V30 34 1 34 6
M  V30 35 1 33 11
M  V30 36 1 32 16
M  V30 37 1 24 19
M  V30 38 1 28 22
M  V30 39 1 1 35
M  V30 40 1 1 36
M  V30 41 1 1 37
M  V30 42 1 5 38
M  V30 43 1 7 39
M  V30 44 1 8 40
M  V30 45 1 9 41
M  V30 46 1 12 42
M  V30 47 1 13 43
M  V30 48 1 14 44
M  V30 49 1 17 45
M  V30 50 1 20 46
M  V30 51 1 21 47
M  V30 52 1 24 48
M  V30 53 1 25 49
M  V30 54 1 25 50
M  V30 55 1 26 51
M  V30 56 1 26 52
M  V30 57 1 27 53
M  V30 58 1 31 54
M  V30 59 1 31 55
M  V30 60 1 33 56
M  V30 61 1 34 57
M  V30 END BOND
M  V30 END CTAB
M  END
>  <Dataset>  (290) 
ChEMBL_Kinases

>  <Ligand_Instance>  (290) 
nan

>  <PDB_ID>  (290) 
nan

>  <Standardized_SMILES>  (290) 
CS(=O)(=O)Nc1cccc(-c2cccc(-n3cc(-c4ccc5c(c4)CCNC5=O)c(N)n3)c2)c1

>  <Name>  (290) 
nan

>  <Pocket>  (290) 
nan

>  <ATP_Site>  (290) 
nan

>  <Peripheral>  (290) 
nan

>  <Num_H_Atoms_ProtBoundConf>  (290) 
nan

>  <Num_Resolved_Atoms>  (290) 
nan

>  <Num_Not_Resolved_Atoms>  (290) 
nan

$$$$
CHEMBL600637
     RDKit          3D

  0  0  0  0  0  0  0  0  0  0999 V3000
M  V30 BEGIN CTAB
M  V30 COUNTS 67 72 0 0 0
M  V30 BEGIN ATOM
M  V30 1 N 5.723258 3.521877 5.506754 0
M  V30 2 C 4.470981 3.074583 6.001046 0
M  V30 3 O 4.199653 3.107371 7.227264 0
M  V30 4 C 3.434972 2.552148 5.094742 0
M  V30 5 N 2.232688 2.123900 5.568128 0
M  V30 6 N 1.484847 1.704442 4.551356 0
M  V30 7 C 0.173367 1.197571 4.727405 0
M  V30 8 C -0.799839 2.204912 4.664401 0
M  V30 9 C -2.131616 1.898945 4.826225 0
M  V30 10 C -2.533351 0.597457 5.053100 0
M  V30 11 F -3.816683 0.191212 5.225332 0
M  V30 12 C -1.574479 -0.388318 5.114205 0
M  V30 13 C -0.229430 -0.125737 4.957612 0
M  V30 14 C 2.200591 1.861735 3.433680 0
M  V30 15 C 3.434342 2.390440 3.712260 0
M  V30 16 C 4.580328 2.751227 2.866273 0
M  V30 17 C 4.325678 2.484770 1.414165 0
M  V30 18 C 2.999121 1.923684 1.203630 0
M  V30 19 C 2.777474 1.674519 -0.158532 0
M  V30 20 C 1.566387 1.133704 -0.605781 0
M  V30 21 C 0.548443 0.826808 0.276784 0
M  V30 22 N -0.695268 0.276265 -0.140806 0
M  V30 23 C -0.648476 -1.134565 -0.146215 0
M  V30 24 O 0.421743 -1.722921 0.197072 0
M  V30 25 C -1.747297 -2.019335 -0.520501 0
M  V30 26 C -1.505214 -2.838272 -1.604332 0
M  V30 27 C -2.468076 -3.724106 -2.058364 0
M  V30 28 N -2.348530 -4.619299 -3.156326 0
M  V30 29 C -3.491294 -5.451168 -3.469773 0
M  V30 30 C -4.124100 -5.067873 -4.783397 0
M  V30 31 C -3.125426 -4.584962 -5.806355 0
M  V30 32 N -2.496731 -3.354100 -5.426815 0
M  V30 33 C -1.129045 -3.652125 -5.043933 0
M  V30 34 C -1.102073 -4.648416 -3.892219 0
M  V30 35 N -3.626533 -3.720362 -1.374664 0
M  V30 36 C -3.882941 -2.932187 -0.317873 0
M  V30 37 C -2.953279 -2.037097 0.166303 0
M  V30 38 Cl -3.180146 -0.967523 1.529349 0
M  V30 39 C 0.764061 1.071270 1.619853 0
M  V30 40 C 1.956986 1.601855 2.042587 0
M  V30 41 H 6.618825 3.240921 5.054414 0
M  V30 42 H 6.608893 3.182305 5.049273 0
M  V30 43 H -0.596159 3.252470 4.492268 0
M  V30 44 H -2.940980 2.616224 4.791535 0
M  V30 45 H -1.734508 -1.455426 5.285361 0
M  V30 46 H 0.601623 -0.788872 4.982446 0
M  V30 47 H 4.872573 3.824463 3.004837 0
M  V30 48 H 5.483489 2.148732 3.197861 0
M  V30 49 H 4.345387 3.468149 0.871369 0
M  V30 50 H 5.130622 1.813825 1.025333 0
M  V30 51 H 3.472888 1.858099 -0.983549 0
M  V30 52 H 1.368036 0.930774 -1.653808 0
M  V30 53 H -1.579692 0.732006 -0.425244 0
M  V30 54 H -0.573311 -2.828591 -2.140721 0
M  V30 55 H -3.119699 -6.505093 -3.578808 0
M  V30 56 H -4.236803 -5.375919 -2.674878 0
M  V30 57 H -4.580749 -5.992219 -5.219364 0
M  V30 58 H -4.954148 -4.339673 -4.657966 0
M  V30 59 H -2.442846 -5.406962 -6.061875 0
M  V30 60 H -3.721769 -4.377735 -6.729570 0
M  V30 61 H -2.492448 -2.611437 -6.137012 0
M  V30 62 H -0.591056 -2.720810 -4.784146 0
M  V30 63 H -0.621944 -4.076207 -5.937811 0
M  V30 64 H -0.932424 -5.662402 -4.359696 0
M  V30 65 H -0.207517 -4.478249 -3.267846 0
M  V30 66 H -4.835293 -2.966104 0.201748 0
M  V30 67 H -0.015319 0.835188 2.286986 0
M  V30 END ATOM
M  V30 BEGIN BOND
M  V30 1 1 1 2
M  V30 2 2 2 3
M  V30 3 1 2 4
M  V30 4 2 4 5
M  V30 5 1 5 6
M  V30 6 1 6 7
M  V30 7 2 7 8
M  V30 8 1 8 9
M  V30 9 2 9 10
M  V30 10 1 10 11
M  V30 11 1 10 12
M  V30 12 2 12 13
M  V30 13 1 6 14
M  V30 14 2 14 15
M  V30 15 1 15 16
M  V30 16 1 16 17
M  V30 17 1 17 18
M  V30 18 2 18 19
M  V30 19 1 19 20
M  V30 20 2 20 21
M  V30 21 1 21 22
M  V30 22 1 22 23
M  V30 23 2 23 24
M  V30 24 1 23 25
M  V30 25 2 25 26
M  V30 26 1 26 27
M  V30 27 1 27 28
M  V30 28 1 28 29
M  V30 29 1 29 30
M  V30 30 1 30 31
M  V30 31 1 31 32
M  V30 32 1 32 33
M  V30 33 1 33 34
M  V30 34 2 27 35
M  V30 35 1 35 36
M  V30 36 2 36 37
M  V30 37 1 37 38
M  V30 38 1 21 39
M  V30 39 2 39 40
M  V30 40 1 15 4
M  V30 41 1 40 18
M  V30 42 1 13 7
M  V30 43 1 40 14
M  V30 44 1 37 25
M  V30 45 1 34 28
M  V30 46 1 1 41
M  V30 47 1 1 42
M  V30 48 1 8 43
M  V30 49 1 9 44
M  V30 50 1 12 45
M  V30 51 1 13 46
M  V30 52 1 16 47
M  V30 53 1 16 48
M  V30 54 1 17 49
M  V30 55 1 17 50
M  V30 56 1 19 51
M  V30 57 1 20 52
M  V30 58 1 22 53
M  V30 59 1 26 54
M  V30 60 1 29 55
M  V30 61 1 29 56
M  V30 62 1 30 57
M  V30 63 1 30 58
M  V30 64 1 31 59
M  V30 65 1 31 60
M  V30 66 1 32 61
M  V30 67 1 33 62
M  V30 68 1 33 63
M  V30 69 1 34 64
M  V30 70 1 34 65
M  V30 71 1 36 66
M  V30 72 1 39 67
M  V30 END BOND
M  V30 END CTAB
M  END
>  <Dataset>  (291) 
ChEMBL_Kinases

>  <Ligand_Instance>  (291) 
nan

>  <PDB_ID>  (291) 
nan

>  <Standardized_SMILES>  (291) 
NC(=O)c1nn(-c2ccc(F)cc2)c2c1CCc1ccc(NC(=O)c3cc(N4CCCNCC4)ncc3Cl)cc1-2

>  <Name>  (291) 
nan

>  <Pocket>  (291) 
nan

>  <ATP_Site>  (291) 
nan

>  <Peripheral>  (291) 
nan

>  <Num_H_Atoms_ProtBoundConf>  (291) 
nan

>  <Num_Resolved_Atoms>  (291) 
nan

>  <Num_Not_Resolved_Atoms>  (291) 
nan

$$$$
CHEMBL3911508
     RDKit          3D

  0  0  0  0  0  0  0  0  0  0999 V3000
M  V30 BEGIN CTAB
M  V30 COUNTS 46 48 0 0 0
M  V30 BEGIN ATOM
M  V30 1 C 3.237784 -1.371370 5.316392 0
M  V30 2 N 3.046128 -0.946223 3.944579 0
M  V30 3 C 4.023931 -0.327585 3.153972 0
M  V30 4 O 5.210434 -0.066508 3.560106 0
M  V30 5 C 3.644361 0.030246 1.796041 0
M  V30 6 C 4.080436 0.836103 0.882608 0
M  V30 7 C 3.462673 0.978165 -0.435120 0
M  V30 8 C 2.976500 -0.053432 -1.210391 0
M  V30 9 C 2.389806 0.093344 -2.444020 0
M  V30 10 N 2.272251 1.341506 -2.952408 0
M  V30 11 C 2.736605 2.399612 -2.227893 0
M  V30 12 C 3.322031 2.251689 -0.996325 0
M  V30 13 S 2.176497 -1.004862 1.530024 0
M  V30 14 C 1.794509 -1.144028 3.304207 0
M  V30 15 N 0.578099 -1.378023 3.714009 0
M  V30 16 C -0.486261 -1.527722 2.741696 0
M  V30 17 C -0.496739 -0.343750 1.990622 0
M  V30 18 C -1.422880 -0.178450 0.952344 0
M  V30 19 C -2.329068 -1.207727 0.681607 0
M  V30 20 C -3.312430 -1.049343 -0.411539 0
M  V30 21 C -4.149603 -2.287271 -0.527753 0
M  V30 22 C -2.638338 -0.822739 -1.751166 0
M  V30 23 C -4.231206 0.130766 -0.162385 0
M  V30 24 C -2.279690 -2.351721 1.446956 0
M  V30 25 C -1.380223 -2.536149 2.470273 0
M  V30 26 H 2.629017 -2.256785 5.582579 0
M  V30 27 H 4.287074 -1.667460 5.519562 0
M  V30 28 H 2.917019 -0.554941 6.022604 0
M  V30 29 H 4.954604 1.404511 1.182249 0
M  V30 30 H 3.059864 -1.048683 -0.836028 0
M  V30 31 H 2.031860 -0.781690 -2.990437 0
M  V30 32 H 2.622350 3.393842 -2.675173 0
M  V30 33 H 3.671583 3.141032 -0.471961 0
M  V30 34 H 0.126958 0.541185 2.069097 0
M  V30 35 H -1.503527 0.696093 0.326006 0
M  V30 36 H -4.824741 -2.135333 -1.417212 0
M  V30 37 H -4.766463 -2.497975 0.352530 0
M  V30 38 H -3.494818 -3.144236 -0.844711 0
M  V30 39 H -3.336815 -1.194562 -2.528615 0
M  V30 40 H -2.433758 0.248253 -1.960897 0
M  V30 41 H -1.688671 -1.378785 -1.863220 0
M  V30 42 H -4.502780 0.582304 -1.117109 0
M  V30 43 H -5.189681 -0.223126 0.294454 0
M  V30 44 H -3.724457 0.897519 0.448818 0
M  V30 45 H -2.948375 -3.182287 1.291614 0
M  V30 46 H -1.223557 -3.349876 3.137312 0
M  V30 END ATOM
M  V30 BEGIN BOND
M  V30 1 1 1 2
M  V30 2 1 2 3
M  V30 3 2 3 4
M  V30 4 1 3 5
M  V30 5 2 5 6
M  V30 6 1 6 7
M  V30 7 2 7 8
M  V30 8 1 8 9
M  V30 9 2 9 10
M  V30 10 1 10 11
M  V30 11 2 11 12
M  V30 12 1 5 13
M  V30 13 1 13 14
M  V30 14 2 14 15
M  V30 15 1 15 16
M  V30 16 2 16 17
M  V30 17 1 17 18
M  V30 18 2 18 19
M  V30 19 1 19 20
M  V30 20 1 20 21
M  V30 21 1 20 22
M  V30 22 1 20 23
M  V30 23 1 19 24
M  V30 24 2 24 25
M  V30 25 1 14 2
M  V30 26 1 25 16
M  V30 27 1 12 7
M  V30 28 1 1 26
M  V30 29 1 1 27
M  V30 30 1 1 28
M  V30 31 1 6 29
M  V30 32 1 8 30
M  V30 33 1 9 31
M  V30 34 1 11 32
M  V30 35 1 12 33
M  V30 36 1 17 34
M  V30 37 1 18 35
M  V30 38 1 21 36
M  V30 39 1 21 37
M  V30 40 1 21 38
M  V30 41 1 22 39
M  V30 42 1 22 40
M  V30 43 1 22 41
M  V30 44 1 23 42
M  V30 45 1 23 43
M  V30 46 1 23 44
M  V30 47 1 24 45
M  V30 48 1 25 46
M  V30 END BOND
M  V30 END CTAB
M  END
>  <Dataset>  (292) 
ChEMBL_Kinases

>  <Ligand_Instance>  (292) 
nan

>  <PDB_ID>  (292) 
nan

>  <Standardized_SMILES>  (292) 
CN1C(=O)/C(=C/c2ccncc2)S/C1=N\c1ccc(C(C)(C)C)cc1

>  <Name>  (292) 
nan

>  <Pocket>  (292) 
nan

>  <ATP_Site>  (292) 
nan

>  <Peripheral>  (292) 
nan

>  <Num_H_Atoms_ProtBoundConf>  (292) 
nan

>  <Num_Resolved_Atoms>  (292) 
nan

>  <Num_Not_Resolved_Atoms>  (292) 
nan

$$$$
CHEMBL3885053
     RDKit          3D

  0  0  0  0  0  0  0  0  0  0999 V3000
M  V30 BEGIN CTAB
M  V30 COUNTS 61 65 0 0 0
M  V30 BEGIN ATOM
M  V30 1 C 0.285279 -0.831486 5.025023 0
M  V30 2 C 1.000060 0.180220 5.548206 0
M  V30 3 C 1.559106 0.307621 4.194085 0
M  V30 4 O 1.198886 -0.449287 3.262480 0
M  V30 5 N 2.525733 1.328787 3.996912 0
M  V30 6 C 2.973670 1.323808 2.624605 0
M  V30 7 C 4.026059 0.582452 2.152280 0
M  V30 8 C 4.431270 0.596438 0.850852 0
M  V30 9 C 3.733294 1.411237 -0.043570 0
M  V30 10 C 2.679611 2.146793 0.455125 0
M  V30 11 C 2.261818 2.139438 1.770325 0
M  V30 12 N 1.154632 2.971502 2.092328 0
M  V30 13 C 1.420090 4.169865 2.670051 0
M  V30 14 C 0.185106 4.781649 2.879558 0
M  V30 15 C -0.800993 3.935509 2.421905 0
M  V30 16 C -2.160113 3.943752 2.340541 0
M  V30 17 N -2.793644 2.896934 1.810433 0
M  V30 18 C -2.187321 1.798326 1.333844 0
M  V30 19 N -2.984044 0.761185 0.797366 0
M  V30 20 C -2.560122 -0.476660 0.250703 0
M  V30 21 C -3.491463 -1.388516 -0.243845 0
M  V30 22 C -3.139814 -2.597468 -0.780910 0
M  V30 23 C -1.823133 -2.985252 -0.863166 0
M  V30 24 N -1.464235 -4.237151 -1.427170 0
M  V30 25 C -2.331149 -5.168620 -2.120668 0
M  V30 26 C -1.819869 -5.401323 -3.494534 0
M  V30 27 N -0.532588 -4.984029 -3.823266 0
M  V30 28 C -0.371298 -4.116074 -4.926450 0
M  V30 29 C 0.442662 -4.904332 -2.798322 0
M  V30 30 C -0.140595 -4.826334 -1.406371 0
M  V30 31 C -0.866057 -2.121707 -0.389391 0
M  V30 32 C -1.262057 -0.915270 0.143215 0
M  V30 33 N -0.856961 1.793308 1.414801 0
M  V30 34 C -0.170830 2.814996 1.936422 0
M  V30 35 H -0.428715 -1.665108 4.972315 0
M  V30 36 H -0.391815 -1.675578 4.830445 0
M  V30 37 H 0.512946 -0.024302 6.485078 0
M  V30 38 H 2.810050 1.954155 4.809210 0
M  V30 39 H 4.520496 -0.027334 2.907867 0
M  V30 40 H 5.280024 -0.020988 0.541518 0
M  V30 41 H 4.030689 1.444445 -1.085014 0
M  V30 42 H 2.166483 2.767847 -0.284483 0
M  V30 43 H 2.334468 4.668567 2.960680 0
M  V30 44 H 0.005748 5.764189 3.328472 0
M  V30 45 H -2.697261 4.810985 2.713363 0
M  V30 46 H -4.027782 0.916369 0.798189 0
M  V30 47 H -4.547807 -1.107396 -0.192070 0
M  V30 48 H -3.960521 -3.197322 -1.119930 0
M  V30 49 H -2.273531 -6.141043 -1.550186 0
M  V30 50 H -3.388970 -4.805534 -2.136666 0
M  V30 51 H -1.897247 -6.506516 -3.714938 0
M  V30 52 H -2.565660 -4.952654 -4.218034 0
M  V30 53 H 0.710585 -3.870791 -5.038868 0
M  V30 54 H -0.643099 -4.692948 -5.856703 0
M  V30 55 H -0.947220 -3.190472 -4.897639 0
M  V30 56 H 1.139858 -5.765121 -2.899155 0
M  V30 57 H 1.054956 -3.990691 -2.946887 0
M  V30 58 H -0.167681 -5.892997 -1.025618 0
M  V30 59 H 0.490554 -4.302179 -0.674367 0
M  V30 60 H 0.208876 -2.350252 -0.418816 0
M  V30 61 H -0.477230 -0.288259 0.494273 0
M  V30 END ATOM
M  V30 BEGIN BOND
M  V30 1 2 1 2
M  V30 2 1 2 3
M  V30 3 2 3 4
M  V30 4 1 3 5
M  V30 5 1 5 6
M  V30 6 2 6 7
M  V30 7 1 7 8
M  V30 8 2 8 9
M  V30 9 1 9 10
M  V30 10 2 10 11
M  V30 11 1 11 12
M  V30 12 1 12 13
M  V30 13 2 13 14
M  V30 14 1 14 15
M  V30 15 2 15 16
M  V30 16 1 16 17
M  V30 17 2 17 18
M  V30 18 1 18 19
M  V30 19 1 19 20
M  V30 20 2 20 21
M  V30 21 1 21 22
M  V30 22 2 22 23
M  V30 23 1 23 24
M  V30 24 1 24 25
M  V30 25 1 25 26
M  V30 26 1 26 27
M  V30 27 1 27 28
M  V30 28 1 27 29
M  V30 29 1 29 30
M  V30 30 1 23 31
M  V30 31 2 31 32
M  V30 32 1 18 33
M  V30 33 2 33 34
M  V30 34 1 11 6
M  V30 35 1 34 12
M  V30 36 1 34 15
M  V30 37 1 32 20
M  V30 38 1 30 24
M  V30 39 1 1 35
M  V30 40 1 1 36
M  V30 41 1 2 37
M  V30 42 1 5 38
M  V30 43 1 7 39
M  V30 44 1 8 40
M  V30 45 1 9 41
M  V30 46 1 10 42
M  V30 47 1 13 43
M  V30 48 1 14 44
M  V30 49 1 16 45
M  V30 50 1 19 46
M  V30 51 1 21 47
M  V30 52 1 22 48
M  V30 53 1 25 49
M  V30 54 1 25 50
M  V30 55 1 26 51
M  V30 56 1 26 52
M  V30 57 1 28 53
M  V30 58 1 28 54
M  V30 59 1 28 55
M  V30 60 1 29 56
M  V30 61 1 29 57
M  V30 62 1 30 58
M  V30 63 1 30 59
M  V30 64 1 31 60
M  V30 65 1 32 61
M  V30 END BOND
M  V30 END CTAB
M  END
>  <Dataset>  (293) 
ChEMBL_Kinases

>  <Ligand_Instance>  (293) 
nan

>  <PDB_ID>  (293) 
nan

>  <Standardized_SMILES>  (293) 
C=CC(=O)Nc1ccccc1-n1ccc2cnc(Nc3ccc(N4CCN(C)CC4)cc3)nc21

>  <Name>  (293) 
nan

>  <Pocket>  (293) 
nan

>  <ATP_Site>  (293) 
nan

>  <Peripheral>  (293) 
nan

>  <Num_H_Atoms_ProtBoundConf>  (293) 
nan

>  <Num_Resolved_Atoms>  (293) 
nan

>  <Num_Not_Resolved_Atoms>  (293) 
nan

$$$$
CHEMBL3893926
     RDKit          3D

  0  0  0  0  0  0  0  0  0  0999 V3000
M  V30 BEGIN CTAB
M  V30 COUNTS 59 64 0 0 0
M  V30 BEGIN ATOM
M  V30 1 C 4.300576 0.048946 8.406925 0
M  V30 2 O 4.732842 -0.849527 7.386322 0
M  V30 3 C 4.327702 -0.774093 6.065570 0
M  V30 4 O 3.587943 0.248728 6.267842 0
M  V30 5 N 4.596616 -1.527625 4.868810 0
M  V30 6 C 3.870482 -0.927899 3.808958 0
M  V30 7 N 2.595984 -1.319196 3.620573 0
M  V30 8 C 2.061762 -0.661286 2.578062 0
M  V30 9 C 0.836558 -0.649404 1.949725 0
M  V30 10 C 0.688420 0.202970 0.885216 0
M  V30 11 C -0.566903 0.386671 0.098558 0
M  V30 12 O -1.691340 -0.095263 0.781664 0
M  V30 13 C -0.806234 1.870229 -0.058391 0
M  V30 14 C -0.967422 2.768933 0.968540 0
M  V30 15 C -1.156132 4.117265 0.679914 0
M  V30 16 C -1.171667 4.501635 -0.667623 0
M  V30 17 C -1.005940 3.560413 -1.651624 0
M  V30 18 C -0.816232 2.213090 -1.387319 0
M  V30 19 C -0.632587 0.981181 -2.136689 0
M  V30 20 O -0.591879 0.949560 -3.415891 0
M  V30 21 N -0.514335 -0.132362 -1.225252 0
M  V30 22 C -0.385308 -1.444796 -1.749560 0
M  V30 23 C 0.738543 -2.206101 -2.065063 0
M  V30 24 C 0.551211 -3.468221 -2.577839 0
M  V30 25 C -0.685058 -4.042506 -2.806756 0
M  V30 26 C -1.820955 -3.290070 -2.494945 0
M  V30 27 C -3.130132 -3.874130 -2.736750 0
M  V30 28 C -3.372221 -4.761323 -3.766808 0
M  V30 29 C -4.626682 -5.320344 -3.998486 0
M  V30 30 C -5.678453 -4.984771 -3.175506 0
M  V30 31 C -5.509928 -4.103586 -2.124620 0
M  V30 32 C -4.244613 -3.585146 -1.950435 0
M  V30 33 C -1.617956 -2.025637 -1.979641 0
M  V30 34 C 1.723965 1.032928 0.438451 0
M  V30 35 C 2.941729 1.000656 1.085469 0
M  V30 36 C 3.107295 0.139415 2.170973 0
M  V30 37 N 4.224102 -0.002456 2.904034 0
M  V30 38 H 4.726368 -0.261969 9.361859 0
M  V30 39 H 4.399441 1.103687 8.140237 0
M  V30 40 H 3.185754 -0.132943 8.470480 0
M  V30 41 H 5.226759 -2.199315 5.291220 0
M  V30 42 H 0.029147 -1.260936 2.252344 0
M  V30 43 H -2.233488 0.632631 1.167964 0
M  V30 44 H -0.959151 2.485204 2.028094 0
M  V30 45 H -1.282575 4.820410 1.484410 0
M  V30 46 H -1.316340 5.543882 -0.889510 0
M  V30 47 H -1.015335 3.854026 -2.711709 0
M  V30 48 H 1.652882 -1.681266 -1.855774 0
M  V30 49 H 1.463255 -4.012225 -2.800051 0
M  V30 50 H -0.728173 -5.035266 -3.210123 0
M  V30 51 H -2.545870 -5.017840 -4.404881 0
M  V30 52 H -4.748845 -6.010341 -4.824598 0
M  V30 53 H -6.673035 -5.397984 -3.320374 0
M  V30 54 H -6.312507 -3.807154 -1.447313 0
M  V30 55 H -4.059227 -2.883995 -1.131609 0
M  V30 56 H -2.579645 -1.536084 -1.779786 0
M  V30 57 H 1.639104 1.714507 -0.395827 0
M  V30 58 H 3.750433 1.642862 0.740489 0
M  V30 59 H 5.156162 0.448292 2.847598 0
M  V30 END ATOM
M  V30 BEGIN BOND
M  V30 1 1 1 2
M  V30 2 1 2 3
M  V30 3 2 3 4
M  V30 4 1 3 5
M  V30 5 1 5 6
M  V30 6 2 6 7
M  V30 7 1 7 8
M  V30 8 2 8 9
M  V30 9 1 9 10
M  V30 10 1 10 11
M  V30 11 1 11 12
M  V30 12 1 11 13
M  V30 13 2 13 14
M  V30 14 1 14 15
M  V30 15 2 15 16
M  V30 16 1 16 17
M  V30 17 2 17 18
M  V30 18 1 18 19
M  V30 19 2 19 20
M  V30 20 1 19 21
M  V30 21 1 21 22
M  V30 22 2 22 23
M  V30 23 1 23 24
M  V30 24 2 24 25
M  V30 25 1 25 26
M  V30 26 1 26 27
M  V30 27 2 27 28
M  V30 28 1 28 29
M  V30 29 2 29 30
M  V30 30 1 30 31
M  V30 31 2 31 32
M  V30 32 2 26 33
M  V30 33 2 10 34
M  V30 34 1 34 35
M  V30 35 2 35 36
M  V30 36 1 36 37
M  V30 37 1 37 6
M  V30 38 1 36 8
M  V30 39 1 21 11
M  V30 40 1 33 22
M  V30 41 1 18 13
M  V30 42 1 32 27
M  V30 43 1 1 38
M  V30 44 1 1 39
M  V30 45 1 1 40
M  V30 46 1 5 41
M  V30 47 1 9 42
M  V30 48 1 12 43
M  V30 49 1 14 44
M  V30 50 1 15 45
M  V30 51 1 16 46
M  V30 52 1 17 47
M  V30 53 1 23 48
M  V30 54 1 24 49
M  V30 55 1 25 50
M  V30 56 1 28 51
M  V30 57 1 29 52
M  V30 58 1 30 53
M  V30 59 1 31 54
M  V30 60 1 32 55
M  V30 61 1 33 56
M  V30 62 1 34 57
M  V30 63 1 35 58
M  V30 64 1 37 59
M  V30 END BOND
M  V30 END CTAB
M  END
>  <Dataset>  (294) 
ChEMBL_Kinases

>  <Ligand_Instance>  (294) 
nan

>  <PDB_ID>  (294) 
nan

>  <Standardized_SMILES>  (294) 
COC(=O)Nc1nc2cc(C3(O)c4ccccc4C(=O)N3c3cccc(-c4ccccc4)c3)ccc2[nH]1

>  <Name>  (294) 
nan

>  <Pocket>  (294) 
nan

>  <ATP_Site>  (294) 
nan

>  <Peripheral>  (294) 
nan

>  <Num_H_Atoms_ProtBoundConf>  (294) 
nan

>  <Num_Resolved_Atoms>  (294) 
nan

>  <Num_Not_Resolved_Atoms>  (294) 
nan

$$$$
CHEMBL487845
     RDKit          3D

  0  0  0  0  0  0  0  0  0  0999 V3000
M  V30 BEGIN CTAB
M  V30 COUNTS 56 59 0 0 0
M  V30 BEGIN ATOM
M  V30 1 O -1.597151 -3.077926 -0.170669 0
M  V30 2 C -0.563201 -3.256090 0.545455 0
M  V30 3 O -0.255978 -2.740164 1.821966 0
M  V30 4 C 1.134403 -2.463816 1.799887 0
M  V30 5 C 1.723108 -2.135682 3.128130 0
M  V30 6 O 1.572178 -3.184999 4.046392 0
M  V30 7 C 1.418597 -1.393141 0.805193 0
M  V30 8 O 0.742571 -0.175905 1.084836 0
M  V30 9 C 0.913208 0.883915 0.239224 0
M  V30 10 O 1.711649 0.359674 -0.612329 0
M  V30 11 C 0.338815 2.244924 0.293973 0
M  V30 12 C 0.757299 2.955033 1.531513 0
M  V30 13 C 0.822160 2.469634 2.813015 0
M  V30 14 C 1.230561 3.216432 3.886730 0
M  V30 15 C 1.607717 4.531367 3.726378 0
M  V30 16 C 1.570537 5.098347 2.456895 0
M  V30 17 C 1.150343 4.298386 1.411300 0
M  V30 18 C -1.149158 2.260442 0.155180 0
M  V30 19 C -2.006621 1.252979 0.555558 0
M  V30 20 C -3.376963 1.377958 0.381843 0
M  V30 21 C -3.944094 2.494998 -0.189368 0
M  V30 22 C -3.101958 3.511010 -0.594816 0
M  V30 23 C -1.746449 3.365488 -0.413109 0
M  V30 24 C 1.641020 -3.825213 1.283933 0
M  V30 25 C 0.626900 -4.070928 0.225332 0
M  V30 26 C 0.673185 -4.845340 -0.829062 0
M  V30 27 C -0.328523 -5.090078 -1.855114 0
M  V30 28 C 0.067939 -4.934690 -3.190438 0
M  V30 29 C -0.749921 -5.156573 -4.254659 0
M  V30 30 C -2.037633 -5.555093 -4.047989 0
M  V30 31 F -2.906222 -5.793000 -5.046199 0
M  V30 32 C -2.484238 -5.725840 -2.733979 0
M  V30 33 Cl -4.135088 -6.238940 -2.448682 0
M  V30 34 C -1.633191 -5.494037 -1.661494 0
M  V30 35 H 1.281075 -1.220404 3.514796 0
M  V30 36 H 2.807978 -1.980450 2.978019 0
M  V30 37 H 2.334476 -3.836844 3.994831 0
M  V30 38 H 2.517467 -1.143065 0.919290 0
M  V30 39 H 1.320127 -1.727560 -0.241327 0
M  V30 40 H 0.729616 2.817254 -0.577672 0
M  V30 41 H 0.518717 1.427819 2.910475 0
M  V30 42 H 1.252866 2.755053 4.868107 0
M  V30 43 H 1.932447 5.139323 4.565715 0
M  V30 44 H 1.853300 6.122219 2.265661 0
M  V30 45 H 1.127482 4.756600 0.420582 0
M  V30 46 H -1.526541 0.388028 0.999075 0
M  V30 47 H -3.927952 0.518689 0.736693 0
M  V30 48 H -5.026348 2.417030 -0.243273 0
M  V30 49 H -3.608422 4.353584 -1.031473 0
M  V30 50 H -1.193784 4.231609 -0.771566 0
M  V30 51 H 1.567437 -4.550320 2.117689 0
M  V30 52 H 2.669599 -3.740074 0.921978 0
M  V30 53 H 1.609096 -5.408128 -0.982231 0
M  V30 54 H 1.085571 -4.616590 -3.446230 0
M  V30 55 H -0.399960 -5.021329 -5.286790 0
M  V30 56 H -1.986543 -5.651439 -0.654329 0
M  V30 END ATOM
M  V30 BEGIN BOND
M  V30 1 2 1 2
M  V30 2 1 2 3
M  V30 3 1 3 4
M  V30 4 1 4 5
M  V30 5 1 5 6
M  V30 6 1 4 7
M  V30 7 1 7 8
M  V30 8 1 8 9
M  V30 9 2 9 10
M  V30 10 1 9 11
M  V30 11 1 11 12
M  V30 12 2 12 13
M  V30 13 1 13 14
M  V30 14 2 14 15
M  V30 15 1 15 16
M  V30 16 2 16 17
M  V30 17 1 11 18
M  V30 18 2 18 19
M  V30 19 1 19 20
M  V30 20 2 20 21
M  V30 21 1 21 22
M  V30 22 2 22 23
M  V30 23 1 4 24
M  V30 24 1 24 25
M  V30 25 2 25 26
M  V30 26 1 26 27
M  V30 27 2 27 28
M  V30 28 1 28 29
M  V30 29 2 29 30
M  V30 30 1 30 31
M  V30 31 1 30 32
M  V30 32 1 32 33
M  V30 33 2 32 34
M  V30 34 1 25 2
M  V30 35 1 34 27
M  V30 36 1 17 12
M  V30 37 1 23 18
M  V30 38 1 5 35
M  V30 39 1 5 36
M  V30 40 1 6 37
M  V30 41 1 7 38
M  V30 42 1 7 39
M  V30 43 1 11 40
M  V30 44 1 13 41
M  V30 45 1 14 42
M  V30 46 1 15 43
M  V30 47 1 16 44
M  V30 48 1 17 45
M  V30 49 1 19 46
M  V30 50 1 20 47
M  V30 51 1 21 48
M  V30 52 1 22 49
M  V30 53 1 23 50
M  V30 54 1 24 51
M  V30 55 1 24 52
M  V30 56 1 26 53
M  V30 57 1 28 54
M  V30 58 1 29 55
M  V30 59 1 34 56
M  V30 END BOND
M  V30 END CTAB
M  END
>  <Dataset>  (295) 
ChEMBL_Kinases

>  <Ligand_Instance>  (295) 
nan

>  <PDB_ID>  (295) 
nan

>  <Standardized_SMILES>  (295) 
O=C1OC(CO)(COC(=O)C(c2ccccc2)c2ccccc2)C/C1=C/c1ccc(F)c(Cl)c1

>  <Name>  (295) 
nan

>  <Pocket>  (295) 
nan

>  <ATP_Site>  (295) 
nan

>  <Peripheral>  (295) 
nan

>  <Num_H_Atoms_ProtBoundConf>  (295) 
nan

>  <Num_Resolved_Atoms>  (295) 
nan

>  <Num_Not_Resolved_Atoms>  (295) 
nan

$$$$
CHEMBL389390
     RDKit          3D

  0  0  0  0  0  0  0  0  0  0999 V3000
M  V30 BEGIN CTAB
M  V30 COUNTS 43 44 0 0 0
M  V30 BEGIN ATOM
M  V30 1 C 2.347901 -3.755041 1.354280 0
M  V30 2 C 2.375207 -2.219730 1.027628 0 CFG=1
M  V30 3 C 1.979165 -2.120743 -0.390206 0
M  V30 4 C 1.883745 -0.860048 -1.073395 0
M  V30 5 C 3.060941 -0.330457 -1.610653 0
M  V30 6 C 3.155614 0.834205 -2.316558 0
M  V30 7 C 2.021078 1.572050 -2.535985 0
M  V30 8 O 2.063405 2.758755 -3.244908 0
M  V30 9 C 0.822334 1.128103 -2.045220 0
M  V30 10 C 0.776701 -0.041042 -1.346035 0
M  V30 11 N 1.415869 -1.673714 1.938221 0
M  V30 12 C 1.391491 -0.285588 2.159158 0
M  V30 13 C 0.304904 0.105521 3.157035 0 CFG=1
M  V30 14 O 0.389111 1.512072 3.304253 0
M  V30 15 C -1.059853 -0.157290 2.679736 0
M  V30 16 C -1.545326 -0.956074 1.667476 0
M  V30 17 C -2.889585 -1.058911 1.391040 0
M  V30 18 O -3.195864 -1.902499 0.345596 0
M  V30 19 C -3.837570 -0.372527 2.105181 0
M  V30 20 C -3.388931 0.431031 3.118892 0
M  V30 21 O -4.351472 1.126968 3.842790 0
M  V30 22 C -2.043953 0.536138 3.398151 0
M  V30 23 H 2.186007 -3.922689 2.417208 0
M  V30 24 H 1.504395 -4.217794 0.801465 0
M  V30 25 H 3.274710 -4.230450 1.040675 0
M  V30 26 H 3.404575 -1.949759 1.259480 0
M  V30 27 H 2.693525 -2.756515 -1.011246 0
M  V30 28 H 1.014813 -2.716311 -0.544521 0
M  V30 29 H 3.998773 -0.852714 -1.481027 0
M  V30 30 H 4.077415 1.206258 -2.712069 0
M  V30 31 H 2.636168 3.542042 -2.923147 0
M  V30 32 H -0.106919 1.674607 -2.190789 0
M  V30 33 H -0.144175 -0.440144 -0.935479 0
M  V30 34 H 1.372498 -2.155771 2.862644 0
M  V30 35 H 2.348419 0.011427 2.694078 0
M  V30 36 H 1.297780 0.401195 1.336807 0
M  V30 37 H 0.470589 -0.357764 4.133056 0
M  V30 38 H 0.524078 1.837774 2.364324 0
M  V30 39 H -0.770739 -1.477904 1.129468 0
M  V30 40 H -3.653824 -1.522168 -0.482409 0
M  V30 41 H -4.856402 -0.536622 1.792473 0
M  V30 42 H -5.154961 0.599600 4.176306 0
M  V30 43 H -1.816668 1.213141 4.235016 0
M  V30 END ATOM
M  V30 BEGIN BOND
M  V30 1 1 1 2
M  V30 2 1 2 3
M  V30 3 1 3 4
M  V30 4 2 4 5
M  V30 5 1 5 6
M  V30 6 2 6 7
M  V30 7 1 7 8
M  V30 8 1 7 9
M  V30 9 2 9 10
M  V30 10 1 2 11
M  V30 11 1 11 12
M  V30 12 1 12 13
M  V30 13 1 13 14
M  V30 14 1 13 15
M  V30 15 2 15 16
M  V30 16 1 16 17
M  V30 17 1 17 18
M  V30 18 2 17 19
M  V30 19 1 19 20
M  V30 20 1 20 21
M  V30 21 2 20 22
M  V30 22 1 10 4
M  V30 23 1 22 15
M  V30 24 1 1 23
M  V30 25 1 1 24
M  V30 26 1 1 25
M  V30 27 1 2 26 CFG=3
M  V30 28 1 3 27
M  V30 29 1 3 28
M  V30 30 1 5 29
M  V30 31 1 6 30
M  V30 32 1 8 31
M  V30 33 1 9 32
M  V30 34 1 10 33
M  V30 35 1 11 34
M  V30 36 1 12 35
M  V30 37 1 12 36
M  V30 38 1 13 37 CFG=1
M  V30 39 1 14 38
M  V30 40 1 16 39
M  V30 41 1 18 40
M  V30 42 1 19 41
M  V30 43 1 21 42
M  V30 44 1 22 43
M  V30 END BOND
M  V30 END CTAB
M  END
>  <Dataset>  (296) 
ChEMBL_Kinases

>  <Ligand_Instance>  (296) 
nan

>  <PDB_ID>  (296) 
nan

>  <Standardized_SMILES>  (296) 
C[C@@H](Cc1ccc(O)cc1)NC[C@@H](O)c1cc(O)cc(O)c1

>  <Name>  (296) 
nan

>  <Pocket>  (296) 
nan

>  <ATP_Site>  (296) 
nan

>  <Peripheral>  (296) 
nan

>  <Num_H_Atoms_ProtBoundConf>  (296) 
nan

>  <Num_Resolved_Atoms>  (296) 
nan

>  <Num_Not_Resolved_Atoms>  (296) 
nan

$$$$
CHEMBL389378
     RDKit          3D

  0  0  0  0  0  0  0  0  0  0999 V3000
M  V30 BEGIN CTAB
M  V30 COUNTS 53 57 0 0 0
M  V30 BEGIN ATOM
M  V30 1 O 5.168622 -1.679016 7.321781 0
M  V30 2 C 5.575959 -1.890116 6.011161 0
M  V30 3 C 5.264439 -0.658492 5.192272 0
M  V30 4 N 5.675006 -0.831677 3.809805 0
M  V30 5 C 5.368180 0.348157 3.037042 0
M  V30 6 C 3.914556 0.662767 3.019247 0
M  V30 7 C 3.219681 1.451725 3.910092 0
M  V30 8 C 1.863602 1.664398 3.774118 0
M  V30 9 C 1.201387 1.066459 2.716701 0
M  V30 10 C 1.885216 0.263655 1.802198 0
M  V30 11 C 3.246481 0.057942 1.949885 0
M  V30 12 C 0.915951 -0.236147 0.783271 0
M  V30 13 C -0.360070 0.349901 1.200055 0
M  V30 14 C -1.675383 0.404184 0.851929 0
M  V30 15 C -2.299987 -0.257914 -0.287542 0
M  V30 16 C -3.178472 0.474770 -1.061748 0
M  V30 17 C -3.843965 -0.015666 -2.169199 0
M  V30 18 C -3.606284 -1.338467 -2.520126 0
M  V30 19 C -4.281078 -1.913252 -3.683703 0
M  V30 20 C -5.555741 -1.378741 -3.908620 0
M  V30 21 C -6.325552 -1.828302 -4.982782 0
M  V30 22 C -5.826936 -2.797145 -5.817573 0
M  V30 23 O -6.562087 -3.281613 -6.910592 0
M  V30 24 C -4.572614 -3.304368 -5.573325 0
M  V30 25 C -3.786198 -2.879870 -4.518316 0
M  V30 26 C -2.724606 -2.128294 -1.770042 0
M  V30 27 C -2.098454 -1.565069 -0.677373 0
M  V30 28 N -2.292463 1.190474 1.764102 0
M  V30 29 N -1.425313 1.632252 2.668675 0
M  V30 30 C -0.206401 1.118516 2.336500 0
M  V30 31 H 4.484317 -0.980782 7.316763 0
M  V30 32 H 6.656877 -2.081999 5.929107 0
M  V30 33 H 4.952161 -2.725073 5.605610 0
M  V30 34 H 4.187531 -0.426238 5.305574 0
M  V30 35 H 5.826280 0.204947 5.615109 0
M  V30 36 H 5.207690 -1.645468 3.368205 0
M  V30 37 H 5.790354 0.268748 2.026193 0
M  V30 38 H 5.900604 1.227736 3.505117 0
M  V30 39 H 3.800425 1.875298 4.695667 0
M  V30 40 H 1.391685 2.294366 4.515074 0
M  V30 41 H 3.729501 -0.580872 1.205440 0
M  V30 42 H 0.965915 -1.326430 0.788601 0
M  V30 43 H 1.289553 0.195412 -0.190013 0
M  V30 44 H -3.378761 1.509181 -0.805275 0
M  V30 45 H -4.522338 0.632526 -2.725650 0
M  V30 46 H -6.030886 -0.614366 -3.306711 0
M  V30 47 H -7.323855 -1.411878 -5.162333 0
M  V30 48 H -7.457320 -3.748482 -6.720008 0
M  V30 49 H -4.167308 -4.081407 -6.240900 0
M  V30 50 H -2.794410 -3.253360 -4.291450 0
M  V30 51 H -2.529453 -3.157362 -2.030873 0
M  V30 52 H -1.413073 -2.145821 -0.079841 0
M  V30 53 H -1.656897 2.256293 3.476305 0
M  V30 END ATOM
M  V30 BEGIN BOND
M  V30 1 1 1 2
M  V30 2 1 2 3
M  V30 3 1 3 4
M  V30 4 1 4 5
M  V30 5 1 5 6
M  V30 6 2 6 7
M  V30 7 1 7 8
M  V30 8 2 8 9
M  V30 9 1 9 10
M  V30 10 2 10 11
M  V30 11 1 10 12
M  V30 12 1 12 13
M  V30 13 1 13 14
M  V30 14 1 14 15
M  V30 15 2 15 16
M  V30 16 1 16 17
M  V30 17 2 17 18
M  V30 18 1 18 19
M  V30 19 2 19 20
M  V30 20 1 20 21
M  V30 21 2 21 22
M  V30 22 1 22 23
M  V30 23 1 22 24
M  V30 24 2 24 25
M  V30 25 1 18 26
M  V30 26 2 26 27
M  V30 27 2 14 28
M  V30 28 1 28 29
M  V30 29 1 29 30
M  V30 30 1 11 6
M  V30 31 2 30 13
M  V30 32 1 30 9
M  V30 33 1 27 15
M  V30 34 1 25 19
M  V30 35 1 1 31
M  V30 36 1 2 32
M  V30 37 1 2 33
M  V30 38 1 3 34
M  V30 39 1 3 35
M  V30 40 1 4 36
M  V30 41 1 5 37
M  V30 42 1 5 38
M  V30 43 1 7 39
M  V30 44 1 8 40
M  V30 45 1 11 41
M  V30 46 1 12 42
M  V30 47 1 12 43
M  V30 48 1 16 44
M  V30 49 1 17 45
M  V30 50 1 20 46
M  V30 51 1 21 47
M  V30 52 1 23 48
M  V30 53 1 24 49
M  V30 54 1 25 50
M  V30 55 1 26 51
M  V30 56 1 27 52
M  V30 57 1 29 53
M  V30 END BOND
M  V30 END CTAB
M  END
>  <Dataset>  (297) 
ChEMBL_Kinases

>  <Ligand_Instance>  (297) 
nan

>  <PDB_ID>  (297) 
nan

>  <Standardized_SMILES>  (297) 
OCCNCc1ccc2c(c1)Cc1c(-c3ccc(-c4ccc(O)cc4)cc3)n[nH]c1-2

>  <Name>  (297) 
nan

>  <Pocket>  (297) 
nan

>  <ATP_Site>  (297) 
nan

>  <Peripheral>  (297) 
nan

>  <Num_H_Atoms_ProtBoundConf>  (297) 
nan

>  <Num_Resolved_Atoms>  (297) 
nan

>  <Num_Not_Resolved_Atoms>  (297) 
nan

$$$$
CHEMBL3893740
     RDKit          3D

  0  0  0  0  0  0  0  0  0  0999 V3000
M  V30 BEGIN CTAB
M  V30 COUNTS 60 61 0 0 0
M  V30 BEGIN ATOM
M  V30 1 C -0.164674 -6.020003 -3.044936 0
M  V30 2 C -0.762408 -6.513877 -1.761751 0
M  V30 3 N -1.938251 -5.721754 -1.417351 0
M  V30 4 C -1.935229 -4.328058 -1.145960 0
M  V30 5 C -3.108882 -3.661777 -0.838853 0
M  V30 6 C -3.053263 -2.309168 -0.579795 0
M  V30 7 O -4.283343 -1.729826 -0.282565 0
M  V30 8 C -1.916450 -1.538109 -0.596737 0
M  V30 9 C -0.721002 -2.144835 -0.894772 0
M  V30 10 C -0.786724 -3.524473 -1.158361 0
M  V30 11 C 0.676581 -1.771550 -1.021072 0
M  V30 12 C 1.623712 -1.469957 -0.153423 0
M  V30 13 C 3.034036 -1.092699 -0.204832 0
M  V30 14 C 3.423170 0.215816 0.378192 0 CFG=2
M  V30 15 O 3.069947 0.418964 1.717498 0
M  V30 16 C 3.956494 0.501879 2.770153 0
M  V30 17 O 5.207751 0.413898 2.728286 0
M  V30 18 C 3.265583 0.721652 4.068830 0
M  V30 19 F 4.190461 0.796903 5.080626 0
M  V30 20 F 2.395272 -0.312028 4.379508 0
M  V30 21 F 2.499048 1.871970 4.054974 0
M  V30 22 C 3.182481 1.339440 -0.555408 0 CFG=1
M  V30 23 O 3.556165 1.014090 -1.886156 0
M  V30 24 C 1.811652 1.837827 -0.658848 0
M  V30 25 O 1.603035 2.056524 0.526850 0
M  V30 26 C 0.661850 2.170013 -1.462353 0
M  V30 27 C -0.384781 2.630619 -0.866020 0
M  V30 28 C -0.845276 2.965353 0.478864 0 CFG=1
M  V30 29 C -1.413961 4.403459 0.336387 0
M  V30 30 C -2.022723 2.015233 0.727401 0 CFG=2
M  V30 31 C -2.557939 2.300169 2.093604 0
M  V30 32 O -1.586466 0.676347 0.682454 0
M  V30 33 C -2.148452 -0.134648 -0.286911 0
M  V30 34 O -3.024464 0.365816 -1.078051 0
M  V30 35 H -0.250114 -6.801181 -3.833434 0
M  V30 36 H 0.911102 -5.816898 -2.906286 0
M  V30 37 H -0.707064 -5.137084 -3.432801 0
M  V30 38 H -1.050436 -7.565386 -1.873295 0
M  V30 39 H -0.005179 -6.474975 -0.940940 0
M  V30 40 H -2.860367 -6.205195 -1.362588 0
M  V30 41 H -4.036131 -4.225370 -0.811983 0
M  V30 42 H -4.414893 -1.037046 0.442510 0
M  V30 43 H 0.092005 -4.139838 -1.414850 0
M  V30 44 H 0.940212 -1.763196 -2.070022 0
M  V30 45 H 1.303519 -1.499997 0.895506 0
M  V30 46 H 3.338768 -1.155014 -1.284762 0
M  V30 47 H 3.600122 -1.943412 0.288588 0
M  V30 48 H 4.581202 0.146906 0.431965 0
M  V30 49 H 3.850729 2.230744 -0.324408 0
M  V30 50 H 4.416435 1.389171 -2.139327 0
M  V30 51 H 1.223376 1.862012 -2.293422 0
M  V30 52 H -1.009392 2.758840 -1.713957 0
M  V30 53 H -0.152495 3.047190 1.286707 0
M  V30 54 H -2.229228 4.416072 -0.409378 0
M  V30 55 H -1.641785 4.848734 1.303374 0
M  V30 56 H -0.582651 5.018987 -0.103773 0
M  V30 57 H -2.808531 2.209389 -0.019064 0
M  V30 58 H -3.533425 1.804263 2.285178 0
M  V30 59 H -2.782459 3.396253 2.240697 0
M  V30 60 H -1.888485 1.926354 2.906855 0
M  V30 END ATOM
M  V30 BEGIN BOND
M  V30 1 1 1 2
M  V30 2 1 2 3
M  V30 3 1 3 4
M  V30 4 2 4 5
M  V30 5 1 5 6
M  V30 6 1 6 7
M  V30 7 2 6 8
M  V30 8 1 8 9
M  V30 9 2 9 10
M  V30 10 1 9 11
M  V30 11 2 11 12
M  V30 12 1 12 13
M  V30 13 1 13 14
M  V30 14 1 14 15
M  V30 15 1 15 16
M  V30 16 2 16 17
M  V30 17 1 16 18
M  V30 18 1 18 19
M  V30 19 1 18 20
M  V30 20 1 18 21
M  V30 21 1 14 22
M  V30 22 1 22 23
M  V30 23 1 22 24
M  V30 24 2 24 25
M  V30 25 1 24 26
M  V30 26 2 26 27
M  V30 27 1 27 28
M  V30 28 1 28 29
M  V30 29 1 28 30
M  V30 30 1 30 31
M  V30 31 1 30 32
M  V30 32 1 32 33
M  V30 33 2 33 34
M  V30 34 1 10 4
M  V30 35 1 33 8
M  V30 36 1 1 35
M  V30 37 1 1 36
M  V30 38 1 1 37
M  V30 39 1 2 38
M  V30 40 1 2 39
M  V30 41 1 3 40
M  V30 42 1 5 41
M  V30 43 1 7 42
M  V30 44 1 10 43
M  V30 45 1 11 44
M  V30 46 1 12 45
M  V30 47 1 13 46
M  V30 48 1 13 47
M  V30 49 1 14 48 CFG=1
M  V30 50 1 22 49 CFG=1
M  V30 51 1 23 50
M  V30 52 1 26 51
M  V30 53 1 27 52
M  V30 54 1 28 53 CFG=1
M  V30 55 1 29 54
M  V30 56 1 29 55
M  V30 57 1 29 56
M  V30 58 1 30 57 CFG=3
M  V30 59 1 31 58
M  V30 60 1 31 59
M  V30 61 1 31 60
M  V30 END BOND
M  V30 END CTAB
M  END
>  <Dataset>  (298) 
ChEMBL_Kinases

>  <Ligand_Instance>  (298) 
nan

>  <PDB_ID>  (298) 
nan

>  <Standardized_SMILES>  (298) 
CCNc1cc(O)c2c(c1)/C=C/C[C@H](OC(=O)C(F)(F)F)[C@@H](O)C(=O)/C=C\[C@@H](C)[C@H](C)OC2=O

>  <Name>  (298) 
nan

>  <Pocket>  (298) 
nan

>  <ATP_Site>  (298) 
nan

>  <Peripheral>  (298) 
nan

>  <Num_H_Atoms_ProtBoundConf>  (298) 
nan

>  <Num_Resolved_Atoms>  (298) 
nan

>  <Num_Not_Resolved_Atoms>  (298) 
nan

$$$$
CHEMBL604087
     RDKit          3D

  0  0  0  0  0  0  0  0  0  0999 V3000
M  V30 BEGIN CTAB
M  V30 COUNTS 60 63 0 0 0
M  V30 BEGIN ATOM
M  V30 1 C 0.538876 -2.238374 8.022228 0
M  V30 2 O 0.990900 -0.897337 7.920849 0
M  V30 3 C 1.406689 -0.452778 6.673470 0
M  V30 4 C 1.386629 -1.271526 5.565474 0
M  V30 5 C 1.802814 -0.815592 4.331928 0
M  V30 6 C 2.259004 0.473005 4.135609 0
M  V30 7 C 2.712887 1.025219 2.879200 0
M  V30 8 O 3.086299 2.238304 2.818199 0
M  V30 9 N 2.766296 0.270618 1.681308 0
M  V30 10 C 3.195680 0.701072 0.365446 0
M  V30 11 C 2.098870 1.505950 -0.230540 0
M  V30 12 C 1.912185 2.869071 -0.160590 0
M  V30 13 C 0.807767 3.415596 -0.791118 0
M  V30 14 C -0.115882 2.630696 -1.491021 0
M  V30 15 C 0.071959 1.245579 -1.563459 0
M  V30 16 C -0.919025 0.513408 -2.297926 0
M  V30 17 O -1.882961 1.116244 -2.828117 0
M  V30 18 N -0.849523 -0.900663 -2.451920 0
M  V30 19 C -1.721071 -1.796062 -3.132052 0
M  V30 20 C -2.737286 -2.290386 -2.314735 0
M  V30 21 C -3.699095 -3.186531 -2.794620 0
M  V30 22 C -3.596151 -3.559425 -4.115496 0
M  V30 23 C -2.592252 -3.078467 -4.944597 0
M  V30 24 C -1.666190 -2.204016 -4.448547 0
M  V30 25 C -2.525088 -3.509354 -6.356344 0
M  V30 26 N -2.855231 -4.895974 -6.541951 0
M  V30 27 C -3.664012 -5.486819 -5.528967 0
M  V30 28 C -4.535310 -4.498321 -4.769358 0
M  V30 29 C 1.178190 0.726829 -0.927809 0
M  V30 30 C 2.265024 1.269271 5.275152 0
M  V30 31 C 1.855134 0.847575 6.530181 0
M  V30 32 O 1.868735 1.645155 7.640352 0
M  V30 33 C 2.276880 2.973090 7.735580 0
M  V30 34 H -0.196833 -2.511038 7.231180 0
M  V30 35 H 1.378390 -2.954366 7.937450 0
M  V30 36 H 0.014796 -2.433246 8.987183 0
M  V30 37 H 1.043764 -2.297528 5.630399 0
M  V30 38 H 1.773372 -1.475719 3.498527 0
M  V30 39 H 2.454603 -0.742312 1.739764 0
M  V30 40 H 3.478661 -0.151538 -0.268104 0
M  V30 41 H 4.053215 1.399400 0.485742 0
M  V30 42 H 2.652420 3.404018 0.384430 0
M  V30 43 H 0.683505 4.472680 -0.724172 0
M  V30 44 H -0.932335 3.177556 -1.937149 0
M  V30 45 H -0.089632 -1.477033 -2.048917 0
M  V30 46 H -2.859741 -2.026460 -1.269343 0
M  V30 47 H -4.482597 -3.574382 -2.184788 0
M  V30 48 H -0.852688 -1.779669 -5.019261 0
M  V30 49 H -3.225074 -2.890685 -6.983156 0
M  V30 50 H -1.500458 -3.313777 -6.737483 0
M  V30 51 H -1.950788 -5.445703 -6.650115 0
M  V30 52 H -4.315163 -6.291191 -5.878052 0
M  V30 53 H -2.963479 -5.922816 -4.770998 0
M  V30 54 H -5.132420 -3.929478 -5.503296 0
M  V30 55 H -5.158612 -5.072218 -4.073969 0
M  V30 56 H 1.250142 -0.345731 -1.030910 0
M  V30 57 H 2.616666 2.286206 5.155125 0
M  V30 58 H 1.380464 3.595526 7.988537 0
M  V30 59 H 2.983667 3.159404 8.573798 0
M  V30 60 H 2.731085 3.410077 6.846640 0
M  V30 END ATOM
M  V30 BEGIN BOND
M  V30 1 1 1 2
M  V30 2 1 2 3
M  V30 3 2 3 4
M  V30 4 1 4 5
M  V30 5 2 5 6
M  V30 6 1 6 7
M  V30 7 2 7 8
M  V30 8 1 7 9
M  V30 9 1 9 10
M  V30 10 1 10 11
M  V30 11 2 11 12
M  V30 12 1 12 13
M  V30 13 2 13 14
M  V30 14 1 14 15
M  V30 15 1 15 16
M  V30 16 2 16 17
M  V30 17 1 16 18
M  V30 18 1 18 19
M  V30 19 2 19 20
M  V30 20 1 20 21
M  V30 21 2 21 22
M  V30 22 1 22 23
M  V30 23 2 23 24
M  V30 24 1 23 25
M  V30 25 1 25 26
M  V30 26 1 26 27
M  V30 27 1 27 28
M  V30 28 2 15 29
M  V30 29 1 6 30
M  V30 30 2 30 31
M  V30 31 1 31 32
M  V30 32 1 32 33
M  V30 33 1 31 3
M  V30 34 1 29 11
M  V30 35 1 24 19
M  V30 36 1 28 22
M  V30 37 1 1 34
M  V30 38 1 1 35
M  V30 39 1 1 36
M  V30 40 1 4 37
M  V30 41 1 5 38
M  V30 42 1 9 39
M  V30 43 1 10 40
M  V30 44 1 10 41
M  V30 45 1 12 42
M  V30 46 1 13 43
M  V30 47 1 14 44
M  V30 48 1 18 45
M  V30 49 1 20 46
M  V30 50 1 21 47
M  V30 51 1 24 48
M  V30 52 1 25 49
M  V30 53 1 25 50
M  V30 54 1 26 51
M  V30 55 1 27 52
M  V30 56 1 27 53
M  V30 57 1 28 54
M  V30 58 1 28 55
M  V30 59 1 29 56
M  V30 60 1 30 57
M  V30 61 1 33 58
M  V30 62 1 33 59
M  V30 63 1 33 60
M  V30 END BOND
M  V30 END CTAB
M  END
>  <Dataset>  (299) 
ChEMBL_Kinases

>  <Ligand_Instance>  (299) 
nan

>  <PDB_ID>  (299) 
nan

>  <Standardized_SMILES>  (299) 
COc1ccc(C(=O)NCc2cccc(C(=O)Nc3ccc4c(c3)CNCC4)c2)cc1OC

>  <Name>  (299) 
nan

>  <Pocket>  (299) 
nan

>  <ATP_Site>  (299) 
nan

>  <Peripheral>  (299) 
nan

>  <Num_H_Atoms_ProtBoundConf>  (299) 
nan

>  <Num_Resolved_Atoms>  (299) 
nan

>  <Num_Not_Resolved_Atoms>  (299) 
nan

$$$$
CHEMBL389343
     RDKit          3D

  0  0  0  0  0  0  0  0  0  0999 V3000
M  V30 BEGIN CTAB
M  V30 COUNTS 40 42 0 0 0
M  V30 BEGIN ATOM
M  V30 1 N 1.405959 -4.613330 5.439020 0
M  V30 2 C 1.542180 -4.135014 4.403622 0
M  V30 3 C 1.699728 -3.557151 3.107816 0
M  V30 4 C 2.626369 -3.984967 2.196297 0
M  V30 5 N 2.708728 -3.396503 1.016684 0
M  V30 6 C 1.932736 -2.377404 0.621180 0
M  V30 7 N 2.101260 -1.813265 -0.670349 0
M  V30 8 C 1.389608 -0.743693 -1.269765 0
M  V30 9 C 1.686048 -0.318309 -2.547826 0
M  V30 10 C 1.020146 0.714898 -3.165548 0
M  V30 11 C 0.004816 1.384585 -2.518663 0
M  V30 12 C -0.722564 2.502228 -3.174178 0
M  V30 13 C -0.079465 3.839444 -2.912480 0
M  V30 14 O -0.009915 4.180000 -1.585577 0
M  V30 15 C -0.336571 1.003632 -1.237899 0
M  V30 16 C 0.367835 -0.037552 -0.675261 0
M  V30 17 N 1.043232 -1.991035 1.538786 0
M  V30 18 C 0.884938 -2.524001 2.757254 0
M  V30 19 C -0.147691 -1.959243 3.618741 0
M  V30 20 C -1.360155 -1.733499 2.984888 0
M  V30 21 C -2.474342 -1.198827 3.633363 0
M  V30 22 C -2.341859 -0.888555 4.962590 0
M  V30 23 C -1.129798 -1.106704 5.624514 0
M  V30 24 C -0.045913 -1.636619 4.956868 0
M  V30 25 H 3.290436 -4.801781 2.437775 0
M  V30 26 H 2.849076 -2.237734 -1.267099 0
M  V30 27 H 2.482557 -0.815272 -3.105123 0
M  V30 28 H 1.316246 0.990894 -4.180953 0
M  V30 29 H -1.770793 2.458159 -2.869818 0
M  V30 30 H -0.639034 2.327265 -4.276474 0
M  V30 31 H 0.899673 3.825253 -3.406036 0
M  V30 32 H -0.736740 4.582650 -3.433301 0
M  V30 33 H 0.025591 5.152266 -1.473022 0
M  V30 34 H -1.131632 1.522156 -0.721032 0
M  V30 35 H 0.049942 -0.281440 0.322893 0
M  V30 36 H -1.524686 -1.962420 1.922509 0
M  V30 37 H -3.408238 -1.038224 3.095206 0
M  V30 38 H -3.180642 -0.474542 5.494041 0
M  V30 39 H -1.004614 -0.868977 6.671896 0
M  V30 40 H 0.921030 -1.835814 5.390288 0
M  V30 END ATOM
M  V30 BEGIN BOND
M  V30 1 3 1 2
M  V30 2 1 2 3
M  V30 3 2 3 4
M  V30 4 1 4 5
M  V30 5 2 5 6
M  V30 6 1 6 7
M  V30 7 1 7 8
M  V30 8 2 8 9
M  V30 9 1 9 10
M  V30 10 2 10 11
M  V30 11 1 11 12
M  V30 12 1 12 13
M  V30 13 1 13 14
M  V30 14 1 11 15
M  V30 15 2 15 16
M  V30 16 1 6 17
M  V30 17 2 17 18
M  V30 18 1 18 19
M  V30 19 2 19 20
M  V30 20 1 20 21
M  V30 21 2 21 22
M  V30 22 1 22 23
M  V30 23 2 23 24
M  V30 24 1 18 3
M  V30 25 1 24 19
M  V30 26 1 16 8
M  V30 27 1 4 25
M  V30 28 1 7 26
M  V30 29 1 9 27
M  V30 30 1 10 28
M  V30 31 1 12 29
M  V30 32 1 12 30
M  V30 33 1 13 31
M  V30 34 1 13 32
M  V30 35 1 14 33
M  V30 36 1 15 34
M  V30 37 1 16 35
M  V30 38 1 20 36
M  V30 39 1 21 37
M  V30 40 1 22 38
M  V30 41 1 23 39
M  V30 42 1 24 40
M  V30 END BOND
M  V30 END CTAB
M  END
>  <Dataset>  (300) 
ChEMBL_Kinases

>  <Ligand_Instance>  (300) 
nan

>  <PDB_ID>  (300) 
nan

>  <Standardized_SMILES>  (300) 
N#Cc1cnc(Nc2ccc(CCO)cc2)nc1-c1ccccc1

>  <Name>  (300) 
nan

>  <Pocket>  (300) 
nan

>  <ATP_Site>  (300) 
nan

>  <Peripheral>  (300) 
nan

>  <Num_H_Atoms_ProtBoundConf>  (300) 
nan

>  <Num_Resolved_Atoms>  (300) 
nan

>  <Num_Not_Resolved_Atoms>  (300) 
nan

$$$$
CHEMBL3893222
     RDKit          3D

  0  0  0  0  0  0  0  0  0  0999 V3000
M  V30 BEGIN CTAB
M  V30 COUNTS 57 60 0 0 0
M  V30 BEGIN ATOM
M  V30 1 C 1.716832 1.346925 5.489559 0
M  V30 2 C 2.643129 1.640864 4.360460 0
M  V30 3 N 3.340120 0.464537 3.838465 0
M  V30 4 N 4.524079 -0.051044 4.221616 0
M  V30 5 C 4.834244 -1.137192 3.495599 0
M  V30 6 C 3.835742 -1.366078 2.595897 0
M  V30 7 C 3.580045 -2.283802 1.611834 0
M  V30 8 C 2.433615 -2.096760 0.962772 0
M  V30 9 N 1.606533 -1.109653 1.242532 0
M  V30 10 C 1.787924 -0.202279 2.166677 0
M  V30 11 C 2.951332 -0.351072 2.857590 0
M  V30 12 C 0.597623 0.585466 2.064505 0
M  V30 13 C 0.456308 1.543950 0.910989 0
M  V30 14 C 0.641991 1.027531 -0.460000 0
M  V30 15 O 0.003860 0.114581 -1.064415 0
M  V30 16 C -1.217389 -0.170556 -1.537447 0 CFG=1
M  V30 17 C -1.133203 -0.522876 -3.024732 0 CFG=1
M  V30 18 C -2.414184 -0.836056 -3.691768 0
M  V30 19 O -0.576739 0.550478 -3.740828 0
M  V30 20 C -1.637155 -1.482764 -0.837832 0 CFG=1
M  V30 21 C -2.969376 -1.944453 -1.019613 0
M  V30 22 C -3.132171 -3.336822 -0.987945 0
M  V30 23 C -4.409470 -3.891603 -1.108834 0
M  V30 24 C -5.512182 -3.070542 -1.259498 0
M  V30 25 C -5.304760 -1.713652 -1.285021 0
M  V30 26 C -4.060154 -1.131001 -1.168742 0
M  V30 27 N -0.608446 -2.450499 -1.285390 0
M  V30 28 C 0.732960 -2.963504 -0.993477 0
M  V30 29 O 0.261968 -2.076149 -0.298970 0
M  V30 30 N 1.873524 -2.856090 -0.147394 0
M  V30 31 H 2.320123 0.831460 6.281786 0
M  V30 32 H 0.884116 0.691101 5.255499 0
M  V30 33 H 1.400619 2.293324 5.927936 0
M  V30 34 H 3.489776 2.208543 4.876003 0
M  V30 35 H 2.337848 2.365831 3.617554 0
M  V30 36 H 5.687585 -1.817407 3.503566 0
M  V30 37 H 4.153959 -3.111264 1.296289 0
M  V30 38 H 0.514569 1.271990 2.957783 0
M  V30 39 H -0.360070 -0.015600 2.012944 0
M  V30 40 H 1.121599 2.442903 1.096757 0
M  V30 41 H -0.578261 1.989285 1.017196 0
M  V30 42 H 0.588579 2.001405 -1.111814 0
M  V30 43 H 1.798118 0.817132 -0.471378 0
M  V30 44 H -1.912265 0.648870 -1.350267 0
M  V30 45 H -0.420522 -1.353147 -3.172922 0
M  V30 46 H -3.196271 -0.063105 -3.606158 0
M  V30 47 H -2.754969 -1.880108 -3.536636 0
M  V30 48 H -2.220236 -0.837775 -4.829158 0
M  V30 49 H -0.516155 0.226363 -4.683409 0
M  V30 50 H -1.464612 -1.228031 0.258018 0
M  V30 51 H -2.327495 -4.069377 -0.873197 0
M  V30 52 H -4.553379 -4.965390 -1.086405 0
M  V30 53 H -6.487659 -3.486793 -1.352106 0
M  V30 54 H -6.123598 -0.992194 -1.400878 0
M  V30 55 H -3.783215 -0.108799 -1.175483 0
M  V30 56 H -0.907078 -3.023113 -2.142986 0
M  V30 57 H 2.524307 -3.579739 -0.524032 0
M  V30 END ATOM
M  V30 BEGIN BOND
M  V30 1 1 1 2
M  V30 2 1 2 3
M  V30 3 1 3 4
M  V30 4 2 4 5
M  V30 5 1 5 6
M  V30 6 2 6 7
M  V30 7 1 7 8
M  V30 8 2 8 9
M  V30 9 1 9 10
M  V30 10 2 10 11
M  V30 11 1 10 12
M  V30 12 1 12 13
M  V30 13 1 13 14
M  V30 14 1 14 15
M  V30 15 1 15 16
M  V30 16 1 16 17
M  V30 17 1 17 18
M  V30 18 1 17 19
M  V30 19 1 16 20
M  V30 20 1 20 21
M  V30 21 2 21 22
M  V30 22 1 22 23
M  V30 23 2 23 24
M  V30 24 1 24 25
M  V30 25 2 25 26
M  V30 26 1 20 27
M  V30 27 1 27 28
M  V30 28 2 28 29
M  V30 29 1 28 30
M  V30 30 1 11 3
M  V30 31 1 26 21
M  V30 32 1 11 6
M  V30 33 1 30 8
M  V30 34 1 1 31
M  V30 35 1 1 32
M  V30 36 1 1 33
M  V30 37 1 2 34
M  V30 38 1 2 35
M  V30 39 1 5 36
M  V30 40 1 7 37
M  V30 41 1 12 38
M  V30 42 1 12 39
M  V30 43 1 13 40
M  V30 44 1 13 41
M  V30 45 1 14 42
M  V30 46 1 14 43
M  V30 47 1 16 44 CFG=3
M  V30 48 1 17 45 CFG=1
M  V30 49 1 18 46
M  V30 50 1 18 47
M  V30 51 1 18 48
M  V30 52 1 19 49
M  V30 53 1 20 50 CFG=1
M  V30 54 1 22 51
M  V30 55 1 23 52
M  V30 56 1 24 53
M  V30 57 1 25 54
M  V30 58 1 26 55
M  V30 59 1 27 56
M  V30 60 1 30 57
M  V30 END BOND
M  V30 END CTAB
M  END
>  <Dataset>  (301) 
ChEMBL_Kinases

>  <Ligand_Instance>  (301) 
nan

>  <PDB_ID>  (301) 
nan

>  <Standardized_SMILES>  (301) 
CCn1ncc2cc3nc(c21)CCCO[C@@H]([C@@H](C)O)[C@@H](c1ccccc1)NC(=O)N3

>  <Name>  (301) 
nan

>  <Pocket>  (301) 
nan

>  <ATP_Site>  (301) 
nan

>  <Peripheral>  (301) 
nan

>  <Num_H_Atoms_ProtBoundConf>  (301) 
nan

>  <Num_Resolved_Atoms>  (301) 
nan

>  <Num_Not_Resolved_Atoms>  (301) 
nan

$$$$
CHEMBL4878586
     RDKit          3D

  0  0  0  0  0  0  0  0  0  0999 V3000
M  V30 BEGIN CTAB
M  V30 COUNTS 57 60 0 0 0
M  V30 BEGIN ATOM
M  V30 1 C 4.385604 -3.828732 2.685305 0
M  V30 2 O 3.513290 -2.789063 2.338910 0
M  V30 3 C 3.080796 -2.473295 1.084151 0
M  V30 4 C 3.533668 -3.239937 0.033646 0
M  V30 5 C 3.088108 -2.912362 -1.246396 0
M  V30 6 C 2.229525 -1.855138 -1.405221 0
M  V30 7 C 1.758879 -1.066421 -0.355405 0
M  V30 8 C 2.219023 -1.418464 0.892596 0
M  V30 9 N 1.814152 -0.684578 2.041157 0
M  V30 10 C 0.916562 0.413130 2.010587 0
M  V30 11 N 1.404822 1.628871 1.795511 0
M  V30 12 C 0.676273 2.740929 1.745646 0
M  V30 13 C -0.640254 2.501443 1.940727 0
M  V30 14 C -1.544328 3.632405 1.896273 0
M  V30 15 N -1.103730 4.962996 1.679052 0
M  V30 16 O -2.523395 4.389420 1.907451 0
M  V30 17 C -1.254979 1.319745 2.167594 0
M  V30 18 N -2.569169 0.933517 2.402839 0
M  V30 19 C -3.873890 0.700725 1.925730 0
M  V30 20 C -4.892916 1.596559 2.235232 0
M  V30 21 F -4.707974 2.699843 3.018288 0
M  V30 22 C -6.185871 1.456397 1.803696 0
M  V30 23 C -6.409071 0.342537 1.026490 0
M  V30 24 C -5.464178 -0.589500 0.674771 0
M  V30 25 C -4.163886 -0.412386 1.131594 0
M  V30 26 C -3.132583 -1.406703 0.748300 0
M  V30 27 F -3.727633 -2.399789 -0.016531 0
M  V30 28 F -2.544104 -1.952555 1.861327 0
M  V30 29 F -2.166319 -0.801467 -0.066086 0
M  V30 30 N -0.403472 0.251323 2.196420 0
M  V30 31 C 1.804312 -1.565865 -2.805573 0
M  V30 32 N 1.320767 -2.774987 -3.366256 0
M  V30 33 C -0.066547 -3.044530 -3.262809 0
M  V30 34 C 2.208741 -3.874745 -3.381526 0
M  V30 35 C 3.409615 -3.554494 -2.519641 0
M  V30 36 H 4.493853 -3.836704 3.808822 0
M  V30 37 H 4.057281 -4.816026 2.314222 0
M  V30 38 H 5.401620 -3.554312 2.325074 0
M  V30 39 H 4.208095 -4.085297 0.075877 0
M  V30 40 H 1.081453 -0.236770 -0.506160 0
M  V30 41 H 2.153399 -0.905140 2.998723 0
M  V30 42 H 1.053750 3.732332 1.572782 0
M  V30 43 H -0.148285 5.332136 1.911911 0
M  V30 44 H -0.144475 5.365983 1.903756 0
M  V30 45 H -2.686809 0.686137 3.426124 0
M  V30 46 H -6.987794 2.138674 2.032052 0
M  V30 47 H -7.391953 0.135641 0.632099 0
M  V30 48 H -5.691418 -1.456380 0.056548 0
M  V30 49 H 1.029763 -0.781778 -2.845740 0
M  V30 50 H 2.699759 -1.152912 -3.339874 0
M  V30 51 H -0.234466 -3.679587 -2.353099 0
M  V30 52 H -0.454291 -3.666304 -4.120195 0
M  V30 53 H -0.705083 -2.172358 -3.149950 0
M  V30 54 H 1.676416 -4.795289 -3.044156 0
M  V30 55 H 2.599229 -4.130572 -4.397773 0
M  V30 56 H 4.167316 -3.006686 -3.117759 0
M  V30 57 H 3.894819 -4.553371 -2.310042 0
M  V30 END ATOM
M  V30 BEGIN BOND
M  V30 1 1 1 2
M  V30 2 1 2 3
M  V30 3 2 3 4
M  V30 4 1 4 5
M  V30 5 2 5 6
M  V30 6 1 6 7
M  V30 7 2 7 8
M  V30 8 1 8 9
M  V30 9 1 9 10
M  V30 10 2 10 11
M  V30 11 1 11 12
M  V30 12 2 12 13
M  V30 13 1 13 14
M  V30 14 1 14 15
M  V30 15 2 14 16
M  V30 16 1 13 17
M  V30 17 1 17 18
M  V30 18 1 18 19
M  V30 19 2 19 20
M  V30 20 1 20 21
M  V30 21 1 20 22
M  V30 22 2 22 23
M  V30 23 1 23 24
M  V30 24 2 24 25
M  V30 25 1 25 26
M  V30 26 1 26 27
M  V30 27 1 26 28
M  V30 28 1 26 29
M  V30 29 2 17 30
M  V30 30 1 6 31
M  V30 31 1 31 32
M  V30 32 1 32 33
M  V30 33 1 32 34
M  V30 34 1 34 35
M  V30 35 1 8 3
M  V30 36 1 30 10
M  V30 37 1 35 5
M  V30 38 1 25 19
M  V30 39 1 1 36
M  V30 40 1 1 37
M  V30 41 1 1 38
M  V30 42 1 4 39
M  V30 43 1 7 40
M  V30 44 1 9 41
M  V30 45 1 12 42
M  V30 46 1 15 43
M  V30 47 1 15 44
M  V30 48 1 18 45
M  V30 49 1 22 46
M  V30 50 1 23 47
M  V30 51 1 24 48
M  V30 52 1 31 49
M  V30 53 1 31 50
M  V30 54 1 33 51
M  V30 55 1 33 52
M  V30 56 1 33 53
M  V30 57 1 34 54
M  V30 58 1 34 55
M  V30 59 1 35 56
M  V30 60 1 35 57
M  V30 END BOND
M  V30 END CTAB
M  END
>  <Dataset>  (302) 
ChEMBL_Kinases

>  <Ligand_Instance>  (302) 
nan

>  <PDB_ID>  (302) 
nan

>  <Standardized_SMILES>  (302) 
COc1cc2c(cc1Nc1ncc(C(N)=O)c(Nc3c(F)cccc3C(F)(F)F)n1)CN(C)CC2

>  <Name>  (302) 
nan

>  <Pocket>  (302) 
nan

>  <ATP_Site>  (302) 
nan

>  <Peripheral>  (302) 
nan

>  <Num_H_Atoms_ProtBoundConf>  (302) 
nan

>  <Num_Resolved_Atoms>  (302) 
nan

>  <Num_Not_Resolved_Atoms>  (302) 
nan

$$$$
CHEMBL4878465
     RDKit          3D

  0  0  0  0  0  0  0  0  0  0999 V3000
M  V30 BEGIN CTAB
M  V30 COUNTS 61 65 0 0 0
M  V30 BEGIN ATOM
M  V30 1 C 5.576779 -0.814344 0.495762 0
M  V30 2 O 4.781161 0.183744 1.095545 0
M  V30 3 C 4.493638 0.232027 2.441921 0
M  V30 4 C 4.924273 -0.666368 3.412570 0
M  V30 5 C 4.536639 -0.464777 4.733769 0
M  V30 6 C 3.734790 0.613250 5.077019 0
M  V30 7 F 3.467402 0.637420 6.403785 0
M  V30 8 C 3.313801 1.497597 4.106147 0
M  V30 9 C 3.696263 1.302349 2.789245 0
M  V30 10 C 3.172860 2.318452 1.882672 0
M  V30 11 C 3.918687 3.460617 1.650976 0
M  V30 12 C 3.377590 4.391059 0.783955 0
M  V30 13 N 2.191483 4.257546 0.162056 0
M  V30 14 C 1.440314 3.144456 0.373471 0
M  V30 15 N 0.238697 2.736736 -0.096179 0
M  V30 16 C 0.006379 1.538444 0.471797 0
M  V30 17 C -1.206788 0.761064 0.212613 0
M  V30 18 C -2.129066 1.237387 -0.613049 0
M  V30 19 C -3.257198 0.259347 -0.703994 0
M  V30 20 C -2.634044 -1.025924 -1.238193 0
M  V30 21 N -3.597658 -1.996795 -1.600481 0
M  V30 22 C -4.482911 -2.477752 -0.630726 0
M  V30 23 C -4.661227 -3.951047 -0.548073 0
M  V30 24 C -3.474546 -4.769103 -0.998707 0
M  V30 25 C -3.916301 -6.185586 -1.163854 0
M  V30 26 O -5.104892 -6.589591 -0.950032 0
M  V30 27 O -3.010109 -7.129859 -1.568775 0
M  V30 28 C -2.808157 -4.231402 -2.214450 0
M  V30 29 C -3.260496 -2.886862 -2.665465 0
M  V30 30 C -1.579618 -1.551499 -0.275717 0
M  V30 31 C -1.418667 -0.562368 0.866915 0
M  V30 32 C 1.040993 1.167762 1.300931 0
M  V30 33 C 1.958862 2.199935 1.235522 0
M  V30 34 H 5.269208 -0.953921 -0.559467 0
M  V30 35 H 6.640458 -0.436566 0.463378 0
M  V30 36 H 5.595441 -1.771560 1.040579 0
M  V30 37 H 5.539003 -1.470765 3.069451 0
M  V30 38 H 4.935586 -1.227127 5.380111 0
M  V30 39 H 2.694042 2.301177 4.479140 0
M  V30 40 H 4.898189 3.656420 2.114106 0
M  V30 41 H 3.892253 5.305788 0.549744 0
M  V30 42 H -0.296463 3.330409 -0.761454 0
M  V30 43 H -2.042826 2.179608 -1.116928 0
M  V30 44 H -3.748106 0.120968 0.258171 0
M  V30 45 H -3.983930 0.590314 -1.479814 0
M  V30 46 H -2.083388 -0.729633 -2.157148 0
M  V30 47 H -5.483936 -1.999773 -0.810773 0
M  V30 48 H -4.178666 -2.118368 0.379738 0
M  V30 49 H -5.000895 -4.301697 0.452535 0
M  V30 50 H -5.505406 -4.231778 -1.241246 0
M  V30 51 H -2.742099 -4.767589 -0.164614 0
M  V30 52 H -3.354548 -7.919466 -2.133775 0
M  V30 53 H -1.696010 -4.215314 -2.130654 0
M  V30 54 H -2.999747 -4.940145 -3.071040 0
M  V30 55 H -2.440697 -2.414365 -3.265281 0
M  V30 56 H -4.137451 -2.963430 -3.353845 0
M  V30 57 H -0.575150 -1.643419 -0.744723 0
M  V30 58 H -1.838731 -2.560347 0.103970 0
M  V30 59 H -0.549668 -0.815060 1.479734 0
M  V30 60 H -2.298923 -0.564252 1.537300 0
M  V30 61 H 1.135713 0.263361 1.889263 0
M  V30 END ATOM
M  V30 BEGIN BOND
M  V30 1 1 1 2
M  V30 2 1 2 3
M  V30 3 2 3 4
M  V30 4 1 4 5
M  V30 5 2 5 6
M  V30 6 1 6 7
M  V30 7 1 6 8
M  V30 8 2 8 9
M  V30 9 1 9 10
M  V30 10 2 10 11
M  V30 11 1 11 12
M  V30 12 2 12 13
M  V30 13 1 13 14
M  V30 14 1 14 15
M  V30 15 1 15 16
M  V30 16 1 16 17
M  V30 17 2 17 18
M  V30 18 1 18 19
M  V30 19 1 19 20
M  V30 20 1 20 21
M  V30 21 1 21 22
M  V30 22 1 22 23
M  V30 23 1 23 24
M  V30 24 1 24 25
M  V30 25 2 25 26
M  V30 26 1 25 27
M  V30 27 1 24 28
M  V30 28 1 28 29
M  V30 29 1 20 30
M  V30 30 1 30 31
M  V30 31 2 16 32
M  V30 32 1 32 33
M  V30 33 1 9 3
M  V30 34 1 33 10
M  V30 35 2 33 14
M  V30 36 1 31 17
M  V30 37 1 29 21
M  V30 38 1 1 34
M  V30 39 1 1 35
M  V30 40 1 1 36
M  V30 41 1 4 37
M  V30 42 1 5 38
M  V30 43 1 8 39
M  V30 44 1 11 40
M  V30 45 1 12 41
M  V30 46 1 15 42
M  V30 47 1 18 43
M  V30 48 1 19 44
M  V30 49 1 19 45
M  V30 50 1 20 46
M  V30 51 1 22 47
M  V30 52 1 22 48
M  V30 53 1 23 49
M  V30 54 1 23 50
M  V30 55 1 24 51
M  V30 56 1 27 52
M  V30 57 1 28 53
M  V30 58 1 28 54
M  V30 59 1 29 55
M  V30 60 1 29 56
M  V30 61 1 30 57
M  V30 62 1 30 58
M  V30 63 1 31 59
M  V30 64 1 31 60
M  V30 65 1 32 61
M  V30 END BOND
M  V30 END CTAB
M  END
>  <Dataset>  (303) 
ChEMBL_Kinases

>  <Ligand_Instance>  (303) 
nan

>  <PDB_ID>  (303) 
nan

>  <Standardized_SMILES>  (303) 
COc1ccc(F)cc1-c1ccnc2[nH]c(C3=CCC(N4CCC(C(=O)O)CC4)CC3)cc12

>  <Name>  (303) 
nan

>  <Pocket>  (303) 
nan

>  <ATP_Site>  (303) 
nan

>  <Peripheral>  (303) 
nan

>  <Num_H_Atoms_ProtBoundConf>  (303) 
nan

>  <Num_Resolved_Atoms>  (303) 
nan

>  <Num_Not_Resolved_Atoms>  (303) 
nan

$$$$
CHEMBL3909114
     RDKit          3D

  0  0  0  0  0  0  0  0  0  0999 V3000
M  V30 BEGIN CTAB
M  V30 COUNTS 54 57 0 0 0
M  V30 BEGIN ATOM
M  V30 1 C 5.058790 -3.182020 6.995452 0
M  V30 2 O 5.403208 -2.212389 6.023239 0
M  V30 3 C 4.542950 -1.750530 5.035670 0
M  V30 4 O 3.529864 -2.449860 5.345060 0
M  V30 5 N 4.845526 -0.783985 4.043255 0
M  V30 6 C 3.710986 -0.589501 3.206586 0
M  V30 7 N 2.597500 0.160481 3.122649 0
M  V30 8 C 1.911546 -0.187401 1.997537 0
M  V30 9 C 0.725938 0.275159 1.466448 0
M  V30 10 C 0.199574 -0.236928 0.280521 0
M  V30 11 C -1.100396 0.294227 -0.269770 0
M  V30 12 O -1.983120 0.437653 0.802565 0
M  V30 13 C -0.871633 1.589428 -0.960708 0
M  V30 14 C -0.431126 2.805286 -0.437276 0
M  V30 15 C -0.259121 3.924725 -1.228675 0
M  V30 16 C -0.524749 3.862297 -2.580506 0
M  V30 17 C -0.959786 2.658357 -3.091405 0
M  V30 18 C -1.135640 1.534515 -2.313212 0
M  V30 19 C -1.575088 0.165970 -2.531193 0
M  V30 20 O -1.892028 -0.181533 -3.713641 0
M  V30 21 N -1.570642 -0.587806 -1.298047 0
M  V30 22 C -2.000282 -1.963746 -1.379821 0
M  V30 23 C -3.467282 -2.153603 -1.204268 0
M  V30 24 C -4.041082 -1.701462 0.095075 0
M  V30 25 C -4.268387 -1.455756 -2.301673 0
M  V30 26 C -3.754457 -3.642886 -1.373391 0
M  V30 27 C 0.903709 -1.232672 -0.359638 0
M  V30 28 C 2.086407 -1.685046 0.182736 0
M  V30 29 C 2.623290 -1.185555 1.362898 0
M  V30 30 N 3.723287 -1.418132 2.119796 0
M  V30 31 H 4.786462 -4.166853 6.532842 0
M  V30 32 H 5.882881 -3.277858 7.715834 0
M  V30 33 H 4.129235 -2.826942 7.489013 0
M  V30 34 H 5.803719 -0.375143 4.056009 0
M  V30 35 H 0.224828 1.052727 2.013114 0
M  V30 36 H -1.735648 -0.230736 1.483199 0
M  V30 37 H -0.197688 2.954227 0.607574 0
M  V30 38 H 0.080993 4.865978 -0.827533 0
M  V30 39 H -0.418004 4.695725 -3.286768 0
M  V30 40 H -1.176990 2.587210 -4.166567 0
M  V30 41 H -1.707030 -2.441661 -2.334881 0
M  V30 42 H -1.520483 -2.534772 -0.527650 0
M  V30 43 H -3.414212 -1.877993 0.982089 0
M  V30 44 H -4.391621 -0.640882 0.104957 0
M  V30 45 H -4.976335 -2.319228 0.256308 0
M  V30 46 H -4.036375 -1.853289 -3.289734 0
M  V30 47 H -4.193523 -0.338308 -2.217937 0
M  V30 48 H -5.338681 -1.725406 -2.091115 0
M  V30 49 H -3.265605 -4.209630 -0.557795 0
M  V30 50 H -3.367551 -3.923478 -2.370900 0
M  V30 51 H -4.856472 -3.750083 -1.347169 0
M  V30 52 H 0.562477 -1.662798 -1.266446 0
M  V30 53 H 2.618663 -2.459718 -0.330633 0
M  V30 54 H 4.370164 -2.171830 1.746629 0
M  V30 END ATOM
M  V30 BEGIN BOND
M  V30 1 1 1 2
M  V30 2 1 2 3
M  V30 3 2 3 4
M  V30 4 1 3 5
M  V30 5 1 5 6
M  V30 6 2 6 7
M  V30 7 1 7 8
M  V30 8 2 8 9
M  V30 9 1 9 10
M  V30 10 1 10 11
M  V30 11 1 11 12
M  V30 12 1 11 13
M  V30 13 2 13 14
M  V30 14 1 14 15
M  V30 15 2 15 16
M  V30 16 1 16 17
M  V30 17 2 17 18
M  V30 18 1 18 19
M  V30 19 2 19 20
M  V30 20 1 19 21
M  V30 21 1 21 22
M  V30 22 1 22 23
M  V30 23 1 23 24
M  V30 24 1 23 25
M  V30 25 1 23 26
M  V30 26 2 10 27
M  V30 27 1 27 28
M  V30 28 2 28 29
M  V30 29 1 29 30
M  V30 30 1 30 6
M  V30 31 1 29 8
M  V30 32 1 21 11
M  V30 33 1 18 13
M  V30 34 1 1 31
M  V30 35 1 1 32
M  V30 36 1 1 33
M  V30 37 1 5 34
M  V30 38 1 9 35
M  V30 39 1 12 36
M  V30 40 1 14 37
M  V30 41 1 15 38
M  V30 42 1 16 39
M  V30 43 1 17 40
M  V30 44 1 22 41
M  V30 45 1 22 42
M  V30 46 1 24 43
M  V30 47 1 24 44
M  V30 48 1 24 45
M  V30 49 1 25 46
M  V30 50 1 25 47
M  V30 51 1 25 48
M  V30 52 1 26 49
M  V30 53 1 26 50
M  V30 54 1 26 51
M  V30 55 1 27 52
M  V30 56 1 28 53
M  V30 57 1 30 54
M  V30 END BOND
M  V30 END CTAB
M  END
>  <Dataset>  (304) 
ChEMBL_Kinases

>  <Ligand_Instance>  (304) 
nan

>  <PDB_ID>  (304) 
nan

>  <Standardized_SMILES>  (304) 
COC(=O)Nc1nc2cc(C3(O)c4ccccc4C(=O)N3CC(C)(C)C)ccc2[nH]1

>  <Name>  (304) 
nan

>  <Pocket>  (304) 
nan

>  <ATP_Site>  (304) 
nan

>  <Peripheral>  (304) 
nan

>  <Num_H_Atoms_ProtBoundConf>  (304) 
nan

>  <Num_Resolved_Atoms>  (304) 
nan

>  <Num_Not_Resolved_Atoms>  (304) 
nan

$$$$
CHEMBL3892987
     RDKit          3D

  0  0  0  0  0  0  0  0  0  0999 V3000
M  V30 BEGIN CTAB
M  V30 COUNTS 69 72 0 0 0
M  V30 BEGIN ATOM
M  V30 1 C -1.419236 -3.009653 3.742486 0
M  V30 2 C -0.136061 -2.321853 3.512832 0
M  V30 3 C 0.929984 -2.567969 4.353650 0
M  V30 4 C 2.131024 -1.922052 4.138835 0
M  V30 5 C 2.196616 -1.045187 3.067903 0
M  V30 6 N 3.469493 -0.381975 2.864623 0
M  V30 7 C 4.240718 -1.202639 1.997595 0
M  V30 8 O 3.665600 -2.261532 1.627527 0
M  V30 9 C 5.588250 -0.940046 1.515003 0
M  V30 10 C 6.133470 -1.890943 0.676255 0
M  V30 11 C 7.430335 -1.653944 0.202417 0
M  V30 12 N 8.126786 -0.551173 0.541741 0
M  V30 13 C 7.554576 0.346107 1.360767 0
M  V30 14 C 8.260692 1.589147 1.781110 0
M  V30 15 F 7.601856 2.653478 1.213276 0
M  V30 16 F 8.289974 1.684236 3.156929 0
M  V30 17 F 9.552677 1.513294 1.302182 0
M  V30 18 C 6.284344 0.196343 1.875061 0
M  V30 19 C 1.140372 -0.780850 2.209187 0
M  V30 20 C -0.046655 -1.443697 2.452019 0
M  V30 21 C -1.132325 -1.138544 1.518178 0
M  V30 22 C -1.931145 -2.126164 0.926480 0
M  V30 23 C -2.952254 -1.831886 0.049038 0
M  V30 24 O -3.633391 -2.801214 -0.445752 0
M  V30 25 C -4.363217 -3.737393 -0.983907 0
M  V30 26 C -4.338601 -3.819183 -2.522629 0
M  V30 27 O -3.059208 -4.049632 -2.981770 0
M  V30 28 P -2.998732 -4.147425 -4.670010 0
M  V30 29 O -3.557453 -5.467430 -5.123348 0
M  V30 30 O -3.884319 -2.918490 -5.421260 0
M  V30 31 O -1.413787 -4.027955 -5.234375 0
M  V30 32 N -3.199998 -0.562581 -0.256953 0
M  V30 33 C -2.479618 0.460545 0.266326 0
M  V30 34 N -2.808958 1.790896 -0.111074 0
M  V30 35 C -2.201173 3.033308 0.317264 0
M  V30 36 C -3.196022 3.912265 1.050146 0
M  V30 37 O -4.498030 3.458974 0.795447 0
M  V30 38 C -4.578911 3.319112 -0.588262 0
M  V30 39 C -3.866550 2.059656 -1.032893 0 CFG=1
M  V30 40 C -3.360151 2.345770 -2.434179 0
M  V30 41 C -1.459978 0.157112 1.143187 0
M  V30 42 H -1.437726 -4.067434 3.394160 0
M  V30 43 H -1.545234 -3.060748 4.864459 0
M  V30 44 H -2.295933 -2.421303 3.403040 0
M  V30 45 H 0.820677 -3.264381 5.176559 0
M  V30 46 H 2.977092 -2.099531 4.782934 0
M  V30 47 H 3.945172 0.513956 3.183470 0
M  V30 48 H 5.614428 -2.807191 0.365909 0
M  V30 49 H 7.853149 -2.412528 -0.460808 0
M  V30 50 H 5.832245 0.942489 2.545219 0
M  V30 51 H 1.305750 -0.077444 1.406578 0
M  V30 52 H -1.697768 -3.144986 1.199191 0
M  V30 53 H -4.245098 -4.789013 -0.582644 0
M  V30 54 H -5.470782 -3.544665 -0.778165 0
M  V30 55 H -4.732533 -2.878703 -2.954954 0
M  V30 56 H -4.958341 -4.667622 -2.879423 0
M  V30 57 H -3.435578 -2.629290 -6.271133 0
M  V30 58 H -0.862844 -3.487200 -4.626810 0
M  V30 59 H -1.392965 2.825026 1.046870 0
M  V30 60 H -1.728302 3.575800 -0.523930 0
M  V30 61 H -3.034971 4.949168 0.694478 0
M  V30 62 H -3.079124 3.878361 2.151724 0
M  V30 63 H -5.657992 3.282385 -0.841697 0
M  V30 64 H -4.137463 4.220944 -1.053697 0
M  V30 65 H -4.591539 1.228950 -1.026423 0
M  V30 66 H -3.094350 3.418153 -2.550774 0
M  V30 67 H -4.124332 2.083183 -3.188780 0
M  V30 68 H -2.432756 1.773452 -2.602121 0
M  V30 69 H -0.865041 0.935558 1.580041 0
M  V30 END ATOM
M  V30 BEGIN BOND
M  V30 1 1 1 2
M  V30 2 2 2 3
M  V30 3 1 3 4
M  V30 4 2 4 5
M  V30 5 1 5 6
M  V30 6 1 6 7
M  V30 7 2 7 8
M  V30 8 1 7 9
M  V30 9 2 9 10
M  V30 10 1 10 11
M  V30 11 2 11 12
M  V30 12 1 12 13
M  V30 13 1 13 14
M  V30 14 1 14 15
M  V30 15 1 14 16
M  V30 16 1 14 17
M  V30 17 2 13 18
M  V30 18 1 5 19
M  V30 19 2 19 20
M  V30 20 1 20 21
M  V30 21 2 21 22
M  V30 22 1 22 23
M  V30 23 1 23 24
M  V30 24 1 24 25
M  V30 25 1 25 26
M  V30 26 1 26 27
M  V30 27 1 27 28
M  V30 28 2 28 29
M  V30 29 1 28 30
M  V30 30 1 28 31
M  V30 31 2 23 32
M  V30 32 1 32 33
M  V30 33 1 33 34
M  V30 34 1 34 35
M  V30 35 1 35 36
M  V30 36 1 36 37
M  V30 37 1 37 38
M  V30 38 1 38 39
M  V30 39 1 39 40
M  V30 40 2 33 41
M  V30 41 1 20 2
M  V30 42 1 41 21
M  V30 43 1 18 9
M  V30 44 1 39 34
M  V30 45 1 1 42
M  V30 46 1 1 43
M  V30 47 1 1 44
M  V30 48 1 3 45
M  V30 49 1 4 46
M  V30 50 1 6 47
M  V30 51 1 10 48
M  V30 52 1 11 49
M  V30 53 1 18 50
M  V30 54 1 19 51
M  V30 55 1 22 52
M  V30 56 1 25 53
M  V30 57 1 25 54
M  V30 58 1 26 55
M  V30 59 1 26 56
M  V30 60 1 30 57
M  V30 61 1 31 58
M  V30 62 1 35 59
M  V30 63 1 35 60
M  V30 64 1 36 61
M  V30 65 1 36 62
M  V30 66 1 38 63
M  V30 67 1 38 64
M  V30 68 1 39 65 CFG=3
M  V30 69 1 40 66
M  V30 70 1 40 67
M  V30 71 1 40 68
M  V30 72 1 41 69
M  V30 END BOND
M  V30 END CTAB
M  END
>  <Dataset>  (305) 
ChEMBL_Kinases

>  <Ligand_Instance>  (305) 
nan

>  <PDB_ID>  (305) 
nan

>  <Standardized_SMILES>  (305) 
Cc1ccc(NC(=O)c2ccnc(C(F)(F)F)c2)cc1-c1cc(OCCOP(=O)(O)O)nc(N2CCOC[C@H]2C)c1

>  <Name>  (305) 
nan

>  <Pocket>  (305) 
nan

>  <ATP_Site>  (305) 
nan

>  <Peripheral>  (305) 
nan

>  <Num_H_Atoms_ProtBoundConf>  (305) 
nan

>  <Num_Resolved_Atoms>  (305) 
nan

>  <Num_Not_Resolved_Atoms>  (305) 
nan

$$$$
CHEMBL3892934
     RDKit          3D

  0  0  0  0  0  0  0  0  0  0999 V3000
M  V30 BEGIN CTAB
M  V30 COUNTS 54 58 0 0 0
M  V30 BEGIN ATOM
M  V30 1 C 1.202253 -2.365341 6.276909 0
M  V30 2 C 1.647772 -1.712154 5.046113 0
M  V30 3 C 2.021715 -1.164245 4.039081 0
M  V30 4 C 2.464967 -0.507152 2.856118 0
M  V30 5 C 3.785676 -0.668105 2.508764 0
M  V30 6 C 4.260643 -0.056546 1.380296 0
M  V30 7 C 3.394278 0.705496 0.623911 0
M  V30 8 C 2.062168 0.914495 0.904165 0
M  V30 9 N 1.203662 1.708278 0.111973 0
M  V30 10 C 1.632194 2.421215 -1.040834 0
M  V30 11 O 2.741226 2.519368 -1.653422 0
M  V30 12 C 0.543225 3.196153 -1.621731 0
M  V30 13 C 0.323434 4.065829 -2.670079 0
M  V30 14 C -0.883523 4.672095 -2.939373 0
M  V30 15 C -1.952024 4.395761 -2.107714 0
M  V30 16 C -1.778103 3.531509 -1.047322 0
M  V30 17 C -0.548967 2.948069 -0.818662 0
M  V30 18 C -0.197074 1.975727 0.256650 0
M  V30 19 O -0.569108 2.470849 1.477420 0
M  V30 20 C -0.926063 0.680514 0.032930 0
M  V30 21 C -2.270422 0.502592 0.282718 0
M  V30 22 C -2.959929 -0.673329 0.074410 0
M  V30 23 C -2.260373 -1.758521 -0.421041 0
M  V30 24 N -2.639381 -3.032304 -0.730200 0
M  V30 25 C -1.559028 -3.702832 -1.183393 0
M  V30 26 N -1.727875 -5.064896 -1.567854 0
M  V30 27 C -1.528160 -6.013106 -0.528275 0
M  V30 28 O -1.219595 -5.700144 0.671446 0
M  V30 29 O -1.622097 -7.374945 -0.603791 0
M  V30 30 C -1.405970 -8.250138 0.487955 0
M  V30 31 N -0.508860 -2.844259 -1.155367 0
M  V30 32 C -0.918958 -1.650110 -0.691823 0
M  V30 33 C -0.271719 -0.454341 -0.467786 0
M  V30 34 C 1.657123 0.274219 2.044781 0
M  V30 35 F 0.389695 0.352014 2.505284 0
M  V30 36 H 1.934408 -2.089299 7.054315 0
M  V30 37 H 0.172700 -1.989404 6.465801 0
M  V30 38 H 1.124573 -3.460421 6.123968 0
M  V30 39 H 4.446740 -1.266934 3.112044 0
M  V30 40 H 5.301010 -0.197890 1.128628 0
M  V30 41 H 3.867304 1.143050 -0.243662 0
M  V30 42 H 1.163701 4.274838 -3.313245 0
M  V30 43 H -0.955186 5.350588 -3.801040 0
M  V30 44 H -2.878567 4.894037 -2.356836 0
M  V30 45 H -2.689336 3.403836 -0.479316 0
M  V30 46 H -1.446421 2.182716 1.779312 0
M  V30 47 H -2.861679 1.304349 0.661859 0
M  V30 48 H -4.006716 -0.771622 0.281443 0
M  V30 49 H -3.640004 -3.339804 -0.598537 0
M  V30 50 H -1.979108 -5.481599 -2.507671 0
M  V30 51 H -0.883131 -9.153690 0.170720 0
M  V30 52 H -2.349574 -8.498048 1.016321 0
M  V30 53 H -0.773794 -7.746538 1.276302 0
M  V30 54 H 0.761233 -0.423332 -0.693964 0
M  V30 END ATOM
M  V30 BEGIN BOND
M  V30 1 1 1 2
M  V30 2 3 2 3
M  V30 3 1 3 4
M  V30 4 2 4 5
M  V30 5 1 5 6
M  V30 6 2 6 7
M  V30 7 1 7 8
M  V30 8 1 8 9
M  V30 9 1 9 10
M  V30 10 2 10 11
M  V30 11 1 10 12
M  V30 12 2 12 13
M  V30 13 1 13 14
M  V30 14 2 14 15
M  V30 15 1 15 16
M  V30 16 2 16 17
M  V30 17 1 17 18
M  V30 18 1 18 19
M  V30 19 1 18 20
M  V30 20 2 20 21
M  V30 21 1 21 22
M  V30 22 2 22 23
M  V30 23 1 23 24
M  V30 24 1 24 25
M  V30 25 1 25 26
M  V30 26 1 26 27
M  V30 27 2 27 28
M  V30 28 1 27 29
M  V30 29 1 29 30
M  V30 30 2 25 31
M  V30 31 1 31 32
M  V30 32 2 32 33
M  V30 33 2 8 34
M  V30 34 1 34 35
M  V30 35 1 34 4
M  V30 36 1 18 9
M  V30 37 1 33 20
M  V30 38 1 17 12
M  V30 39 1 32 23
M  V30 40 1 1 36
M  V30 41 1 1 37
M  V30 42 1 1 38
M  V30 43 1 5 39
M  V30 44 1 6 40
M  V30 45 1 7 41
M  V30 46 1 13 42
M  V30 47 1 14 43
M  V30 48 1 15 44
M  V30 49 1 16 45
M  V30 50 1 19 46
M  V30 51 1 21 47
M  V30 52 1 22 48
M  V30 53 1 24 49
M  V30 54 1 26 50
M  V30 55 1 30 51
M  V30 56 1 30 52
M  V30 57 1 30 53
M  V30 58 1 33 54
M  V30 END BOND
M  V30 END CTAB
M  END
>  <Dataset>  (306) 
ChEMBL_Kinases

>  <Ligand_Instance>  (306) 
nan

>  <PDB_ID>  (306) 
nan

>  <Standardized_SMILES>  (306) 
CC#Cc1cccc(N2C(=O)c3ccccc3C2(O)c2ccc3[nH]c(NC(=O)OC)nc3c2)c1F

>  <Name>  (306) 
nan

>  <Pocket>  (306) 
nan

>  <ATP_Site>  (306) 
nan

>  <Peripheral>  (306) 
nan

>  <Num_H_Atoms_ProtBoundConf>  (306) 
nan

>  <Num_Resolved_Atoms>  (306) 
nan

>  <Num_Not_Resolved_Atoms>  (306) 
nan

$$$$
CHEMBL3892660
     RDKit          3D

  0  0  0  0  0  0  0  0  0  0999 V3000
M  V30 BEGIN CTAB
M  V30 COUNTS 52 55 0 0 0
M  V30 BEGIN ATOM
M  V30 1 O -1.005495 1.583775 0.601066 0
M  V30 2 C -0.286501 0.902150 1.394593 0
M  V30 3 O 0.097883 1.631935 2.522909 0
M  V30 4 C 0.198975 -0.509884 1.317942 0 CFG=2
M  V30 5 C 1.712201 -0.443554 1.329203 0
M  V30 6 C 2.283760 0.315070 0.213295 0
M  V30 7 C 2.611952 -0.305588 -0.982807 0
M  V30 8 C 3.144074 0.474174 -1.983049 0
M  V30 9 Br 3.615807 -0.303028 -3.641870 0
M  V30 10 C 3.330403 1.816285 -1.771198 0
M  V30 11 C 2.992217 2.402330 -0.566809 0
M  V30 12 N 3.178973 3.803217 -0.325165 0
M  V30 13 C 2.819270 4.375252 0.928817 0
M  V30 14 N 3.394823 4.575149 2.017991 0
M  V30 15 C 2.732252 5.154195 3.010272 0
M  V30 16 C 1.372989 5.562728 2.882492 0
M  V30 17 S 1.040235 5.047629 1.143753 0
M  V30 18 N 2.475722 1.628278 0.395017 0
M  V30 19 C -0.188541 -1.139071 0.004757 0
M  V30 20 C -1.664668 -1.419200 -0.091316 0
M  V30 21 C -2.199665 -2.056492 1.142949 0 CFG=1
M  V30 22 O -3.049967 -3.114939 0.954292 0
M  V30 23 C -3.031523 -4.263617 0.274942 0
M  V30 24 C -4.276308 -4.885926 0.472465 0
M  V30 25 C -4.592332 -6.123454 -0.107432 0
M  V30 26 C -3.646380 -6.743544 -0.895420 0
M  V30 27 C -2.410297 -6.180617 -1.123366 0
M  V30 28 Cl -1.123365 -6.853918 -2.095941 0
M  V30 29 C -2.164113 -4.967492 -0.525978 0
M  V30 30 F -0.978194 -4.340031 -0.676310 0
M  V30 31 C -1.151077 -2.444206 2.154480 0
M  V30 32 C -0.246443 -1.286213 2.505073 0
M  V30 33 H -0.469057 2.342356 2.952026 0
M  V30 34 H 2.051797 -1.514825 1.258130 0
M  V30 35 H 2.091536 -0.089073 2.317076 0
M  V30 36 H 2.455118 -1.375008 -1.129444 0
M  V30 37 H 3.747292 2.465599 -2.534633 0
M  V30 38 H 3.589418 4.375299 -1.112056 0
M  V30 39 H 3.375592 5.259814 3.900672 0
M  V30 40 H 0.915041 6.014002 3.710050 0
M  V30 41 H 0.361274 -2.077120 -0.184019 0
M  V30 42 H 0.089183 -0.426049 -0.798760 0
M  V30 43 H -1.908975 -1.904609 -1.042433 0
M  V30 44 H -2.140389 -0.391692 -0.187517 0
M  V30 45 H -2.842395 -1.246770 1.639300 0
M  V30 46 H -5.152337 -4.560036 1.057270 0
M  V30 47 H -5.514608 -6.672614 -0.012504 0
M  V30 48 H -3.819940 -7.697250 -1.374084 0
M  V30 49 H -0.518828 -3.249492 1.735429 0
M  V30 50 H -1.677119 -2.847844 3.037773 0
M  V30 51 H -0.862644 -0.612883 3.154398 0
M  V30 52 H 0.607715 -1.579739 3.117372 0
M  V30 END ATOM
M  V30 BEGIN BOND
M  V30 1 2 1 2
M  V30 2 1 2 3
M  V30 3 1 2 4
M  V30 4 1 4 5 CFG=3
M  V30 5 1 5 6
M  V30 6 2 6 7
M  V30 7 1 7 8
M  V30 8 1 8 9
M  V30 9 2 8 10
M  V30 10 1 10 11
M  V30 11 1 11 12
M  V30 12 1 12 13
M  V30 13 2 13 14
M  V30 14 1 14 15
M  V30 15 2 15 16
M  V30 16 1 16 17
M  V30 17 2 11 18
M  V30 18 1 4 19
M  V30 19 1 19 20
M  V30 20 1 20 21
M  V30 21 1 21 22
M  V30 22 1 22 23
M  V30 23 2 23 24
M  V30 24 1 24 25
M  V30 25 2 25 26
M  V30 26 1 26 27
M  V30 27 1 27 28
M  V30 28 2 27 29
M  V30 29 1 29 30
M  V30 30 1 21 31
M  V30 31 1 31 32
M  V30 32 1 32 4
M  V30 33 1 18 6
M  V30 34 1 29 23
M  V30 35 1 17 13
M  V30 36 1 3 33
M  V30 37 1 5 34
M  V30 38 1 5 35
M  V30 39 1 7 36
M  V30 40 1 10 37
M  V30 41 1 12 38
M  V30 42 1 15 39
M  V30 43 1 16 40
M  V30 44 1 19 41
M  V30 45 1 19 42
M  V30 46 1 20 43
M  V30 47 1 20 44
M  V30 48 1 21 45 CFG=1
M  V30 49 1 24 46
M  V30 50 1 25 47
M  V30 51 1 26 48
M  V30 52 1 31 49
M  V30 53 1 31 50
M  V30 54 1 32 51
M  V30 55 1 32 52
M  V30 END BOND
M  V30 END CTAB
M  END
>  <Dataset>  (307) 
ChEMBL_Kinases

>  <Ligand_Instance>  (307) 
nan

>  <PDB_ID>  (307) 
nan

>  <Standardized_SMILES>  (307) 
O=C(O)[C@]1(Cc2cc(Br)cc(Nc3nccs3)n2)CC[C@@H](Oc2cccc(Cl)c2F)CC1

>  <Name>  (307) 
nan

>  <Pocket>  (307) 
nan

>  <ATP_Site>  (307) 
nan

>  <Peripheral>  (307) 
nan

>  <Num_H_Atoms_ProtBoundConf>  (307) 
nan

>  <Num_Resolved_Atoms>  (307) 
nan

>  <Num_Not_Resolved_Atoms>  (307) 
nan

$$$$
CHEMBL389266
     RDKit          3D

  0  0  0  0  0  0  0  0  0  0999 V3000
M  V30 BEGIN CTAB
M  V30 COUNTS 67 70 0 0 0
M  V30 BEGIN ATOM
M  V30 1 C -2.088459 2.802556 7.653758 0
M  V30 2 C -1.430638 1.995924 6.577228 0
M  V30 3 O -2.069010 1.044931 6.064967 0
M  V30 4 N -0.087759 2.342673 6.170686 0
M  V30 5 C 0.486664 1.541940 5.146411 0
M  V30 6 C 0.323823 1.921750 3.833269 0
M  V30 7 C 0.846177 1.201397 2.805712 0
M  V30 8 C 0.840702 1.368336 1.377197 0
M  V30 9 C 1.389984 2.290801 0.506445 0
M  V30 10 C 2.172887 3.414941 1.072135 0
M  V30 11 C 3.557234 3.426224 0.875637 0
M  V30 12 C 4.209835 4.502398 1.425832 0
M  V30 13 C 3.652527 5.545056 2.134092 0
M  V30 14 F 4.451687 6.532295 2.610122 0
M  V30 15 C 2.281490 5.460518 2.284481 0
M  V30 16 C 1.547506 4.425516 1.770427 0
M  V30 17 N 1.080094 1.959124 -0.760641 0
M  V30 18 C 0.325025 0.818338 -0.742149 0
M  V30 19 S -0.056647 0.435603 -2.404817 0
M  V30 20 C -0.928878 -1.060164 -2.733604 0
M  V30 21 C -0.174004 -2.338587 -2.568521 0
M  V30 22 C -1.099537 -3.508709 -2.899437 0
M  V30 23 C -0.358788 -4.775727 -2.708965 0
M  V30 24 O 0.764758 -4.887011 -2.182539 0
M  V30 25 N -1.107047 -5.883438 -3.211657 0
M  V30 26 C -2.410704 -6.036056 -3.866924 0
M  V30 27 C -2.084459 -6.482071 -5.283081 0
M  V30 28 O -1.417420 -7.687004 -5.255629 0
M  V30 29 C -0.215245 -7.633737 -4.543784 0
M  V30 30 C -0.528974 -7.213142 -3.097065 0
M  V30 31 N 0.214136 0.514657 0.553021 0
M  V30 32 C -0.588558 -0.648101 0.849351 0
M  V30 33 C -2.054889 -0.244288 1.068333 0
M  V30 34 O -2.129470 0.657672 2.150651 0
M  V30 35 C 1.562109 0.046431 3.156908 0
M  V30 36 C 1.725683 -0.336934 4.494454 0
M  V30 37 N 1.175596 0.431630 5.475811 0
M  V30 38 H -1.759985 3.854566 7.649694 0
M  V30 39 H -1.862805 2.329702 8.650754 0
M  V30 40 H -3.175581 2.784955 7.431529 0
M  V30 41 H 0.452533 3.120058 6.578228 0
M  V30 42 H -0.215252 2.794495 3.492532 0
M  V30 43 H 4.082680 2.664466 0.338366 0
M  V30 44 H 5.297387 4.529264 1.283173 0
M  V30 45 H 1.799062 6.276256 2.844837 0
M  V30 46 H 0.489161 4.444959 1.933042 0
M  V30 47 H -1.251207 -1.032936 -3.822722 0
M  V30 48 H -1.929340 -1.100080 -2.200881 0
M  V30 49 H 0.380764 -2.469251 -1.643695 0
M  V30 50 H 0.631425 -2.404366 -3.380847 0
M  V30 51 H -2.056696 -3.459461 -2.347567 0
M  V30 52 H -1.398602 -3.461482 -3.981182 0
M  V30 53 H -2.960828 -5.071345 -3.891215 0
M  V30 54 H -3.012826 -6.820264 -3.386093 0
M  V30 55 H -1.467708 -5.710706 -5.797182 0
M  V30 56 H -3.061845 -6.654563 -5.768588 0
M  V30 57 H 0.160280 -8.674637 -4.471020 0
M  V30 58 H 0.504197 -6.922251 -4.971658 0
M  V30 59 H 0.390737 -7.236203 -2.504511 0
M  V30 60 H -1.226144 -7.950262 -2.685109 0
M  V30 61 H -0.251693 -1.032254 1.846963 0
M  V30 62 H -0.513297 -1.479869 0.169580 0
M  V30 63 H -2.630053 -1.157986 1.302419 0
M  V30 64 H -2.477594 0.231824 0.184535 0
M  V30 65 H -3.033434 1.048597 2.197508 0
M  V30 66 H 2.055298 -0.660564 2.470131 0
M  V30 67 H 2.274699 -1.226623 4.785641 0
M  V30 END ATOM
M  V30 BEGIN BOND
M  V30 1 1 1 2
M  V30 2 2 2 3
M  V30 3 1 2 4
M  V30 4 1 4 5
M  V30 5 2 5 6
M  V30 6 1 6 7
M  V30 7 1 7 8
M  V30 8 2 8 9
M  V30 9 1 9 10
M  V30 10 2 10 11
M  V30 11 1 11 12
M  V30 12 2 12 13
M  V30 13 1 13 14
M  V30 14 1 13 15
M  V30 15 2 15 16
M  V30 16 1 9 17
M  V30 17 2 17 18
M  V30 18 1 18 19
M  V30 19 1 19 20
M  V30 20 1 20 21
M  V30 21 1 21 22
M  V30 22 1 22 23
M  V30 23 2 23 24
M  V30 24 1 23 25
M  V30 25 1 25 26
M  V30 26 1 26 27
M  V30 27 1 27 28
M  V30 28 1 28 29
M  V30 29 1 29 30
M  V30 30 1 18 31
M  V30 31 1 31 32
M  V30 32 1 32 33
M  V30 33 1 33 34
M  V30 34 2 7 35
M  V30 35 1 35 36
M  V30 36 2 36 37
M  V30 37 1 37 5
M  V30 38 1 31 8
M  V30 39 1 16 10
M  V30 40 1 30 25
M  V30 41 1 1 38
M  V30 42 1 1 39
M  V30 43 1 1 40
M  V30 44 1 4 41
M  V30 45 1 6 42
M  V30 46 1 11 43
M  V30 47 1 12 44
M  V30 48 1 15 45
M  V30 49 1 16 46
M  V30 50 1 20 47
M  V30 51 1 20 48
M  V30 52 1 21 49
M  V30 53 1 21 50
M  V30 54 1 22 51
M  V30 55 1 22 52
M  V30 56 1 26 53
M  V30 57 1 26 54
M  V30 58 1 27 55
M  V30 59 1 27 56
M  V30 60 1 29 57
M  V30 61 1 29 58
M  V30 62 1 30 59
M  V30 63 1 30 60
M  V30 64 1 32 61
M  V30 65 1 32 62
M  V30 66 1 33 63
M  V30 67 1 33 64
M  V30 68 1 34 65
M  V30 69 1 35 66
M  V30 70 1 36 67
M  V30 END BOND
M  V30 END CTAB
M  END
>  <Dataset>  (308) 
ChEMBL_Kinases

>  <Ligand_Instance>  (308) 
nan

>  <PDB_ID>  (308) 
nan

>  <Standardized_SMILES>  (308) 
CC(=O)Nc1cc(-c2c(-c3ccc(F)cc3)nc(SCCCC(=O)N3CCOCC3)n2CCO)ccn1

>  <Name>  (308) 
nan

>  <Pocket>  (308) 
nan

>  <ATP_Site>  (308) 
nan

>  <Peripheral>  (308) 
nan

>  <Num_H_Atoms_ProtBoundConf>  (308) 
nan

>  <Num_Resolved_Atoms>  (308) 
nan

>  <Num_Not_Resolved_Atoms>  (308) 
nan

$$$$
CHEMBL3892620
     RDKit          3D

  0  0  0  0  0  0  0  0  0  0999 V3000
M  V30 BEGIN CTAB
M  V30 COUNTS 49 53 0 0 0
M  V30 BEGIN ATOM
M  V30 1 C -1.604727 -4.070709 4.917975 0
M  V30 2 N -0.904961 -4.662704 3.793554 0
M  V30 3 C -0.353470 -3.854147 2.761741 0
M  V30 4 N -0.413748 -2.514479 2.711450 0
M  V30 5 C 0.216133 -2.060319 1.586748 0
M  V30 6 C 0.483405 -0.840354 0.992422 0
M  V30 7 C 1.180443 -0.800010 -0.199315 0
M  V30 8 C 1.472782 0.503797 -0.845680 0
M  V30 9 O 2.123921 0.289876 -2.051362 0
M  V30 10 C 2.311719 1.296416 0.080824 0
M  V30 11 C 3.579145 0.971096 0.515185 0
M  V30 12 C 4.174687 1.873249 1.396978 0
M  V30 13 C 3.539080 3.036621 1.821713 0
M  V30 14 C 2.271068 3.326720 1.364330 0
M  V30 15 C 1.672769 2.443975 0.493425 0
M  V30 16 C 0.378490 2.425757 -0.183096 0
M  V30 17 O -0.463834 3.369236 -0.005936 0
M  V30 18 N 0.242623 1.252483 -1.011222 0
M  V30 19 C -0.946120 1.010920 -1.797938 0
M  V30 20 C -1.991282 0.251540 -1.116371 0
M  V30 21 C -2.908335 1.011977 -0.408650 0
M  V30 22 C -3.965881 0.460747 0.295411 0
M  V30 23 C -4.092301 -0.916598 0.276615 0
M  V30 24 C -3.210973 -1.717798 -0.409093 0
M  V30 25 C -2.177178 -1.113892 -1.092243 0
M  V30 26 C 1.608748 -1.988359 -0.793272 0
M  V30 27 C 1.347078 -3.209808 -0.208267 0
M  V30 28 C 0.650464 -3.236406 0.981169 0
M  V30 29 N 0.307561 -4.326845 1.689715 0
M  V30 30 H -2.373622 -4.756625 5.325757 0
M  V30 31 H -0.815594 -3.829354 5.670319 0
M  V30 32 H -2.032253 -3.100974 4.575469 0
M  V30 33 H -0.822514 -5.703177 3.771966 0
M  V30 34 H 0.124715 0.044089 1.502316 0
M  V30 35 H 1.687926 0.920218 -2.707437 0
M  V30 36 H 4.160272 0.102275 0.252108 0
M  V30 37 H 5.175366 1.671549 1.775285 0
M  V30 38 H 4.059357 3.700263 2.512256 0
M  V30 39 H 1.757225 4.228337 1.682762 0
M  V30 40 H -1.332020 1.954882 -2.269537 0
M  V30 41 H -0.634615 0.389049 -2.688121 0
M  V30 42 H -2.877396 2.098200 -0.345518 0
M  V30 43 H -4.682474 1.043968 0.847544 0
M  V30 44 H -4.931526 -1.346191 0.835954 0
M  V30 45 H -3.315715 -2.795467 -0.419647 0
M  V30 46 H -1.435260 -1.683487 -1.661219 0
M  V30 47 H 2.144497 -1.880236 -1.718239 0
M  V30 48 H 1.727337 -4.053720 -0.759709 0
M  V30 49 H 0.481886 -5.323031 1.506480 0
M  V30 END ATOM
M  V30 BEGIN BOND
M  V30 1 1 1 2
M  V30 2 1 2 3
M  V30 3 2 3 4
M  V30 4 1 4 5
M  V30 5 2 5 6
M  V30 6 1 6 7
M  V30 7 1 7 8
M  V30 8 1 8 9
M  V30 9 1 8 10
M  V30 10 2 10 11
M  V30 11 1 11 12
M  V30 12 2 12 13
M  V30 13 1 13 14
M  V30 14 2 14 15
M  V30 15 1 15 16
M  V30 16 2 16 17
M  V30 17 1 16 18
M  V30 18 1 18 19
M  V30 19 1 19 20
M  V30 20 2 20 21
M  V30 21 1 21 22
M  V30 22 2 22 23
M  V30 23 1 23 24
M  V30 24 2 24 25
M  V30 25 2 7 26
M  V30 26 1 26 27
M  V30 27 2 27 28
M  V30 28 1 28 29
M  V30 29 1 29 3
M  V30 30 1 28 5
M  V30 31 1 18 8
M  V30 32 1 25 20
M  V30 33 1 15 10
M  V30 34 1 1 30
M  V30 35 1 1 31
M  V30 36 1 1 32
M  V30 37 1 2 33
M  V30 38 1 6 34
M  V30 39 1 9 35
M  V30 40 1 11 36
M  V30 41 1 12 37
M  V30 42 1 13 38
M  V30 43 1 14 39
M  V30 44 1 19 40
M  V30 45 1 19 41
M  V30 46 1 21 42
M  V30 47 1 22 43
M  V30 48 1 23 44
M  V30 49 1 24 45
M  V30 50 1 25 46
M  V30 51 1 26 47
M  V30 52 1 27 48
M  V30 53 1 29 49
M  V30 END BOND
M  V30 END CTAB
M  END
>  <Dataset>  (309) 
ChEMBL_Kinases

>  <Ligand_Instance>  (309) 
nan

>  <PDB_ID>  (309) 
nan

>  <Standardized_SMILES>  (309) 
CNc1nc2cc(C3(O)c4ccccc4C(=O)N3Cc3ccccc3)ccc2[nH]1

>  <Name>  (309) 
nan

>  <Pocket>  (309) 
nan

>  <ATP_Site>  (309) 
nan

>  <Peripheral>  (309) 
nan

>  <Num_H_Atoms_ProtBoundConf>  (309) 
nan

>  <Num_Resolved_Atoms>  (309) 
nan

>  <Num_Not_Resolved_Atoms>  (309) 
nan

$$$$
CHEMBL3892617
     RDKit          3D

  0  0  0  0  0  0  0  0  0  0999 V3000
M  V30 BEGIN CTAB
M  V30 COUNTS 60 63 0 0 0
M  V30 BEGIN ATOM
M  V30 1 C -0.490823 2.777809 -2.418902 0
M  V30 2 N 0.199054 2.368667 -1.186073 0
M  V30 3 C 1.267298 1.440987 -1.342155 0
M  V30 4 C 2.006250 0.968581 -0.283619 0
M  V30 5 C 3.048636 0.070671 -0.374989 0
M  V30 6 C 3.396411 -0.406077 -1.617737 0
M  V30 7 C 2.687819 0.034985 -2.715088 0
M  V30 8 C 3.108388 -0.513639 -4.025699 0
M  V30 9 O 4.089828 0.258258 -4.647282 0
M  V30 10 C 1.653324 0.934675 -2.565951 0
M  V30 11 C -0.112376 2.820195 0.130024 0
M  V30 12 N -0.479784 1.883931 1.012438 0
M  V30 13 C -0.815652 2.029589 2.274302 0
M  V30 14 N -1.202255 1.024289 3.199670 0
M  V30 15 C -1.300474 -0.365005 2.933824 0
M  V30 16 C -1.051036 -1.004620 1.760094 0
M  V30 17 C -1.151974 -2.347432 1.526453 0
M  V30 18 N -0.874564 -2.918498 0.254278 0
M  V30 19 C -0.634736 -2.031711 -0.872822 0
M  V30 20 C -0.931224 -2.848190 -2.129808 0
M  V30 21 O -2.080808 -3.577058 -1.908071 0
M  V30 22 C -1.899832 -4.630610 -1.036758 0
M  V30 23 C -0.803044 -4.321174 -0.010858 0
M  V30 24 C -1.549772 -3.140389 2.596456 0
M  V30 25 C -1.821302 -2.571329 3.818261 0
M  V30 26 S -2.324505 -3.560038 5.169132 0
M  V30 27 C -0.935593 -4.123187 6.119746 0
M  V30 28 O -3.093837 -4.737101 4.646330 0
M  V30 29 O -3.272588 -2.764388 6.050234 0
M  V30 30 C -1.693521 -1.208920 3.964501 0
M  V30 31 N -0.763326 3.312735 2.671837 0
M  V30 32 C -0.414831 4.333302 1.895120 0
M  V30 33 C -0.074487 4.109620 0.581472 0
M  V30 34 F 0.298231 5.059061 -0.314822 0
M  V30 35 H -0.765625 1.858290 -3.015049 0
M  V30 36 H 0.155125 3.406088 -3.057274 0
M  V30 37 H -1.427283 3.304952 -2.245953 0
M  V30 38 H 1.799062 1.292856 0.726166 0
M  V30 39 H 3.602972 -0.272583 0.498633 0
M  V30 40 H 4.209699 -1.111026 -1.717243 0
M  V30 41 H 2.229261 -0.598746 -4.702542 0
M  V30 42 H 3.545456 -1.545936 -3.913000 0
M  V30 43 H 4.828425 0.443709 -4.028589 0
M  V30 44 H 1.127935 1.249159 -3.464951 0
M  V30 45 H -1.435714 1.347252 4.170086 0
M  V30 46 H -0.742418 -0.424899 0.925275 0
M  V30 47 H 0.377135 -1.601844 -0.873234 0
M  V30 48 H -1.351882 -1.159652 -0.847634 0
M  V30 49 H -0.067445 -3.522287 -2.278818 0
M  V30 50 H -1.038265 -2.165256 -2.986736 0
M  V30 51 H -2.818661 -4.842636 -0.452566 0
M  V30 52 H -1.616897 -5.548355 -1.601527 0
M  V30 53 H 0.192053 -4.488206 -0.516900 0
M  V30 54 H -0.954451 -4.992533 0.828907 0
M  V30 55 H -1.665470 -4.207342 2.533633 0
M  V30 56 H -1.027296 -5.212285 6.345462 0
M  V30 57 H -0.015215 -3.934970 5.534241 0
M  V30 58 H -0.862420 -3.529002 7.048389 0
M  V30 59 H -1.921408 -0.806714 4.954545 0
M  V30 60 H -0.382894 5.359013 2.248011 0
M  V30 END ATOM
M  V30 BEGIN BOND
M  V30 1 1 1 2
M  V30 2 1 2 3
M  V30 3 2 3 4
M  V30 4 1 4 5
M  V30 5 2 5 6
M  V30 6 1 6 7
M  V30 7 1 7 8
M  V30 8 1 8 9
M  V30 9 2 7 10
M  V30 10 1 2 11
M  V30 11 2 11 12
M  V30 12 1 12 13
M  V30 13 1 13 14
M  V30 14 1 14 15
M  V30 15 2 15 16
M  V30 16 1 16 17
M  V30 17 1 17 18
M  V30 18 1 18 19
M  V30 19 1 19 20
M  V30 20 1 20 21
M  V30 21 1 21 22
M  V30 22 1 22 23
M  V30 23 2 17 24
M  V30 24 1 24 25
M  V30 25 1 25 26
M  V30 26 1 26 27
M  V30 27 2 26 28
M  V30 28 2 26 29
M  V30 29 2 25 30
M  V30 30 2 13 31
M  V30 31 1 31 32
M  V30 32 2 32 33
M  V30 33 1 33 34
M  V30 34 1 10 3
M  V30 35 1 33 11
M  V30 36 1 30 15
M  V30 37 1 23 18
M  V30 38 1 1 35
M  V30 39 1 1 36
M  V30 40 1 1 37
M  V30 41 1 4 38
M  V30 42 1 5 39
M  V30 43 1 6 40
M  V30 44 1 8 41
M  V30 45 1 8 42
M  V30 46 1 9 43
M  V30 47 1 10 44
M  V30 48 1 14 45
M  V30 49 1 16 46
M  V30 50 1 19 47
M  V30 51 1 19 48
M  V30 52 1 20 49
M  V30 53 1 20 50
M  V30 54 1 22 51
M  V30 55 1 22 52
M  V30 56 1 23 53
M  V30 57 1 23 54
M  V30 58 1 24 55
M  V30 59 1 27 56
M  V30 60 1 27 57
M  V30 61 1 27 58
M  V30 62 1 30 59
M  V30 63 1 32 60
M  V30 END BOND
M  V30 END CTAB
M  END
>  <Dataset>  (310) 
ChEMBL_Kinases

>  <Ligand_Instance>  (310) 
nan

>  <PDB_ID>  (310) 
nan

>  <Standardized_SMILES>  (310) 
CN(c1cccc(CO)c1)c1nc(Nc2cc(N3CCOCC3)cc(S(C)(=O)=O)c2)ncc1F

>  <Name>  (310) 
nan

>  <Pocket>  (310) 
nan

>  <ATP_Site>  (310) 
nan

>  <Peripheral>  (310) 
nan

>  <Num_H_Atoms_ProtBoundConf>  (310) 
nan

>  <Num_Resolved_Atoms>  (310) 
nan

>  <Num_Not_Resolved_Atoms>  (310) 
nan

$$$$
CHEMBL3893157
     RDKit          3D

  0  0  0  0  0  0  0  0  0  0999 V3000
M  V30 BEGIN CTAB
M  V30 COUNTS 44 47 0 0 0
M  V30 BEGIN ATOM
M  V30 1 N 4.043269 -1.258430 -6.692241 0
M  V30 2 S 4.881459 -0.225130 -5.586337 0
M  V30 3 O 6.343681 -0.530286 -5.714984 0
M  V30 4 O 4.623737 1.193459 -6.003369 0
M  V30 5 C 4.379960 -0.515615 -3.932940 0
M  V30 6 C 5.003820 -1.438407 -3.118678 0
M  V30 7 C 4.575165 -1.643196 -1.802673 0
M  V30 8 C 3.507008 -0.892146 -1.343502 0
M  V30 9 N 2.881377 -0.874190 -0.131160 0
M  V30 10 C 1.882066 0.026522 -0.144425 0
M  V30 11 C 0.969753 0.354565 0.948591 0
M  V30 12 C -0.011451 1.310544 0.775238 0
M  V30 13 C -0.880926 1.630603 1.800361 0
M  V30 14 C -0.762527 0.981490 3.014991 0
M  V30 15 O -1.519031 1.142697 4.169185 0
M  V30 16 C -2.676084 0.399782 4.428037 0
M  V30 17 C -3.812543 1.011755 3.940200 0
M  V30 18 C -5.035165 0.382954 4.127316 0
M  V30 19 C -5.145179 -0.831468 4.784557 0
M  V30 20 Cl -6.704976 -1.600007 5.004661 0
M  V30 21 C -3.976939 -1.385261 5.244391 0
M  V30 22 C -4.065593 -2.684469 5.951300 0
M  V30 23 F -4.617009 -3.638412 5.091125 0
M  V30 24 F -2.810820 -3.130483 6.350674 0
M  V30 25 F -4.889860 -2.608933 7.055310 0
M  V30 26 C -2.752164 -0.810036 5.087192 0
M  V30 27 C 0.229099 0.022457 3.174308 0
M  V30 28 C 1.114799 -0.315312 2.156304 0
M  V30 29 N 1.881201 0.576957 -1.373374 0
M  V30 30 C 2.856658 0.049464 -2.146806 0
M  V30 31 C 3.306428 0.225526 -3.440856 0
M  V30 32 H 3.275104 -0.798792 -7.198614 0
M  V30 33 H 3.652175 -2.081823 -6.152354 0
M  V30 34 H 5.840087 -2.001635 -3.533569 0
M  V30 35 H 5.071057 -2.371263 -1.167599 0
M  V30 36 H 3.137937 -1.475271 0.699115 0
M  V30 37 H -0.146023 1.848857 -0.159220 0
M  V30 38 H -1.671573 2.348390 1.778156 0
M  V30 39 H -3.870397 1.951469 3.412836 0
M  V30 40 H -5.958529 0.820078 3.764202 0
M  V30 41 H -1.807312 -1.210793 5.433020 0
M  V30 42 H 0.411772 -0.547484 4.083176 0
M  V30 43 H 1.889574 -1.054485 2.258113 0
M  V30 44 H 2.754798 0.974935 -4.012071 0
M  V30 END ATOM
M  V30 BEGIN BOND
M  V30 1 1 1 2
M  V30 2 2 2 3
M  V30 3 2 2 4
M  V30 4 1 2 5
M  V30 5 2 5 6
M  V30 6 1 6 7
M  V30 7 2 7 8
M  V30 8 1 8 9
M  V30 9 1 9 10
M  V30 10 1 10 11
M  V30 11 2 11 12
M  V30 12 1 12 13
M  V30 13 2 13 14
M  V30 14 1 14 15
M  V30 15 1 15 16
M  V30 16 2 16 17
M  V30 17 1 17 18
M  V30 18 2 18 19
M  V30 19 1 19 20
M  V30 20 1 19 21
M  V30 21 1 21 22
M  V30 22 1 22 23
M  V30 23 1 22 24
M  V30 24 1 22 25
M  V30 25 2 21 26
M  V30 26 1 14 27
M  V30 27 2 27 28
M  V30 28 2 10 29
M  V30 29 1 29 30
M  V30 30 2 30 31
M  V30 31 1 31 5
M  V30 32 1 30 8
M  V30 33 1 28 11
M  V30 34 1 26 16
M  V30 35 1 1 32
M  V30 36 1 1 33
M  V30 37 1 6 34
M  V30 38 1 7 35
M  V30 39 1 9 36
M  V30 40 1 12 37
M  V30 41 1 13 38
M  V30 42 1 17 39
M  V30 43 1 18 40
M  V30 44 1 26 41
M  V30 45 1 27 42
M  V30 46 1 28 43
M  V30 47 1 31 44
M  V30 END BOND
M  V30 END CTAB
M  END
>  <Dataset>  (311) 
ChEMBL_Kinases

>  <Ligand_Instance>  (311) 
nan

>  <PDB_ID>  (311) 
nan

>  <Standardized_SMILES>  (311) 
NS(=O)(=O)c1ccc2[nH]c(-c3ccc(Oc4ccc(Cl)c(C(F)(F)F)c4)cc3)nc2c1

>  <Name>  (311) 
nan

>  <Pocket>  (311) 
nan

>  <ATP_Site>  (311) 
nan

>  <Peripheral>  (311) 
nan

>  <Num_H_Atoms_ProtBoundConf>  (311) 
nan

>  <Num_Resolved_Atoms>  (311) 
nan

>  <Num_Not_Resolved_Atoms>  (311) 
nan

$$$$
CHEMBL3895242
     RDKit          3D

  0  0  0  0  0  0  0  0  0  0999 V3000
M  V30 BEGIN CTAB
M  V30 COUNTS 47 51 0 0 0
M  V30 BEGIN ATOM
M  V30 1 O -1.335550 -3.245779 5.102653 0
M  V30 2 C -0.784708 -3.139902 3.957369 0
M  V30 3 C -0.242285 -4.366181 3.325846 0
M  V30 4 O 0.913479 -4.115125 2.565083 0
M  V30 5 C 1.086377 -2.939216 1.817234 0
M  V30 6 C 2.001070 -2.862804 0.780671 0
M  V30 7 C 2.131277 -1.680829 0.076413 0
M  V30 8 C 1.336702 -0.611882 0.437322 0
M  V30 9 C 1.503330 0.649838 -0.335774 0
M  V30 10 O 2.471797 0.552823 -1.310279 0
M  V30 11 C 1.776520 1.730468 0.645914 0
M  V30 12 C 2.911077 1.853889 1.427301 0
M  V30 13 C 3.074996 2.900936 2.335575 0
M  V30 14 C 2.075210 3.849905 2.464425 0
M  V30 15 C 0.971152 3.693793 1.675864 0
M  V30 16 C 0.773486 2.686523 0.777561 0
M  V30 17 C -0.227564 2.241619 -0.186800 0
M  V30 18 O -1.300977 2.922300 -0.311995 0
M  V30 19 N 0.211121 1.040537 -0.860282 0
M  V30 20 C -0.662378 0.488419 -1.877885 0
M  V30 21 C -1.602529 -0.482146 -1.266961 0
M  V30 22 C -2.839222 -0.089735 -0.754010 0
M  V30 23 C -3.717971 -0.981066 -0.191999 0
M  V30 24 C -3.414055 -2.323982 -0.107516 0
M  V30 25 C -2.210343 -2.757315 -0.598072 0
M  V30 26 Br -1.745813 -4.610672 -0.502969 0
M  V30 27 C -1.350885 -1.837431 -1.155912 0
M  V30 28 C 0.405623 -0.616322 1.457618 0
M  V30 29 C 0.305170 -1.832024 2.145138 0
M  V30 30 N -0.647498 -1.906492 3.221841 0
M  V30 31 H -1.059811 -4.803299 2.711415 0
M  V30 32 H 0.010701 -5.098549 4.119481 0
M  V30 33 H 2.588395 -3.734044 0.552326 0
M  V30 34 H 2.846055 -1.639270 -0.724715 0
M  V30 35 H 3.365195 0.483650 -0.924005 0
M  V30 36 H 3.753984 1.177014 1.414060 0
M  V30 37 H 3.949317 3.022256 2.957848 0
M  V30 38 H 2.165940 4.669607 3.153073 0
M  V30 39 H 0.146901 4.423159 1.741421 0
M  V30 40 H -1.185442 1.277667 -2.457898 0
M  V30 41 H -0.059138 -0.073550 -2.649317 0
M  V30 42 H -3.143783 0.941817 -0.786128 0
M  V30 43 H -4.674960 -0.635811 0.197885 0
M  V30 44 H -4.104977 -3.028045 0.335304 0
M  V30 45 H -0.401550 -2.223675 -1.535292 0
M  V30 46 H -0.207655 0.208958 1.735894 0
M  V30 47 H -1.265693 -1.124304 3.526872 0
M  V30 END ATOM
M  V30 BEGIN BOND
M  V30 1 2 1 2
M  V30 2 1 2 3
M  V30 3 1 3 4
M  V30 4 1 4 5
M  V30 5 2 5 6
M  V30 6 1 6 7
M  V30 7 2 7 8
M  V30 8 1 8 9
M  V30 9 1 9 10
M  V30 10 1 9 11
M  V30 11 2 11 12
M  V30 12 1 12 13
M  V30 13 2 13 14
M  V30 14 1 14 15
M  V30 15 2 15 16
M  V30 16 1 16 17
M  V30 17 2 17 18
M  V30 18 1 17 19
M  V30 19 1 19 20
M  V30 20 1 20 21
M  V30 21 2 21 22
M  V30 22 1 22 23
M  V30 23 2 23 24
M  V30 24 1 24 25
M  V30 25 1 25 26
M  V30 26 2 25 27
M  V30 27 1 8 28
M  V30 28 2 28 29
M  V30 29 1 29 30
M  V30 30 1 30 2
M  V30 31 1 29 5
M  V30 32 1 19 9
M  V30 33 1 27 21
M  V30 34 1 16 11
M  V30 35 1 3 31
M  V30 36 1 3 32
M  V30 37 1 6 33
M  V30 38 1 7 34
M  V30 39 1 10 35
M  V30 40 1 12 36
M  V30 41 1 13 37
M  V30 42 1 14 38
M  V30 43 1 15 39
M  V30 44 1 20 40
M  V30 45 1 20 41
M  V30 46 1 22 42
M  V30 47 1 23 43
M  V30 48 1 24 44
M  V30 49 1 27 45
M  V30 50 1 28 46
M  V30 51 1 30 47
M  V30 END BOND
M  V30 END CTAB
M  END
>  <Dataset>  (312) 
ChEMBL_Kinases

>  <Ligand_Instance>  (312) 
nan

>  <PDB_ID>  (312) 
nan

>  <Standardized_SMILES>  (312) 
O=C1COc2ccc(C3(O)c4ccccc4C(=O)N3Cc3cccc(Br)c3)cc2N1

>  <Name>  (312) 
nan

>  <Pocket>  (312) 
nan

>  <ATP_Site>  (312) 
nan

>  <Peripheral>  (312) 
nan

>  <Num_H_Atoms_ProtBoundConf>  (312) 
nan

>  <Num_Resolved_Atoms>  (312) 
nan

>  <Num_Not_Resolved_Atoms>  (312) 
nan

$$$$
CHEMBL3895207
     RDKit          3D

  0  0  0  0  0  0  0  0  0  0999 V3000
M  V30 BEGIN CTAB
M  V30 COUNTS 44 48 0 0 0
M  V30 BEGIN ATOM
M  V30 1 N 6.712332 -0.954623 7.063287 0
M  V30 2 C 5.815903 -1.550836 6.101563 0
M  V30 3 O 6.378150 -2.485331 6.694008 0
M  V30 4 C 4.974447 -0.768626 5.209794 0
M  V30 5 C 5.037140 0.598580 5.337811 0
M  V30 6 C 4.218335 1.277421 4.461351 0
M  V30 7 C 3.437360 0.572906 3.567184 0
M  V30 8 N 2.561549 1.015661 2.615210 0
M  V30 9 C 1.996971 0.017967 1.945714 0
M  V30 10 C 1.019979 0.137160 0.864994 0
M  V30 11 C 0.636341 1.416521 0.502508 0
M  V30 12 C -0.292905 1.610658 -0.527685 0
M  V30 13 C -0.803751 0.492656 -1.158149 0
M  V30 14 C -1.765366 0.745113 -2.222332 0
M  V30 15 O -1.691612 1.879405 -2.809056 0
M  V30 16 C -2.835688 -0.127984 -2.738543 0
M  V30 17 C -3.740437 -0.870050 -2.013944 0
M  V30 18 C -4.663987 -1.622320 -2.705820 0
M  V30 19 C -4.758728 -1.694229 -4.072201 0
M  V30 20 C -3.847245 -0.946557 -4.786562 0
M  V30 21 C -2.895524 -0.171569 -4.112347 0
M  V30 22 Cl -1.810623 0.718286 -5.153821 0
M  V30 23 O -5.810032 -2.552091 -4.327269 0
M  V30 24 C -6.324316 -3.119062 -3.134568 0
M  V30 25 O -5.642312 -2.424655 -2.096635 0
M  V30 26 C -0.404565 -0.784784 -0.777764 0
M  V30 27 C 0.514397 -0.986824 0.240362 0
M  V30 28 N 2.527992 -1.108957 2.486061 0
M  V30 29 C 3.401501 -0.796609 3.468468 0
M  V30 30 C 4.211274 -1.510818 4.333606 0
M  V30 31 H 6.764973 0.009419 7.450430 0
M  V30 32 H 6.742761 0.025464 7.437300 0
M  V30 33 H 5.673375 1.081340 6.062128 0
M  V30 34 H 4.199625 2.365133 4.488266 0
M  V30 35 H 2.377318 2.038687 2.455081 0
M  V30 36 H 1.007862 2.324235 0.967124 0
M  V30 37 H -0.591287 2.613554 -0.809524 0
M  V30 38 H -3.636342 -0.788850 -0.950321 0
M  V30 39 H -3.910875 -0.994606 -5.868471 0
M  V30 40 H -7.413649 -2.969337 -3.039648 0
M  V30 41 H -6.164355 -4.218529 -3.079879 0
M  V30 42 H -0.849282 -1.607433 -1.318985 0
M  V30 43 H 0.817971 -1.984096 0.527909 0
M  V30 44 H 4.223210 -2.572212 4.300951 0
M  V30 END ATOM
M  V30 BEGIN BOND
M  V30 1 1 1 2
M  V30 2 2 2 3
M  V30 3 1 2 4
M  V30 4 2 4 5
M  V30 5 1 5 6
M  V30 6 2 6 7
M  V30 7 1 7 8
M  V30 8 1 8 9
M  V30 9 1 9 10
M  V30 10 2 10 11
M  V30 11 1 11 12
M  V30 12 2 12 13
M  V30 13 1 13 14
M  V30 14 2 14 15
M  V30 15 1 14 16
M  V30 16 2 16 17
M  V30 17 1 17 18
M  V30 18 2 18 19
M  V30 19 1 19 20
M  V30 20 2 20 21
M  V30 21 1 21 22
M  V30 22 1 19 23
M  V30 23 1 23 24
M  V30 24 1 24 25
M  V30 25 1 13 26
M  V30 26 2 26 27
M  V30 27 2 9 28
M  V30 28 1 28 29
M  V30 29 2 29 30
M  V30 30 1 30 4
M  V30 31 1 29 7
M  V30 32 1 27 10
M  V30 33 1 21 16
M  V30 34 1 25 18
M  V30 35 1 1 31
M  V30 36 1 1 32
M  V30 37 1 5 33
M  V30 38 1 6 34
M  V30 39 1 8 35
M  V30 40 1 11 36
M  V30 41 1 12 37
M  V30 42 1 17 38
M  V30 43 1 20 39
M  V30 44 1 24 40
M  V30 45 1 24 41
M  V30 46 1 26 42
M  V30 47 1 27 43
M  V30 48 1 30 44
M  V30 END BOND
M  V30 END CTAB
M  END
>  <Dataset>  (313) 
ChEMBL_Kinases

>  <Ligand_Instance>  (313) 
nan

>  <PDB_ID>  (313) 
nan

>  <Standardized_SMILES>  (313) 
NC(=O)c1ccc2[nH]c(-c3ccc(C(=O)c4cc5c(cc4Cl)OCO5)cc3)nc2c1

>  <Name>  (313) 
nan

>  <Pocket>  (313) 
nan

>  <ATP_Site>  (313) 
nan

>  <Peripheral>  (313) 
nan

>  <Num_H_Atoms_ProtBoundConf>  (313) 
nan

>  <Num_Resolved_Atoms>  (313) 
nan

>  <Num_Not_Resolved_Atoms>  (313) 
nan

$$$$
CHEMBL3895205
     RDKit          3D

  0  0  0  0  0  0  0  0  0  0999 V3000
M  V30 BEGIN CTAB
M  V30 COUNTS 50 54 0 0 0
M  V30 BEGIN ATOM
M  V30 1 F 3.474955 -1.207576 4.155435 0
M  V30 2 C 4.163469 -1.711799 3.115985 0
M  V30 3 C 4.885363 -2.887248 3.092270 0
M  V30 4 C 5.551582 -3.295478 1.955397 0
M  V30 5 C 5.507342 -2.524683 0.805245 0
M  V30 6 C 4.783245 -1.347511 0.832082 0
M  V30 7 F 4.807467 -0.666221 -0.356434 0
M  V30 8 C 4.108049 -0.930939 1.979610 0
M  V30 9 C 3.417905 0.337170 1.764580 0
M  V30 10 C 4.123120 1.498862 2.039893 0
M  V30 11 C 3.490672 2.719555 1.844278 0
M  V30 12 C 2.176435 2.714106 1.380149 0
M  V30 13 C 1.351617 3.784557 1.113263 0
M  V30 14 N 0.207598 3.221187 0.696648 0
M  V30 15 C 0.287956 1.882265 0.694614 0
M  V30 16 N -0.691590 0.920923 0.326902 0
M  V30 17 C -1.994943 1.146984 -0.128500 0
M  V30 18 C -2.543809 2.395716 -0.296909 0
M  V30 19 N -3.800423 2.638275 -0.736444 0
M  V30 20 C -4.647376 1.653352 -1.056382 0
M  V30 21 C -4.151411 0.376079 -0.907281 0
M  V30 22 C -2.872991 0.128672 -0.460104 0
M  V30 23 N -2.452349 -1.238801 -0.338469 0
M  V30 24 C -1.991934 -2.060969 0.790182 0
M  V30 25 C -2.875273 -3.270370 1.002755 0
M  V30 26 C -3.830703 -3.538672 -0.109445 0
M  V30 27 C -3.258327 -3.283093 -1.473406 0
M  V30 28 C -2.464947 -2.023866 -1.564386 0
M  V30 29 N 1.527582 1.586227 1.125494 0
M  V30 30 N 2.157637 0.429454 1.321711 0
M  V30 31 H 4.894973 -3.460741 4.011258 0
M  V30 32 H 6.110960 -4.220985 1.961292 0
M  V30 33 H 6.044606 -2.876578 -0.074179 0
M  V30 34 H 5.146281 1.458743 2.400123 0
M  V30 35 H 3.983723 3.666634 2.039751 0
M  V30 36 H 1.523877 4.850456 1.198294 0
M  V30 37 H -0.425921 -0.106593 0.397239 0
M  V30 38 H -2.000236 3.287027 -0.086314 0
M  V30 39 H -5.661505 1.751678 -1.413108 0
M  V30 40 H -4.784739 -0.466741 -1.148701 0
M  V30 41 H -0.985909 -2.436412 0.511997 0
M  V30 42 H -1.898969 -1.461014 1.718820 0
M  V30 43 H -3.463929 -3.067511 1.943954 0
M  V30 44 H -2.250466 -4.153687 1.242464 0
M  V30 45 H -4.830045 -3.047382 0.048125 0
M  V30 46 H -4.078246 -4.636403 -0.064160 0
M  V30 47 H -2.685289 -4.189011 -1.780556 0
M  V30 48 H -4.109717 -3.214156 -2.188682 0
M  V30 49 H -1.389686 -2.343356 -1.698187 0
M  V30 50 H -2.684159 -1.421565 -2.458898 0
M  V30 END ATOM
M  V30 BEGIN BOND
M  V30 1 1 1 2
M  V30 2 2 2 3
M  V30 3 1 3 4
M  V30 4 2 4 5
M  V30 5 1 5 6
M  V30 6 1 6 7
M  V30 7 2 6 8
M  V30 8 1 8 9
M  V30 9 1 9 10
M  V30 10 2 10 11
M  V30 11 1 11 12
M  V30 12 2 12 13
M  V30 13 1 13 14
M  V30 14 2 14 15
M  V30 15 1 15 16
M  V30 16 1 16 17
M  V30 17 2 17 18
M  V30 18 1 18 19
M  V30 19 2 19 20
M  V30 20 1 20 21
M  V30 21 2 21 22
M  V30 22 1 22 23
M  V30 23 1 23 24
M  V30 24 1 24 25
M  V30 25 1 25 26
M  V30 26 1 26 27
M  V30 27 1 27 28
M  V30 28 1 15 29
M  V30 29 1 29 30
M  V30 30 1 8 2
M  V30 31 2 30 9
M  V30 32 1 29 12
M  V30 33 1 22 17
M  V30 34 1 28 23
M  V30 35 1 3 31
M  V30 36 1 4 32
M  V30 37 1 5 33
M  V30 38 1 10 34
M  V30 39 1 11 35
M  V30 40 1 13 36
M  V30 41 1 16 37
M  V30 42 1 18 38
M  V30 43 1 20 39
M  V30 44 1 21 40
M  V30 45 1 24 41
M  V30 46 1 24 42
M  V30 47 1 25 43
M  V30 48 1 25 44
M  V30 49 1 26 45
M  V30 50 1 26 46
M  V30 51 1 27 47
M  V30 52 1 27 48
M  V30 53 1 28 49
M  V30 54 1 28 50
M  V30 END BOND
M  V30 END CTAB
M  END
>  <Dataset>  (314) 
ChEMBL_Kinases

>  <Ligand_Instance>  (314) 
nan

>  <PDB_ID>  (314) 
nan

>  <Standardized_SMILES>  (314) 
Fc1cccc(F)c1-c1ccc2cnc(Nc3cnccc3N3CCCCC3)n2n1

>  <Name>  (314) 
nan

>  <Pocket>  (314) 
nan

>  <ATP_Site>  (314) 
nan

>  <Peripheral>  (314) 
nan

>  <Num_H_Atoms_ProtBoundConf>  (314) 
nan

>  <Num_Resolved_Atoms>  (314) 
nan

>  <Num_Not_Resolved_Atoms>  (314) 
nan

$$$$
CHEMBL4878429
     RDKit          3D

  0  0  0  0  0  0  0  0  0  0999 V3000
M  V30 BEGIN CTAB
M  V30 COUNTS 42 45 0 0 0
M  V30 BEGIN ATOM
M  V30 1 C 2.211144 -6.059647 2.684513 0
M  V30 2 N 1.992662 -5.401009 1.420000 0
M  V30 3 C 2.121588 -4.106687 1.081454 0
M  V30 4 C 1.815009 -3.891768 -0.237283 0
M  V30 5 C 1.801561 -2.685469 -1.054506 0
M  V30 6 C 2.099914 -2.837838 -2.412743 0
M  V30 7 C 2.085855 -1.710741 -3.179443 0
M  V30 8 C 1.792591 -0.485445 -2.643571 0
M  V30 9 N 1.705949 0.739817 -3.139483 0
M  V30 10 C 1.371656 1.614456 -2.150830 0
M  V30 11 C 1.242150 0.894175 -0.968542 0
M  V30 12 C 0.888792 1.622000 0.212348 0
M  V30 13 O 0.698407 2.870131 0.089197 0
M  V30 14 N 0.676226 1.332053 1.567748 0
M  V30 15 C 0.313041 2.233853 2.619878 0
M  V30 16 C -1.117113 2.612365 2.638027 0
M  V30 17 C -1.963636 1.764422 3.357667 0
M  V30 18 C -3.333261 1.979324 3.479756 0
M  V30 19 C -3.903576 3.086549 2.861778 0
M  V30 20 Cl -5.628148 3.330228 3.029366 0
M  V30 21 C -3.080432 3.936087 2.145189 0
M  V30 22 C -1.731500 3.693323 2.046037 0
M  V30 23 N 1.509646 -0.358572 -1.342979 0
M  V30 24 C 1.518986 -1.443603 -0.582976 0
M  V30 25 C 1.482272 -5.168256 -0.696771 0
M  V30 26 N 1.599264 -6.055328 0.324859 0
M  V30 27 H 2.777925 -5.457556 3.396142 0
M  V30 28 H 2.711426 -7.039449 2.450542 0
M  V30 29 H 1.215850 -6.326870 3.096138 0
M  V30 30 H 2.430298 -3.312452 1.755093 0
M  V30 31 H 2.328707 -3.825747 -2.809477 0
M  V30 32 H 2.306044 -1.755740 -4.226482 0
M  V30 33 H 1.291422 2.636432 -2.527641 0
M  V30 34 H 0.809440 0.329772 1.789991 0
M  V30 35 H 0.901998 3.187230 2.541050 0
M  V30 36 H 0.572942 1.776002 3.588086 0
M  V30 37 H -1.575908 0.888408 3.857995 0
M  V30 38 H -3.950331 1.290405 4.050690 0
M  V30 39 H -3.510121 4.793598 1.663538 0
M  V30 40 H -1.091105 4.348410 1.499836 0
M  V30 41 H 1.300415 -1.395444 0.454167 0
M  V30 42 H 1.176845 -5.433963 -1.696643 0
M  V30 END ATOM
M  V30 BEGIN BOND
M  V30 1 1 1 2
M  V30 2 1 2 3
M  V30 3 2 3 4
M  V30 4 1 4 5
M  V30 5 1 5 6
M  V30 6 2 6 7
M  V30 7 1 7 8
M  V30 8 2 8 9
M  V30 9 1 9 10
M  V30 10 2 10 11
M  V30 11 1 11 12
M  V30 12 2 12 13
M  V30 13 1 12 14
M  V30 14 1 14 15
M  V30 15 1 15 16
M  V30 16 2 16 17
M  V30 17 1 17 18
M  V30 18 2 18 19
M  V30 19 1 19 20
M  V30 20 1 19 21
M  V30 21 2 21 22
M  V30 22 1 11 23
M  V30 23 1 23 24
M  V30 24 1 4 25
M  V30 25 2 25 26
M  V30 26 1 26 2
M  V30 27 2 24 5
M  V30 28 1 23 8
M  V30 29 1 22 16
M  V30 30 1 1 27
M  V30 31 1 1 28
M  V30 32 1 1 29
M  V30 33 1 3 30
M  V30 34 1 6 31
M  V30 35 1 7 32
M  V30 36 1 10 33
M  V30 37 1 14 34
M  V30 38 1 15 35
M  V30 39 1 15 36
M  V30 40 1 17 37
M  V30 41 1 18 38
M  V30 42 1 21 39
M  V30 43 1 22 40
M  V30 44 1 24 41
M  V30 45 1 25 42
M  V30 END BOND
M  V30 END CTAB
M  END
>  <Dataset>  (315) 
ChEMBL_Kinases

>  <Ligand_Instance>  (315) 
nan

>  <PDB_ID>  (315) 
nan

>  <Standardized_SMILES>  (315) 
Cn1cc(-c2ccc3ncc(C(=O)NCc4ccc(Cl)cc4)n3c2)cn1

>  <Name>  (315) 
nan

>  <Pocket>  (315) 
nan

>  <ATP_Site>  (315) 
nan

>  <Peripheral>  (315) 
nan

>  <Num_H_Atoms_ProtBoundConf>  (315) 
nan

>  <Num_Resolved_Atoms>  (315) 
nan

>  <Num_Not_Resolved_Atoms>  (315) 
nan

$$$$
CHEMBL3894962
     RDKit          3D

  0  0  0  0  0  0  0  0  0  0999 V3000
M  V30 BEGIN CTAB
M  V30 COUNTS 41 44 0 0 0
M  V30 BEGIN ATOM
M  V30 1 N 2.235233 -8.612803 0.904147 0
M  V30 2 C 2.786077 -7.305538 0.741675 0
M  V30 3 O 4.039634 -7.124360 0.701809 0
M  V30 4 C 1.797947 -6.223089 0.628427 0
M  V30 5 C 0.429347 -6.382327 0.667417 0
M  V30 6 C -0.405879 -5.290008 0.550749 0
M  V30 7 C 0.143519 -4.026384 0.393431 0
M  V30 8 N -0.475740 -2.844209 0.262971 0
M  V30 9 C 0.475287 -1.900357 0.137491 0
M  V30 10 C 0.234214 -0.468516 -0.028022 0
M  V30 11 C -1.065794 0.000260 -0.064196 0
M  V30 12 C -1.328485 1.354155 -0.220183 0
M  V30 13 C -0.261688 2.224572 -0.338696 0
M  V30 14 O -0.298555 3.609893 -0.501725 0
M  V30 15 C -0.299978 4.458886 0.598216 0
M  V30 16 C 0.882636 4.943437 1.167506 0
M  V30 17 C 0.895998 5.788930 2.262179 0
M  V30 18 C -0.338104 6.134507 2.770859 0
M  V30 19 Br -0.366550 7.300868 4.283271 0
M  V30 20 C -1.537114 5.695227 2.261028 0
M  V30 21 O -2.776485 6.046778 2.777707 0
M  V30 22 C -1.503776 4.849652 1.163942 0
M  V30 23 C 1.045858 1.760858 -0.303230 0
M  V30 24 C 1.304338 0.397379 -0.146049 0
M  V30 25 N 1.678091 -2.499434 0.190490 0
M  V30 26 C 1.527301 -3.825531 0.349303 0
M  V30 27 C 2.311207 -4.953921 0.470987 0
M  V30 28 H 2.333982 -9.434919 1.540466 0
M  V30 29 H 1.503682 -8.919274 0.219418 0
M  V30 30 H 0.094569 -7.409758 0.793682 0
M  V30 31 H -1.474775 -5.448299 0.585206 0
M  V30 32 H -1.499331 -2.637226 0.253628 0
M  V30 33 H -1.942948 -0.641500 0.024521 0
M  V30 34 H -2.287707 1.831394 -0.262385 0
M  V30 35 H 1.808190 4.620627 0.703571 0
M  V30 36 H 1.824419 6.152850 2.687758 0
M  V30 37 H -3.097075 5.633564 3.650646 0
M  V30 38 H -2.453108 4.486957 0.740989 0
M  V30 39 H 1.939607 2.354968 -0.386566 0
M  V30 40 H 2.308364 -0.017647 -0.111855 0
M  V30 41 H 3.366425 -4.776714 0.434497 0
M  V30 END ATOM
M  V30 BEGIN BOND
M  V30 1 1 1 2
M  V30 2 2 2 3
M  V30 3 1 2 4
M  V30 4 2 4 5
M  V30 5 1 5 6
M  V30 6 2 6 7
M  V30 7 1 7 8
M  V30 8 1 8 9
M  V30 9 1 9 10
M  V30 10 2 10 11
M  V30 11 1 11 12
M  V30 12 2 12 13
M  V30 13 1 13 14
M  V30 14 1 14 15
M  V30 15 2 15 16
M  V30 16 1 16 17
M  V30 17 2 17 18
M  V30 18 1 18 19
M  V30 19 1 18 20
M  V30 20 1 20 21
M  V30 21 2 20 22
M  V30 22 1 13 23
M  V30 23 2 23 24
M  V30 24 2 9 25
M  V30 25 1 25 26
M  V30 26 2 26 27
M  V30 27 1 27 4
M  V30 28 1 26 7
M  V30 29 1 24 10
M  V30 30 1 22 15
M  V30 31 1 1 28
M  V30 32 1 1 29
M  V30 33 1 5 30
M  V30 34 1 6 31
M  V30 35 1 8 32
M  V30 36 1 11 33
M  V30 37 1 12 34
M  V30 38 1 16 35
M  V30 39 1 17 36
M  V30 40 1 21 37
M  V30 41 1 22 38
M  V30 42 1 23 39
M  V30 43 1 24 40
M  V30 44 1 27 41
M  V30 END BOND
M  V30 END CTAB
M  END
>  <Dataset>  (316) 
ChEMBL_Kinases

>  <Ligand_Instance>  (316) 
nan

>  <PDB_ID>  (316) 
nan

>  <Standardized_SMILES>  (316) 
NC(=O)c1ccc2[nH]c(-c3ccc(Oc4ccc(Br)c(O)c4)cc3)nc2c1

>  <Name>  (316) 
nan

>  <Pocket>  (316) 
nan

>  <ATP_Site>  (316) 
nan

>  <Peripheral>  (316) 
nan

>  <Num_H_Atoms_ProtBoundConf>  (316) 
nan

>  <Num_Resolved_Atoms>  (316) 
nan

>  <Num_Not_Resolved_Atoms>  (316) 
nan

$$$$
CHEMBL3894846
     RDKit          3D

  0  0  0  0  0  0  0  0  0  0999 V3000
M  V30 BEGIN CTAB
M  V30 COUNTS 46 49 0 0 0
M  V30 BEGIN ATOM
M  V30 1 O -0.157901 -4.574087 1.791523 0
M  V30 2 C 0.786534 -4.233931 2.543703 0
M  V30 3 N 1.603496 -5.105199 3.318630 0
M  V30 4 C 2.582442 -4.364644 4.056894 0
M  V30 5 C 2.325262 -2.931072 3.689374 0
M  V30 6 C 2.923341 -1.745492 4.062287 0
M  V30 7 C 2.446778 -0.535240 3.535068 0
M  V30 8 C 1.372120 -0.488463 2.632546 0
M  V30 9 O 1.161688 0.811286 2.319165 0
M  V30 10 C 0.233493 1.401528 1.463552 0
M  V30 11 C 0.441733 0.946894 0.067394 0 CFG=2
M  V30 12 C 1.853315 1.354479 -0.336216 0
M  V30 13 N 2.174271 0.618996 -1.498805 0
M  V30 14 C 1.126080 0.332726 -2.400509 0
M  V30 15 C -0.060288 1.239467 -2.303342 0
M  V30 16 C -0.504250 1.588475 -0.926941 0 CFG=1
M  V30 17 C -1.883831 1.032013 -0.691989 0
M  V30 18 C -1.990576 -0.355269 -0.825591 0
M  V30 19 C -3.191391 -0.994037 -0.638531 0
M  V30 20 C -4.327805 -0.292236 -0.314003 0
M  V30 21 F -5.518506 -0.910584 -0.126819 0
M  V30 22 C -4.197471 1.076319 -0.187608 0
M  V30 23 C -3.018836 1.747145 -0.366262 0
M  V30 24 C 0.833654 -1.708872 2.313808 0
M  V30 25 C 1.278061 -2.899808 2.811799 0
M  V30 26 H 1.570471 -6.136546 3.401047 0
M  V30 27 H 3.616760 -4.585328 3.775177 0
M  V30 28 H 2.415058 -4.485551 5.157274 0
M  V30 29 H 3.741592 -1.854237 4.757266 0
M  V30 30 H 3.052221 0.285802 3.953064 0
M  V30 31 H -0.817835 1.273664 1.810219 0
M  V30 32 H 0.418396 2.517064 1.539353 0
M  V30 33 H 0.375230 -0.116148 -0.099725 0
M  V30 34 H 1.963273 2.436217 -0.491266 0
M  V30 35 H 2.510587 1.071910 0.512146 0
M  V30 36 H 3.132315 0.457274 -1.759288 0
M  V30 37 H 1.533232 0.471372 -3.430243 0
M  V30 38 H 0.849625 -0.738849 -2.321827 0
M  V30 39 H -0.881992 0.744826 -2.861297 0
M  V30 40 H 0.145025 2.174544 -2.870714 0
M  V30 41 H -0.564962 2.677213 -0.790661 0
M  V30 42 H -1.188362 -1.042382 -1.076325 0
M  V30 43 H -3.332212 -2.075708 -0.730270 0
M  V30 44 H -5.081132 1.666660 0.069777 0
M  V30 45 H -2.873335 2.810549 -0.277596 0
M  V30 46 H 0.012928 -1.609212 1.632664 0
M  V30 END ATOM
M  V30 BEGIN BOND
M  V30 1 2 1 2
M  V30 2 1 2 3
M  V30 3 1 3 4
M  V30 4 1 4 5
M  V30 5 2 5 6
M  V30 6 1 6 7
M  V30 7 2 7 8
M  V30 8 1 8 9
M  V30 9 1 9 10
M  V30 10 1 10 11
M  V30 11 1 11 12
M  V30 12 1 12 13
M  V30 13 1 13 14
M  V30 14 1 14 15
M  V30 15 1 15 16
M  V30 16 1 16 17
M  V30 17 2 17 18
M  V30 18 1 18 19
M  V30 19 2 19 20
M  V30 20 1 20 21
M  V30 21 1 20 22
M  V30 22 2 22 23
M  V30 23 1 8 24
M  V30 24 2 24 25
M  V30 25 1 25 2
M  V30 26 1 25 5
M  V30 27 1 16 11
M  V30 28 1 23 17
M  V30 29 1 3 26
M  V30 30 1 4 27
M  V30 31 1 4 28
M  V30 32 1 6 29
M  V30 33 1 7 30
M  V30 34 1 10 31
M  V30 35 1 10 32
M  V30 36 1 11 33 CFG=1
M  V30 37 1 12 34
M  V30 38 1 12 35
M  V30 39 1 13 36
M  V30 40 1 14 37
M  V30 41 1 14 38
M  V30 42 1 15 39
M  V30 43 1 15 40
M  V30 44 1 16 41 CFG=3
M  V30 45 1 18 42
M  V30 46 1 19 43
M  V30 47 1 22 44
M  V30 48 1 23 45
M  V30 49 1 24 46
M  V30 END BOND
M  V30 END CTAB
M  END
>  <Dataset>  (317) 
ChEMBL_Kinases

>  <Ligand_Instance>  (317) 
nan

>  <PDB_ID>  (317) 
nan

>  <Standardized_SMILES>  (317) 
O=C1NCc2ccc(OC[C@@H]3CNCC[C@H]3c3ccc(F)cc3)cc21

>  <Name>  (317) 
nan

>  <Pocket>  (317) 
nan

>  <ATP_Site>  (317) 
nan

>  <Peripheral>  (317) 
nan

>  <Num_H_Atoms_ProtBoundConf>  (317) 
nan

>  <Num_Resolved_Atoms>  (317) 
nan

>  <Num_Not_Resolved_Atoms>  (317) 
nan

$$$$
CHEMBL3894750
     RDKit          3D

  0  0  0  0  0  0  0  0  0  0999 V3000
M  V30 BEGIN CTAB
M  V30 COUNTS 40 43 0 0 0
M  V30 BEGIN ATOM
M  V30 1 N 1.558900 -8.417167 -0.782847 0
M  V30 2 C 1.769160 -7.086770 -1.283702 0
M  V30 3 O 2.523774 -6.973003 -2.283356 0
M  V30 4 C 1.061777 -6.034231 -0.545056 0
M  V30 5 C 0.237441 -6.179712 0.550709 0
M  V30 6 C -0.328695 -5.058846 1.094151 0
M  V30 7 C -0.098929 -3.807029 0.581256 0
M  V30 8 N -0.530739 -2.574448 0.931060 0
M  V30 9 C -0.005702 -1.661591 0.092648 0
M  V30 10 C -0.271146 -0.229375 0.192128 0
M  V30 11 C -1.101578 0.241417 1.190255 0
M  V30 12 C -1.368342 1.604309 1.303291 0
M  V30 13 C -0.790342 2.503426 0.398378 0
M  V30 14 O -1.066941 3.857835 0.525635 0
M  V30 15 C -0.313885 4.732919 1.295117 0
M  V30 16 C 0.780273 5.480845 0.914280 0
M  V30 17 C 1.405974 6.302984 1.825748 0
M  V30 18 C 0.929850 6.371137 3.118377 0
M  V30 19 Br 1.817388 7.525151 4.376435 0
M  V30 20 C -0.170499 5.633649 3.543369 0
M  V30 21 C -0.784094 4.809100 2.597097 0
M  V30 22 C 0.031971 1.985576 -0.581139 0
M  V30 23 C 0.320479 0.644109 -0.726092 0
M  V30 24 N 0.756067 -2.304127 -0.786854 0
M  V30 25 C 0.733125 -3.632568 -0.529498 0
M  V30 26 C 1.306770 -4.775854 -1.078855 0
M  V30 27 H 2.153473 -9.200974 -0.432511 0
M  V30 28 H 0.751242 -9.051317 -0.598526 0
M  V30 29 H 0.121414 -7.196470 0.875578 0
M  V30 30 H -0.971519 -5.207987 1.954751 0
M  V30 31 H -1.176056 -2.388764 1.737542 0
M  V30 32 H -1.583347 -0.397282 1.925544 0
M  V30 33 H -2.020375 1.999959 2.082539 0
M  V30 34 H 1.054214 5.339227 -0.122628 0
M  V30 35 H 2.254755 6.863430 1.473758 0
M  V30 36 H -0.509166 5.718248 4.566227 0
M  V30 37 H -1.632672 4.269170 3.007362 0
M  V30 38 H 0.454916 2.722379 -1.256817 0
M  V30 39 H 0.971804 0.272987 -1.508615 0
M  V30 40 H 1.932740 -4.548785 -1.930910 0
M  V30 END ATOM
M  V30 BEGIN BOND
M  V30 1 1 1 2
M  V30 2 2 2 3
M  V30 3 1 2 4
M  V30 4 2 4 5
M  V30 5 1 5 6
M  V30 6 2 6 7
M  V30 7 1 7 8
M  V30 8 1 8 9
M  V30 9 1 9 10
M  V30 10 2 10 11
M  V30 11 1 11 12
M  V30 12 2 12 13
M  V30 13 1 13 14
M  V30 14 1 14 15
M  V30 15 2 15 16
M  V30 16 1 16 17
M  V30 17 2 17 18
M  V30 18 1 18 19
M  V30 19 1 18 20
M  V30 20 2 20 21
M  V30 21 1 13 22
M  V30 22 2 22 23
M  V30 23 2 9 24
M  V30 24 1 24 25
M  V30 25 2 25 26
M  V30 26 1 26 4
M  V30 27 1 25 7
M  V30 28 1 23 10
M  V30 29 1 21 15
M  V30 30 1 1 27
M  V30 31 1 1 28
M  V30 32 1 5 29
M  V30 33 1 6 30
M  V30 34 1 8 31
M  V30 35 1 11 32
M  V30 36 1 12 33
M  V30 37 1 16 34
M  V30 38 1 17 35
M  V30 39 1 20 36
M  V30 40 1 21 37
M  V30 41 1 22 38
M  V30 42 1 23 39
M  V30 43 1 26 40
M  V30 END BOND
M  V30 END CTAB
M  END
>  <Dataset>  (318) 
ChEMBL_Kinases

>  <Ligand_Instance>  (318) 
nan

>  <PDB_ID>  (318) 
nan

>  <Standardized_SMILES>  (318) 
NC(=O)c1ccc2[nH]c(-c3ccc(Oc4ccc(Br)cc4)cc3)nc2c1

>  <Name>  (318) 
nan

>  <Pocket>  (318) 
nan

>  <ATP_Site>  (318) 
nan

>  <Peripheral>  (318) 
nan

>  <Num_H_Atoms_ProtBoundConf>  (318) 
nan

>  <Num_Resolved_Atoms>  (318) 
nan

>  <Num_Not_Resolved_Atoms>  (318) 
nan

$$$$
CHEMBL4878007
     RDKit          3D

  0  0  0  0  0  0  0  0  0  0999 V3000
M  V30 BEGIN CTAB
M  V30 COUNTS 49 53 0 0 0
M  V30 BEGIN ATOM
M  V30 1 N 1.462081 -4.106374 4.704214 0
M  V30 2 C 1.677249 -3.211630 3.626834 0
M  V30 3 N 2.918837 -2.875091 3.264564 0
M  V30 4 C 3.189352 -2.032479 2.252510 0
M  V30 5 C 2.198686 -1.444614 1.502839 0
M  V30 6 C 2.480464 -0.540364 0.416663 0
M  V30 7 C 1.813183 0.209305 -0.513906 0
M  V30 8 C 2.674999 0.907799 -1.331330 0
M  V30 9 C 2.533942 1.772310 -2.383447 0
M  V30 10 C 3.695707 2.266148 -2.942874 0
M  V30 11 C 4.945512 1.901004 -2.458654 0
M  V30 12 C 5.077797 1.034532 -1.404454 0
M  V30 13 C 3.905193 0.534065 -0.837362 0
M  V30 14 O 3.735310 -0.281691 0.145276 0
M  V30 15 C 0.912171 -1.749143 1.824601 0
M  V30 16 N -0.280593 -1.310190 1.243687 0
M  V30 17 C -0.902063 -0.103123 1.759693 0
M  V30 18 C -1.961836 0.293514 0.759540 0
M  V30 19 C -3.006639 -0.824383 0.773201 0
M  V30 20 C -4.087193 -0.352401 -0.206079 0
M  V30 21 C -4.920718 0.618691 0.609660 0
M  V30 22 N -4.602916 0.266234 1.994011 0
M  V30 23 C -3.706787 -0.841275 2.060860 0
M  V30 24 O -3.826172 -1.429770 3.169874 0
M  V30 25 C -2.409573 -2.125378 0.346273 0
M  V30 26 C -0.912292 -2.060622 0.157027 0
M  V30 27 C 0.648734 -2.627631 2.880368 0
M  V30 28 Cl -0.958356 -3.119004 3.413399 0
M  V30 29 H 1.850592 -3.970359 5.656761 0
M  V30 30 H 0.869712 -4.941030 4.480456 0
M  V30 31 H 4.231793 -1.844178 2.062645 0
M  V30 32 H 0.745248 0.206077 -0.545288 0
M  V30 33 H 1.526547 2.001066 -2.694315 0
M  V30 34 H 3.588759 2.950241 -3.775263 0
M  V30 35 H 5.850028 2.289205 -2.898701 0
M  V30 36 H 6.033009 0.714498 -0.984751 0
M  V30 37 H -0.167438 0.699157 1.944468 0
M  V30 38 H -1.371158 -0.372060 2.733622 0
M  V30 39 H -1.604079 0.294843 -0.289710 0
M  V30 40 H -2.431312 1.265041 1.019030 0
M  V30 41 H -4.681331 -1.213906 -0.540905 0
M  V30 42 H -3.656726 0.205968 -1.057630 0
M  V30 43 H -4.677104 1.676121 0.384879 0
M  V30 44 H -5.989974 0.382799 0.454424 0
M  V30 45 H -5.110164 0.914366 2.668500 0
M  V30 46 H -2.731435 -2.931058 1.002300 0
M  V30 47 H -2.821293 -2.364738 -0.664927 0
M  V30 48 H -0.595953 -1.719657 -0.820584 0
M  V30 49 H -0.558901 -3.118289 0.283601 0
M  V30 END ATOM
M  V30 BEGIN BOND
M  V30 1 1 1 2
M  V30 2 2 2 3
M  V30 3 1 3 4
M  V30 4 2 4 5
M  V30 5 1 5 6
M  V30 6 2 6 7
M  V30 7 1 7 8
M  V30 8 2 8 9
M  V30 9 1 9 10
M  V30 10 2 10 11
M  V30 11 1 11 12
M  V30 12 2 12 13
M  V30 13 1 13 14
M  V30 14 1 5 15
M  V30 15 1 15 16
M  V30 16 1 16 17
M  V30 17 1 17 18
M  V30 18 1 18 19
M  V30 19 1 19 20
M  V30 20 1 20 21
M  V30 21 1 21 22
M  V30 22 1 22 23
M  V30 23 2 23 24
M  V30 24 1 19 25
M  V30 25 1 25 26
M  V30 26 2 15 27
M  V30 27 1 27 28
M  V30 28 1 27 2
M  V30 29 1 14 6
M  V30 30 1 26 16
M  V30 31 1 13 8
M  V30 32 1 23 19
M  V30 33 1 1 29
M  V30 34 1 1 30
M  V30 35 1 4 31
M  V30 36 1 7 32
M  V30 37 1 9 33
M  V30 38 1 10 34
M  V30 39 1 11 35
M  V30 40 1 12 36
M  V30 41 1 17 37
M  V30 42 1 17 38
M  V30 43 1 18 39
M  V30 44 1 18 40
M  V30 45 1 20 41
M  V30 46 1 20 42
M  V30 47 1 21 43
M  V30 48 1 21 44
M  V30 49 1 22 45
M  V30 50 1 25 46
M  V30 51 1 25 47
M  V30 52 1 26 48
M  V30 53 1 26 49
M  V30 END BOND
M  V30 END CTAB
M  END
>  <Dataset>  (319) 
ChEMBL_Kinases

>  <Ligand_Instance>  (319) 
nan

>  <PDB_ID>  (319) 
nan

>  <Standardized_SMILES>  (319) 
Nc1ncc(-c2cc3ccccc3o2)c(N2CCC3(CCNC3=O)CC2)c1Cl

>  <Name>  (319) 
nan

>  <Pocket>  (319) 
nan

>  <ATP_Site>  (319) 
nan

>  <Peripheral>  (319) 
nan

>  <Num_H_Atoms_ProtBoundConf>  (319) 
nan

>  <Num_Resolved_Atoms>  (319) 
nan

>  <Num_Not_Resolved_Atoms>  (319) 
nan

$$$$
CHEMBL3894138
     RDKit          3D

  0  0  0  0  0  0  0  0  0  0999 V3000
M  V30 BEGIN CTAB
M  V30 COUNTS 43 47 0 0 0
M  V30 BEGIN ATOM
M  V30 1 N 0.414614 -9.168613 1.054632 0
M  V30 2 C 1.311947 -8.088993 1.047652 0
M  V30 3 O 2.537152 -8.205503 1.282989 0
M  V30 4 C 0.727589 -6.784395 0.743127 0
M  V30 5 C -0.606716 -6.562540 0.472168 0
M  V30 6 C -1.104380 -5.306419 0.190499 0
M  V30 7 C -0.266295 -4.209510 0.170402 0
M  V30 8 N -0.487044 -2.888585 -0.072094 0
M  V30 9 C 0.696972 -2.257057 0.040838 0
M  V30 10 C 0.870758 -0.818743 -0.149694 0
M  V30 11 C -0.235877 -0.054119 -0.463747 0
M  V30 12 C -0.152458 1.312638 -0.659298 0
M  V30 13 C 1.117533 1.889056 -0.522654 0
M  V30 14 O 1.123444 3.281418 -0.735899 0
M  V30 15 C 0.916249 4.154777 0.342625 0
M  V30 16 C 1.918945 4.662443 1.132942 0
M  V30 17 C 1.616034 5.526558 2.185805 0
M  V30 18 C 0.317619 5.893354 2.462535 0
M  V30 19 C -0.662403 5.362437 1.646000 0
M  V30 20 C -0.398836 4.508026 0.599731 0
M  V30 21 O -1.868740 5.892190 2.142985 0
M  V30 22 C -1.648348 6.253886 3.511361 0
M  V30 23 O -0.298432 6.718633 3.420545 0
M  V30 24 C 2.230064 1.133676 -0.208978 0
M  V30 25 C 2.114570 -0.229140 -0.019725 0
M  V30 26 N 1.634553 -3.166089 0.347156 0
M  V30 27 C 1.094178 -4.395647 0.440506 0
M  V30 28 C 1.544254 -5.672374 0.716901 0
M  V30 29 H 0.131646 -10.053237 0.537243 0
M  V30 30 H -0.334229 -9.306984 1.788613 0
M  V30 31 H -1.250005 -7.435411 0.492353 0
M  V30 32 H -2.147091 -5.141578 -0.019933 0
M  V30 33 H -1.429325 -2.507207 -0.298031 0
M  V30 34 H -1.227821 -0.495157 -0.571889 0
M  V30 35 H -1.027180 1.883848 -0.902429 0
M  V30 36 H 2.940412 4.366758 0.906192 0
M  V30 37 H 2.411190 5.926130 2.808710 0
M  V30 38 H -1.248761 4.143278 0.013068 0
M  V30 39 H -1.725684 5.365227 4.146984 0
M  V30 40 H -2.334655 7.057281 3.840830 0
M  V30 41 H 3.169909 1.659466 -0.123127 0
M  V30 42 H 2.997193 -0.804033 0.225375 0
M  V30 43 H 2.592426 -5.819129 0.925520 0
M  V30 END ATOM
M  V30 BEGIN BOND
M  V30 1 1 1 2
M  V30 2 2 2 3
M  V30 3 1 2 4
M  V30 4 2 4 5
M  V30 5 1 5 6
M  V30 6 2 6 7
M  V30 7 1 7 8
M  V30 8 1 8 9
M  V30 9 1 9 10
M  V30 10 2 10 11
M  V30 11 1 11 12
M  V30 12 2 12 13
M  V30 13 1 13 14
M  V30 14 1 14 15
M  V30 15 2 15 16
M  V30 16 1 16 17
M  V30 17 2 17 18
M  V30 18 1 18 19
M  V30 19 2 19 20
M  V30 20 1 19 21
M  V30 21 1 21 22
M  V30 22 1 22 23
M  V30 23 1 13 24
M  V30 24 2 24 25
M  V30 25 2 9 26
M  V30 26 1 26 27
M  V30 27 2 27 28
M  V30 28 1 28 4
M  V30 29 1 27 7
M  V30 30 1 25 10
M  V30 31 1 20 15
M  V30 32 1 23 18
M  V30 33 1 1 29
M  V30 34 1 1 30
M  V30 35 1 5 31
M  V30 36 1 6 32
M  V30 37 1 8 33
M  V30 38 1 11 34
M  V30 39 1 12 35
M  V30 40 1 16 36
M  V30 41 1 17 37
M  V30 42 1 20 38
M  V30 43 1 22 39
M  V30 44 1 22 40
M  V30 45 1 24 41
M  V30 46 1 25 42
M  V30 47 1 28 43
M  V30 END BOND
M  V30 END CTAB
M  END
>  <Dataset>  (320) 
ChEMBL_Kinases

>  <Ligand_Instance>  (320) 
nan

>  <PDB_ID>  (320) 
nan

>  <Standardized_SMILES>  (320) 
NC(=O)c1ccc2[nH]c(-c3ccc(Oc4ccc5c(c4)OCO5)cc3)nc2c1

>  <Name>  (320) 
nan

>  <Pocket>  (320) 
nan

>  <ATP_Site>  (320) 
nan

>  <Peripheral>  (320) 
nan

>  <Num_H_Atoms_ProtBoundConf>  (320) 
nan

>  <Num_Resolved_Atoms>  (320) 
nan

>  <Num_Not_Resolved_Atoms>  (320) 
nan

$$$$
CHEMBL389468
     RDKit          3D

  0  0  0  0  0  0  0  0  0  0999 V3000
M  V30 BEGIN CTAB
M  V30 COUNTS 59 63 0 0 0
M  V30 BEGIN ATOM
M  V30 1 C 6.359993 -2.112555 0.797470 0
M  V30 2 C 5.553652 -1.846082 2.035754 0
M  V30 3 N 5.694454 -2.425898 3.258164 0
M  V30 4 N 4.782708 -1.910335 4.080732 0
M  V30 5 C 4.056638 -1.002478 3.394078 0
M  V30 6 C 2.994174 -0.195756 3.797084 0
M  V30 7 C 2.467444 0.633677 2.838415 0
M  V30 8 C 2.879619 0.747835 1.529939 0
M  V30 9 C 2.219429 1.676852 0.626356 0
M  V30 10 C 2.860777 2.318709 -0.420956 0
M  V30 11 N 2.182073 3.181784 -1.234809 0
M  V30 12 C 0.852933 3.387952 -0.979176 0
M  V30 13 C 0.150503 2.765188 0.067767 0
M  V30 14 O -1.126304 3.201316 0.017121 0
M  V30 15 C -2.235342 2.920654 0.784794 0
M  V30 16 C -2.711577 1.511483 0.818094 0 CFG=1
M  V30 17 N -3.896218 1.457611 1.691847 0
M  V30 18 C -3.164695 1.013708 -0.530549 0
M  V30 19 C -3.640352 -0.379896 -0.520498 0
M  V30 20 C -4.973942 -0.716246 -0.287372 0
M  V30 21 C -5.417204 -2.031842 -0.278764 0
M  V30 22 C -4.504061 -3.057920 -0.510314 0
M  V30 23 C -3.166562 -2.780745 -0.747595 0
M  V30 24 C -2.170586 -3.817619 -0.995619 0
M  V30 25 C -1.090490 -3.522469 -1.827992 0
M  V30 26 C -0.102312 -4.470898 -2.106276 0
M  V30 27 C -0.177541 -5.736765 -1.554401 0
M  V30 28 C -1.250620 -6.043822 -0.721948 0
M  V30 29 C -2.210601 -5.087891 -0.465319 0
M  V30 30 C -2.792981 -1.442111 -0.741677 0
M  V30 31 C 0.884170 1.904467 0.857866 0
M  V30 32 C 3.933010 -0.067626 1.172379 0
M  V30 33 C 4.514462 -0.928151 2.082145 0
M  V30 34 H 7.046258 -1.244653 0.579134 0
M  V30 35 H 7.030486 -2.975161 0.956317 0
M  V30 36 H 5.712261 -2.271278 -0.089470 0
M  V30 37 H 4.623664 -2.145084 5.100326 0
M  V30 38 H 2.594866 -0.211147 4.808121 0
M  V30 39 H 1.643726 1.255039 3.161527 0
M  V30 40 H 3.911132 2.077283 -0.525103 0
M  V30 41 H 0.502750 4.106250 -1.739484 0
M  V30 42 H -1.971144 3.204440 1.848278 0
M  V30 43 H -3.093678 3.622158 0.559667 0
M  V30 44 H -1.955896 0.854902 1.228031 0
M  V30 45 H -4.067151 0.469727 1.984908 0
M  V30 46 H -4.746526 1.807356 1.230202 0
M  V30 47 H -3.932776 1.722618 -0.905853 0
M  V30 48 H -2.298067 1.095838 -1.229433 0
M  V30 49 H -5.700138 0.050729 -0.106377 0
M  V30 50 H -6.462134 -2.272317 -0.094625 0
M  V30 51 H -4.821141 -4.106244 -0.510301 0
M  V30 52 H -0.977258 -2.534424 -2.294819 0
M  V30 53 H 0.716984 -4.167237 -2.769354 0
M  V30 54 H 0.638882 -6.392780 -1.834834 0
M  V30 55 H -1.270372 -7.028893 -0.318184 0
M  V30 56 H -3.053156 -5.340274 0.192676 0
M  V30 57 H -1.737179 -1.199639 -0.927686 0
M  V30 58 H 0.279794 1.486172 1.619764 0
M  V30 59 H 4.300031 -0.022454 0.159382 0
M  V30 END ATOM
M  V30 BEGIN BOND
M  V30 1 1 1 2
M  V30 2 2 2 3
M  V30 3 1 3 4
M  V30 4 1 4 5
M  V30 5 2 5 6
M  V30 6 1 6 7
M  V30 7 2 7 8
M  V30 8 1 8 9
M  V30 9 2 9 10
M  V30 10 1 10 11
M  V30 11 2 11 12
M  V30 12 1 12 13
M  V30 13 1 13 14
M  V30 14 1 14 15
M  V30 15 1 15 16
M  V30 16 1 16 17
M  V30 17 1 16 18
M  V30 18 1 18 19
M  V30 19 2 19 20
M  V30 20 1 20 21
M  V30 21 2 21 22
M  V30 22 1 22 23
M  V30 23 1 23 24
M  V30 24 2 24 25
M  V30 25 1 25 26
M  V30 26 2 26 27
M  V30 27 1 27 28
M  V30 28 2 28 29
M  V30 29 2 23 30
M  V30 30 2 13 31
M  V30 31 1 8 32
M  V30 32 2 32 33
M  V30 33 1 33 2
M  V30 34 1 33 5
M  V30 35 1 31 9
M  V30 36 1 30 19
M  V30 37 1 29 24
M  V30 38 1 1 34
M  V30 39 1 1 35
M  V30 40 1 1 36
M  V30 41 1 4 37
M  V30 42 1 6 38
M  V30 43 1 7 39
M  V30 44 1 10 40
M  V30 45 1 12 41
M  V30 46 1 15 42
M  V30 47 1 15 43
M  V30 48 1 16 44 CFG=1
M  V30 49 1 17 45
M  V30 50 1 17 46
M  V30 51 1 18 47
M  V30 52 1 18 48
M  V30 53 1 20 49
M  V30 54 1 21 50
M  V30 55 1 22 51
M  V30 56 1 25 52
M  V30 57 1 26 53
M  V30 58 1 27 54
M  V30 59 1 28 55
M  V30 60 1 29 56
M  V30 61 1 30 57
M  V30 62 1 31 58
M  V30 63 1 32 59
M  V30 END BOND
M  V30 END CTAB
M  END
>  <Dataset>  (321) 
ChEMBL_Kinases

>  <Ligand_Instance>  (321) 
nan

>  <PDB_ID>  (321) 
nan

>  <Standardized_SMILES>  (321) 
Cc1n[nH]c2ccc(-c3cncc(OC[C@@H](N)Cc4cccc(-c5ccccc5)c4)c3)cc12

>  <Name>  (321) 
nan

>  <Pocket>  (321) 
nan

>  <ATP_Site>  (321) 
nan

>  <Peripheral>  (321) 
nan

>  <Num_H_Atoms_ProtBoundConf>  (321) 
nan

>  <Num_Resolved_Atoms>  (321) 
nan

>  <Num_Not_Resolved_Atoms>  (321) 
nan

$$$$
CHEMBL487844
     RDKit          3D

  0  0  0  0  0  0  0  0  0  0999 V3000
M  V30 BEGIN CTAB
M  V30 COUNTS 56 59 0 0 0
M  V30 BEGIN ATOM
M  V30 1 O -0.844727 -4.576128 0.126164 0
M  V30 2 C 0.060928 -3.698817 0.254172 0
M  V30 3 O 0.302846 -2.632552 1.125528 0
M  V30 4 C 1.610093 -2.102435 0.904415 0
M  V30 5 C 2.386750 -1.901698 2.172125 0
M  V30 6 O 3.672117 -1.375413 1.905180 0
M  V30 7 C 1.535944 -0.828481 0.081774 0
M  V30 8 O 0.763980 0.152014 0.728989 0
M  V30 9 C 0.499368 1.412149 0.231991 0
M  V30 10 O 1.155712 1.253078 -0.839452 0
M  V30 11 C -0.295834 2.490943 0.837598 0
M  V30 12 C 0.335480 2.915182 2.105986 0
M  V30 13 C 1.072583 2.197797 3.012926 0
M  V30 14 C 1.606450 2.727736 4.166543 0
M  V30 15 C 1.406636 4.062513 4.460317 0
M  V30 16 C 0.660234 4.826274 3.559040 0
M  V30 17 C 0.138188 4.269317 2.412743 0
M  V30 18 C -1.723839 2.081746 1.018222 0
M  V30 19 C -2.126782 0.821449 1.416385 0
M  V30 20 C -3.438311 0.445309 1.576724 0
M  V30 21 C -4.435394 1.369404 1.329320 0
M  V30 22 C -4.083125 2.625375 0.934232 0
M  V30 23 C -2.746183 2.994097 0.775671 0
M  V30 24 C 2.352673 -3.139438 0.065721 0
M  V30 25 C 1.191161 -3.711144 -0.698871 0
M  V30 26 C 1.148042 -4.127553 -1.934533 0
M  V30 27 C -0.007809 -4.662002 -2.642415 0
M  V30 28 C -1.263516 -4.083755 -2.619889 0
M  V30 29 C -2.367865 -4.595631 -3.272629 0
M  V30 30 C -2.237939 -5.760876 -4.004060 0
M  V30 31 Br -3.783470 -6.438115 -4.893702 0
M  V30 32 C -0.995591 -6.380113 -4.058216 0
M  V30 33 C 0.104218 -5.842133 -3.389389 0
M  V30 34 H 2.582982 -2.866400 2.697070 0
M  V30 35 H 1.900556 -1.194733 2.873431 0
M  V30 36 H 4.353016 -2.068121 1.794217 0
M  V30 37 H 2.557375 -0.477621 -0.167572 0
M  V30 38 H 1.072782 -1.067979 -0.903201 0
M  V30 39 H -0.310414 3.338619 0.099227 0
M  V30 40 H 1.209548 1.159750 2.754797 0
M  V30 41 H 2.174665 2.031492 4.799298 0
M  V30 42 H 1.856105 4.408804 5.383942 0
M  V30 43 H 0.547570 5.860222 3.858466 0
M  V30 44 H -0.431671 4.966701 1.777814 0
M  V30 45 H -1.383543 0.083517 1.616407 0
M  V30 46 H -3.680583 -0.574958 1.897515 0
M  V30 47 H -5.457281 1.077072 1.453282 0
M  V30 48 H -4.827016 3.403399 0.722304 0
M  V30 49 H -2.422268 3.980087 0.463688 0
M  V30 50 H 3.086773 -2.668689 -0.588265 0
M  V30 51 H 2.748452 -3.942374 0.718411 0
M  V30 52 H 2.038408 -4.099852 -2.559499 0
M  V30 53 H -1.437932 -3.168170 -2.081498 0
M  V30 54 H -3.339506 -4.100760 -3.222929 0
M  V30 55 H -0.926508 -7.293128 -4.639845 0
M  V30 56 H 1.058976 -6.380843 -3.472828 0
M  V30 END ATOM
M  V30 BEGIN BOND
M  V30 1 2 1 2
M  V30 2 1 2 3
M  V30 3 1 3 4
M  V30 4 1 4 5
M  V30 5 1 5 6
M  V30 6 1 4 7
M  V30 7 1 7 8
M  V30 8 1 8 9
M  V30 9 2 9 10
M  V30 10 1 9 11
M  V30 11 1 11 12
M  V30 12 2 12 13
M  V30 13 1 13 14
M  V30 14 2 14 15
M  V30 15 1 15 16
M  V30 16 2 16 17
M  V30 17 1 11 18
M  V30 18 2 18 19
M  V30 19 1 19 20
M  V30 20 2 20 21
M  V30 21 1 21 22
M  V30 22 2 22 23
M  V30 23 1 4 24
M  V30 24 1 24 25
M  V30 25 2 25 26
M  V30 26 1 26 27
M  V30 27 2 27 28
M  V30 28 1 28 29
M  V30 29 2 29 30
M  V30 30 1 30 31
M  V30 31 1 30 32
M  V30 32 2 32 33
M  V30 33 1 25 2
M  V30 34 1 33 27
M  V30 35 1 17 12
M  V30 36 1 23 18
M  V30 37 1 5 34
M  V30 38 1 5 35
M  V30 39 1 6 36
M  V30 40 1 7 37
M  V30 41 1 7 38
M  V30 42 1 11 39
M  V30 43 1 13 40
M  V30 44 1 14 41
M  V30 45 1 15 42
M  V30 46 1 16 43
M  V30 47 1 17 44
M  V30 48 1 19 45
M  V30 49 1 20 46
M  V30 50 1 21 47
M  V30 51 1 22 48
M  V30 52 1 23 49
M  V30 53 1 24 50
M  V30 54 1 24 51
M  V30 55 1 26 52
M  V30 56 1 28 53
M  V30 57 1 29 54
M  V30 58 1 32 55
M  V30 59 1 33 56
M  V30 END BOND
M  V30 END CTAB
M  END
>  <Dataset>  (322) 
ChEMBL_Kinases

>  <Ligand_Instance>  (322) 
nan

>  <PDB_ID>  (322) 
nan

>  <Standardized_SMILES>  (322) 
O=C1OC(CO)(COC(=O)C(c2ccccc2)c2ccccc2)C/C1=C/c1ccc(Br)cc1

>  <Name>  (322) 
nan

>  <Pocket>  (322) 
nan

>  <ATP_Site>  (322) 
nan

>  <Peripheral>  (322) 
nan

>  <Num_H_Atoms_ProtBoundConf>  (322) 
nan

>  <Num_Resolved_Atoms>  (322) 
nan

>  <Num_Not_Resolved_Atoms>  (322) 
nan

$$$$
CHEMBL389438
     RDKit          3D

  0  0  0  0  0  0  0  0  0  0999 V3000
M  V30 BEGIN CTAB
M  V30 COUNTS 52 55 0 0 0
M  V30 BEGIN ATOM
M  V30 1 C -1.142334 -3.246484 3.052081 0
M  V30 2 C 0.322431 -3.528530 3.060008 0
M  V30 3 N 0.948365 -4.592291 3.644013 0
M  V30 4 N 2.266207 -4.447816 3.457395 0
M  V30 5 C 2.487332 -3.300332 2.757418 0
M  V30 6 C 3.683985 -2.749582 2.355154 0
M  V30 7 C 3.580495 -1.556231 1.670980 0
M  V30 8 C 2.431502 -0.873302 1.353218 0
M  V30 9 C 2.379585 0.452379 0.763357 0
M  V30 10 C 3.534309 0.885032 0.144993 0
M  V30 11 N 3.489330 2.136658 -0.381772 0
M  V30 12 C 2.400078 2.916539 -0.317320 0
M  V30 13 C 1.228753 2.512881 0.287817 0
M  V30 14 O 0.098764 3.262139 0.400589 0
M  V30 15 C -1.181847 2.893003 0.842704 0
M  V30 16 C -2.014911 2.402780 -0.275503 0 CFG=1
M  V30 17 N -2.108567 3.654398 -1.171292 0
M  V30 18 C -1.758088 1.359516 -1.209606 0
M  V30 19 C -1.596175 -0.047734 -1.018739 0
M  V30 20 C -2.859009 -0.681135 -0.954010 0
M  V30 21 C -3.068471 -2.064649 -0.848638 0
M  V30 22 C -2.001546 -2.906768 -0.800930 0
M  V30 23 C -2.242051 -4.369911 -0.711916 0
M  V30 24 F -1.136221 -5.064413 -0.269354 0
M  V30 25 F -3.349680 -4.617799 0.103944 0
M  V30 26 F -2.553793 -4.900431 -1.959442 0
M  V30 27 C -0.755966 -2.337522 -0.859360 0
M  V30 28 C -0.600453 -0.978337 -0.962791 0
M  V30 29 C 1.256389 1.252242 0.826931 0
M  V30 30 C 1.282748 -1.498791 1.793575 0
M  V30 31 C 1.262405 -2.695674 2.490310 0
M  V30 32 H -1.529064 -3.291743 2.021276 0
M  V30 33 H -1.694081 -3.864651 3.789995 0
M  V30 34 H -1.313804 -2.178048 3.393642 0
M  V30 35 H 2.939974 -5.175436 3.837372 0
M  V30 36 H 4.636966 -3.203107 2.547047 0
M  V30 37 H 4.524812 -1.130287 1.353794 0
M  V30 38 H 4.463689 0.391737 0.010327 0
M  V30 39 H 2.410466 3.914269 -0.752441 0
M  V30 40 H -1.679103 3.848103 1.210976 0
M  V30 41 H -1.151571 2.171623 1.701149 0
M  V30 42 H -3.131428 2.384011 0.095445 0
M  V30 43 H -2.317987 4.429624 -0.505009 0
M  V30 44 H -1.125476 3.767513 -1.497577 0
M  V30 45 H -2.502644 1.488345 -2.092063 0
M  V30 46 H -0.732894 1.680066 -1.730587 0
M  V30 47 H -3.823668 -0.154745 -0.981363 0
M  V30 48 H -4.053139 -2.507598 -0.807239 0
M  V30 49 H 0.120824 -2.959103 -0.819744 0
M  V30 50 H 0.370971 -0.536656 -1.034874 0
M  V30 51 H 0.375694 0.880961 1.315747 0
M  V30 52 H 0.292235 -1.121256 1.664002 0
M  V30 END ATOM
M  V30 BEGIN BOND
M  V30 1 1 1 2
M  V30 2 2 2 3
M  V30 3 1 3 4
M  V30 4 1 4 5
M  V30 5 2 5 6
M  V30 6 1 6 7
M  V30 7 2 7 8
M  V30 8 1 8 9
M  V30 9 2 9 10
M  V30 10 1 10 11
M  V30 11 2 11 12
M  V30 12 1 12 13
M  V30 13 1 13 14
M  V30 14 1 14 15
M  V30 15 1 15 16
M  V30 16 1 16 17
M  V30 17 1 16 18
M  V30 18 1 18 19
M  V30 19 2 19 20
M  V30 20 1 20 21
M  V30 21 2 21 22
M  V30 22 1 22 23
M  V30 23 1 23 24
M  V30 24 1 23 25
M  V30 25 1 23 26
M  V30 26 1 22 27
M  V30 27 2 27 28
M  V30 28 2 13 29
M  V30 29 1 8 30
M  V30 30 2 30 31
M  V30 31 1 31 2
M  V30 32 1 31 5
M  V30 33 1 29 9
M  V30 34 1 28 19
M  V30 35 1 1 32
M  V30 36 1 1 33
M  V30 37 1 1 34
M  V30 38 1 4 35
M  V30 39 1 6 36
M  V30 40 1 7 37
M  V30 41 1 10 38
M  V30 42 1 12 39
M  V30 43 1 15 40
M  V30 44 1 15 41
M  V30 45 1 16 42 CFG=1
M  V30 46 1 17 43
M  V30 47 1 17 44
M  V30 48 1 18 45
M  V30 49 1 18 46
M  V30 50 1 20 47
M  V30 51 1 21 48
M  V30 52 1 27 49
M  V30 53 1 28 50
M  V30 54 1 29 51
M  V30 55 1 30 52
M  V30 END BOND
M  V30 END CTAB
M  END
>  <Dataset>  (323) 
ChEMBL_Kinases

>  <Ligand_Instance>  (323) 
nan

>  <PDB_ID>  (323) 
nan

>  <Standardized_SMILES>  (323) 
Cc1n[nH]c2ccc(-c3cncc(OC[C@@H](N)Cc4ccc(C(F)(F)F)cc4)c3)cc12

>  <Name>  (323) 
nan

>  <Pocket>  (323) 
nan

>  <ATP_Site>  (323) 
nan

>  <Peripheral>  (323) 
nan

>  <Num_H_Atoms_ProtBoundConf>  (323) 
nan

>  <Num_Resolved_Atoms>  (323) 
nan

>  <Num_Not_Resolved_Atoms>  (323) 
nan

$$$$
CHEMBL3894239
     RDKit          3D

  0  0  0  0  0  0  0  0  0  0999 V3000
M  V30 BEGIN CTAB
M  V30 COUNTS 35 36 0 0 0
M  V30 BEGIN ATOM
M  V30 1 N 0.027342 -4.531835 3.565857 0
M  V30 2 S 1.692011 -4.435158 3.135138 0
M  V30 3 O 2.074800 -5.707583 2.440704 0
M  V30 4 O 2.503063 -4.291862 4.376684 0
M  V30 5 C 1.985808 -3.055831 2.080214 0
M  V30 6 C 2.301235 -1.872218 2.705708 0
M  V30 7 C 2.520320 -0.823015 1.819377 0
M  V30 8 Br 2.971762 0.898319 2.551439 0
M  V30 9 C 2.432909 -0.940628 0.425522 0
M  V30 10 N 2.660625 0.157018 -0.413489 0
M  V30 11 C 2.125387 1.251831 -1.083238 0
M  V30 12 S 3.183554 2.164290 -1.971827 0
M  V30 13 N 0.784313 1.690996 -1.104811 0
M  V30 14 C -0.338544 1.120632 -0.448022 0
M  V30 15 O -0.147436 0.095269 0.247736 0
M  V30 16 C -1.703810 1.622143 -0.509184 0
M  V30 17 C -2.673948 0.943404 0.191511 0
M  V30 18 C -4.004535 1.365483 0.179872 0
M  V30 19 C -4.407421 2.476847 -0.530736 0
M  V30 20 C -3.437435 3.159946 -1.234529 0
M  V30 21 C -2.127656 2.727894 -1.211159 0
M  V30 22 C 2.106070 -2.193992 -0.071738 0
M  V30 23 Br 1.984719 -2.367684 -1.958806 0
M  V30 24 C 1.867308 -3.310672 0.738561 0
M  V30 25 H -0.530461 -4.763774 2.712356 0
M  V30 26 H -0.308567 -3.610107 3.943746 0
M  V30 27 H 2.373434 -1.759225 3.767322 0
M  V30 28 H 3.688389 -0.066827 -0.478023 0
M  V30 29 H 0.482467 2.537190 -1.647319 0
M  V30 30 H -2.474398 0.058919 0.783607 0
M  V30 31 H -4.756104 0.804842 0.747716 0
M  V30 32 H -5.447390 2.750387 -0.499329 0
M  V30 33 H -3.730486 4.035132 -1.799438 0
M  V30 34 H -1.396632 3.281196 -1.769231 0
M  V30 35 H 1.613471 -4.282780 0.347096 0
M  V30 END ATOM
M  V30 BEGIN BOND
M  V30 1 1 1 2
M  V30 2 2 2 3
M  V30 3 2 2 4
M  V30 4 1 2 5
M  V30 5 2 5 6
M  V30 6 1 6 7
M  V30 7 1 7 8
M  V30 8 2 7 9
M  V30 9 1 9 10
M  V30 10 1 10 11
M  V30 11 2 11 12
M  V30 12 1 11 13
M  V30 13 1 13 14
M  V30 14 2 14 15
M  V30 15 1 14 16
M  V30 16 2 16 17
M  V30 17 1 17 18
M  V30 18 2 18 19
M  V30 19 1 19 20
M  V30 20 2 20 21
M  V30 21 1 9 22
M  V30 22 1 22 23
M  V30 23 2 22 24
M  V30 24 1 24 5
M  V30 25 1 21 16
M  V30 26 1 1 25
M  V30 27 1 1 26
M  V30 28 1 6 27
M  V30 29 1 10 28
M  V30 30 1 13 29
M  V30 31 1 17 30
M  V30 32 1 18 31
M  V30 33 1 19 32
M  V30 34 1 20 33
M  V30 35 1 21 34
M  V30 36 1 24 35
M  V30 END BOND
M  V30 END CTAB
M  END
>  <Dataset>  (324) 
ChEMBL_Kinases

>  <Ligand_Instance>  (324) 
nan

>  <PDB_ID>  (324) 
nan

>  <Standardized_SMILES>  (324) 
NS(=O)(=O)c1cc(Br)c(NC(=S)NC(=O)c2ccccc2)c(Br)c1

>  <Name>  (324) 
nan

>  <Pocket>  (324) 
nan

>  <ATP_Site>  (324) 
nan

>  <Peripheral>  (324) 
nan

>  <Num_H_Atoms_ProtBoundConf>  (324) 
nan

>  <Num_Resolved_Atoms>  (324) 
nan

>  <Num_Not_Resolved_Atoms>  (324) 
nan

$$$$
CHEMBL3909003
     RDKit          3D

  0  0  0  0  0  0  0  0  0  0999 V3000
M  V30 BEGIN CTAB
M  V30 COUNTS 51 54 0 0 0
M  V30 BEGIN ATOM
M  V30 1 C 2.370398 3.080127 -2.581615 0
M  V30 2 C 2.961017 2.944188 -1.234343 0
M  V30 3 N 3.684281 1.695448 -0.992834 0
M  V30 4 N 4.980945 1.393568 -1.201959 0
M  V30 5 C 5.246322 0.125542 -0.846967 0
M  V30 6 C 4.096456 -0.444991 -0.385002 0
M  V30 7 C 3.759943 -1.679619 0.105275 0
M  V30 8 C 2.492523 -1.849657 0.466619 0
M  V30 9 N 1.663721 -0.823187 0.324127 0
M  V30 10 C 1.868757 0.398838 -0.131511 0
M  V30 11 C 3.170644 0.564748 -0.497670 0
M  V30 12 C 0.621129 1.101335 -0.103253 0
M  V30 13 C 0.279851 1.598629 1.273623 0
M  V30 14 C 0.303199 0.637258 2.396212 0
M  V30 15 O -0.413712 -0.424975 2.430210 0
M  V30 16 C -1.652200 -0.828346 2.437571 0 CFG=2
M  V30 17 O -1.915647 -1.495676 3.663276 0
M  V30 18 C -1.926615 -1.874072 1.323618 0 CFG=2
M  V30 19 C -3.269078 -2.418334 1.377696 0
M  V30 20 C -4.312080 -1.827833 2.049543 0
M  V30 21 C -5.523064 -2.481108 1.993616 0
M  V30 22 C -5.719845 -3.652478 1.319535 0
M  V30 23 C -4.675613 -4.257831 0.638182 0
M  V30 24 C -3.447196 -3.603019 0.689941 0
M  V30 25 N -0.938080 -2.961284 1.623370 0
M  V30 26 C 0.473702 -3.346326 1.489697 0
M  V30 27 O 0.077536 -2.254832 1.087423 0
M  V30 28 N 1.750757 -2.926205 1.036003 0
M  V30 29 H 1.327739 3.497680 -2.584437 0
M  V30 30 H 2.369020 2.048264 -3.041956 0
M  V30 31 H 2.931237 3.690424 -3.318153 0
M  V30 32 H 2.405662 3.321735 -0.370300 0
M  V30 33 H 3.804302 3.705199 -1.244613 0
M  V30 34 H 6.155419 -0.465608 -0.868428 0
M  V30 35 H 4.324711 -2.541806 0.254537 0
M  V30 36 H 0.529972 2.034051 -0.701701 0
M  V30 37 H -0.275508 0.438105 -0.343738 0
M  V30 38 H -0.721177 2.109315 1.287541 0
M  V30 39 H 1.009292 2.448120 1.499947 0
M  V30 40 H 1.440774 0.420519 2.606577 0
M  V30 41 H 0.130918 1.295861 3.354157 0
M  V30 42 H -2.345369 0.042319 2.346298 0
M  V30 43 H -1.549787 -2.395651 3.591333 0
M  V30 44 H -1.628174 -1.380857 0.398300 0
M  V30 45 H -4.105871 -0.906024 2.567515 0
M  V30 46 H -6.340000 -1.984896 2.540823 0
M  V30 47 H -6.731856 -4.050927 1.364874 0
M  V30 48 H -4.860910 -5.180786 0.115875 0
M  V30 49 H -2.661030 -4.114123 0.142436 0
M  V30 50 H -1.350980 -3.818738 2.129988 0
M  V30 51 H 2.381271 -3.728793 1.247401 0
M  V30 END ATOM
M  V30 BEGIN BOND
M  V30 1 1 1 2
M  V30 2 1 2 3
M  V30 3 1 3 4
M  V30 4 2 4 5
M  V30 5 1 5 6
M  V30 6 2 6 7
M  V30 7 1 7 8
M  V30 8 2 8 9
M  V30 9 1 9 10
M  V30 10 2 10 11
M  V30 11 1 10 12
M  V30 12 1 12 13
M  V30 13 1 13 14
M  V30 14 1 14 15
M  V30 15 1 15 16
M  V30 16 1 16 17
M  V30 17 1 16 18
M  V30 18 1 18 19
M  V30 19 2 19 20
M  V30 20 1 20 21
M  V30 21 2 21 22
M  V30 22 1 22 23
M  V30 23 2 23 24
M  V30 24 1 18 25
M  V30 25 1 25 26
M  V30 26 2 26 27
M  V30 27 1 26 28
M  V30 28 1 11 3
M  V30 29 1 24 19
M  V30 30 1 11 6
M  V30 31 1 28 8
M  V30 32 1 1 29
M  V30 33 1 1 30
M  V30 34 1 1 31
M  V30 35 1 2 32
M  V30 36 1 2 33
M  V30 37 1 5 34
M  V30 38 1 7 35
M  V30 39 1 12 36
M  V30 40 1 12 37
M  V30 41 1 13 38
M  V30 42 1 13 39
M  V30 43 1 14 40
M  V30 44 1 14 41
M  V30 45 1 16 42 CFG=3
M  V30 46 1 17 43
M  V30 47 1 18 44 CFG=3
M  V30 48 1 20 45
M  V30 49 1 21 46
M  V30 50 1 22 47
M  V30 51 1 23 48
M  V30 52 1 24 49
M  V30 53 1 25 50
M  V30 54 1 28 51
M  V30 END BOND
M  V30 END CTAB
M  END
>  <Dataset>  (325) 
ChEMBL_Kinases

>  <Ligand_Instance>  (325) 
nan

>  <PDB_ID>  (325) 
nan

>  <Standardized_SMILES>  (325) 
CCn1ncc2cc3nc(c21)CCCO[C@H](O)[C@H](c1ccccc1)NC(=O)N3

>  <Name>  (325) 
nan

>  <Pocket>  (325) 
nan

>  <ATP_Site>  (325) 
nan

>  <Peripheral>  (325) 
nan

>  <Num_H_Atoms_ProtBoundConf>  (325) 
nan

>  <Num_Resolved_Atoms>  (325) 
nan

>  <Num_Not_Resolved_Atoms>  (325) 
nan

$$$$
CHEMBL3894185
     RDKit          3D

  0  0  0  0  0  0  0  0  0  0999 V3000
M  V30 BEGIN CTAB
M  V30 COUNTS 56 59 0 0 0
M  V30 BEGIN ATOM
M  V30 1 C -1.780203 -0.231021 5.823272 0
M  V30 2 C -1.138677 0.011142 4.506165 0
M  V30 3 O -1.010292 1.206868 4.167337 0
M  V30 4 N -0.680740 -1.020846 3.644958 0
M  V30 5 C -0.048404 -0.849599 2.354412 0 CFG=2
M  V30 6 C 1.211084 -0.070645 2.539669 0
M  V30 7 C 1.955040 0.164587 1.249442 0
M  V30 8 C 2.915106 -0.697285 0.765918 0
M  V30 9 C 3.586237 -0.463518 -0.415150 0
M  V30 10 C 3.303888 0.665963 -1.155942 0
M  V30 11 C 2.330456 1.535223 -0.660865 0
M  V30 12 N 2.006158 2.725899 -1.404275 0
M  V30 13 C 0.971873 3.643126 -0.870585 0
M  V30 14 N 1.152780 4.675294 -0.051923 0
M  V30 15 C 0.050945 5.326235 0.267213 0
M  V30 16 C -1.204663 5.015209 -0.174225 0
M  V30 17 S -0.906261 3.556486 -1.241365 0
M  V30 18 N 1.701423 1.270955 0.491571 0
M  V30 19 C -1.012767 -0.156131 1.414642 0
M  V30 20 C -1.013445 -0.756721 0.048539 0
M  V30 21 C -1.365192 -2.228167 0.011058 0 CFG=1
M  V30 22 O -0.583922 -2.909492 -0.929564 0
M  V30 23 C -1.150817 -3.628895 -1.952570 0
M  V30 24 C -2.429732 -3.911008 -2.376343 0
M  V30 25 C -2.673950 -4.693728 -3.481466 0
M  V30 26 C -1.653466 -5.242153 -4.230304 0
M  V30 27 C -0.352064 -4.975728 -3.828099 0
M  V30 28 Cl 0.869894 -5.714181 -4.839637 0
M  V30 29 C -0.115938 -4.182594 -2.708516 0
M  V30 30 F 1.236754 -4.062876 -2.511352 0
M  V30 31 C -1.082449 -2.817479 1.393394 0
M  V30 32 C 0.273647 -2.243262 1.823380 0
M  V30 33 H -2.884341 -0.314853 5.766448 0
M  V30 34 H -1.466634 0.543210 6.574541 0
M  V30 35 H -1.375111 -1.189174 6.213037 0
M  V30 36 H -0.858217 -1.982290 4.065124 0
M  V30 37 H 0.984591 0.896249 3.031487 0
M  V30 38 H 1.923448 -0.580582 3.231938 0
M  V30 39 H 3.157507 -1.588999 1.326665 0
M  V30 40 H 4.346925 -1.168214 -0.776409 0
M  V30 41 H 3.805807 0.875505 -2.074254 0
M  V30 42 H 2.498383 2.919265 -2.293562 0
M  V30 43 H 0.359810 6.144983 0.943394 0
M  V30 44 H -2.042303 5.647225 0.173269 0
M  V30 45 H -0.662422 0.890630 1.308310 0
M  V30 46 H -2.044117 -0.119620 1.780647 0
M  V30 47 H -0.111811 -0.587427 -0.550752 0
M  V30 48 H -1.837689 -0.233446 -0.519391 0
M  V30 49 H -2.431993 -2.389069 -0.237623 0
M  V30 50 H -3.166158 -3.446924 -1.739964 0
M  V30 51 H -3.738681 -4.812304 -3.670857 0
M  V30 52 H -1.962791 -5.839342 -5.076140 0
M  V30 53 H -1.020000 -3.922950 1.362247 0
M  V30 54 H -1.825693 -2.475966 2.116435 0
M  V30 55 H 0.870137 -2.144549 0.906994 0
M  V30 56 H 0.742551 -2.868880 2.592474 0
M  V30 END ATOM
M  V30 BEGIN BOND
M  V30 1 1 1 2
M  V30 2 2 2 3
M  V30 3 1 2 4
M  V30 4 1 5 4 CFG=1
M  V30 5 1 5 6
M  V30 6 1 6 7
M  V30 7 2 7 8
M  V30 8 1 8 9
M  V30 9 2 9 10
M  V30 10 1 10 11
M  V30 11 1 11 12
M  V30 12 1 12 13
M  V30 13 2 13 14
M  V30 14 1 14 15
M  V30 15 2 15 16
M  V30 16 1 16 17
M  V30 17 2 11 18
M  V30 18 1 5 19
M  V30 19 1 19 20
M  V30 20 1 20 21
M  V30 21 1 21 22
M  V30 22 1 22 23
M  V30 23 2 23 24
M  V30 24 1 24 25
M  V30 25 2 25 26
M  V30 26 1 26 27
M  V30 27 1 27 28
M  V30 28 2 27 29
M  V30 29 1 29 30
M  V30 30 1 21 31
M  V30 31 1 31 32
M  V30 32 1 32 5
M  V30 33 1 18 7
M  V30 34 1 29 23
M  V30 35 1 17 13
M  V30 36 1 1 33
M  V30 37 1 1 34
M  V30 38 1 1 35
M  V30 39 1 4 36
M  V30 40 1 6 37
M  V30 41 1 6 38
M  V30 42 1 8 39
M  V30 43 1 9 40
M  V30 44 1 10 41
M  V30 45 1 12 42
M  V30 46 1 15 43
M  V30 47 1 16 44
M  V30 48 1 19 45
M  V30 49 1 19 46
M  V30 50 1 20 47
M  V30 51 1 20 48
M  V30 52 1 21 49 CFG=3
M  V30 53 1 24 50
M  V30 54 1 25 51
M  V30 55 1 26 52
M  V30 56 1 31 53
M  V30 57 1 31 54
M  V30 58 1 32 55
M  V30 59 1 32 56
M  V30 END BOND
M  V30 END CTAB
M  END
>  <Dataset>  (326) 
ChEMBL_Kinases

>  <Ligand_Instance>  (326) 
nan

>  <PDB_ID>  (326) 
nan

>  <Standardized_SMILES>  (326) 
CC(=O)N[C@]1(Cc2cccc(Nc3nccs3)n2)CC[C@@H](Oc2cccc(Cl)c2F)CC1

>  <Name>  (326) 
nan

>  <Pocket>  (326) 
nan

>  <ATP_Site>  (326) 
nan

>  <Peripheral>  (326) 
nan

>  <Num_H_Atoms_ProtBoundConf>  (326) 
nan

>  <Num_Resolved_Atoms>  (326) 
nan

>  <Num_Not_Resolved_Atoms>  (326) 
nan

$$$$
CHEMBL602219
     RDKit          3D

  0  0  0  0  0  0  0  0  0  0999 V3000
M  V30 BEGIN CTAB
M  V30 COUNTS 35 37 0 0 0
M  V30 BEGIN ATOM
M  V30 1 C 2.320896 -5.433086 5.196190 0
M  V30 2 C 2.651157 -4.179721 4.459803 0
M  V30 3 C 1.868021 -3.563078 3.486331 0
M  V30 4 C 2.593403 -2.449435 3.111169 0
M  V30 5 C 2.242319 -1.437956 2.116989 0
M  V30 6 O 2.834620 -0.418679 1.719398 0
M  V30 7 N 0.987680 -1.579381 1.423459 0
M  V30 8 C 0.792845 -0.507322 0.481552 0
M  V30 9 C 1.305779 -0.811007 -0.785721 0
M  V30 10 N 1.046343 0.289673 -1.555749 0
M  V30 11 N 0.421292 1.201425 -0.818281 0
M  V30 12 C -0.050961 2.519722 -1.196498 0
M  V30 13 C -1.455113 2.384066 -1.692754 0
M  V30 14 C -2.517882 2.777798 -0.880664 0
M  V30 15 C -3.838104 2.657264 -1.332066 0
M  V30 16 C -4.098690 2.143842 -2.593416 0
M  V30 17 Cl -5.771962 2.019727 -3.096075 0
M  V30 18 C -3.022863 1.761510 -3.376773 0
M  V30 19 C -1.720170 1.876465 -2.941024 0
M  V30 20 Cl -0.421727 1.369008 -3.994608 0
M  V30 21 C 0.243431 0.757996 0.438271 0
M  V30 22 N 3.744391 -2.438678 3.846771 0
M  V30 23 O 3.753860 -3.471339 4.635496 0
M  V30 24 H 1.263764 -5.713326 4.950228 0
M  V30 25 H 2.514902 -5.293786 6.268305 0
M  V30 26 H 2.928108 -6.266308 4.752569 0
M  V30 27 H 0.906976 -3.876460 3.102715 0
M  V30 28 H 0.306397 -2.368285 1.589502 0
M  V30 29 H 1.809987 -1.612917 -1.282602 0
M  V30 30 H 0.040516 3.258819 -0.403135 0
M  V30 31 H 0.538901 2.889948 -2.080076 0
M  V30 32 H -2.269791 3.175791 0.101690 0
M  V30 33 H -4.595015 2.996426 -0.612306 0
M  V30 34 H -3.276366 1.364552 -4.358714 0
M  V30 35 H -0.182787 1.105280 1.349316 0
M  V30 END ATOM
M  V30 BEGIN BOND
M  V30 1 1 1 2
M  V30 2 2 2 3
M  V30 3 1 3 4
M  V30 4 1 4 5
M  V30 5 2 5 6
M  V30 6 1 5 7
M  V30 7 1 7 8
M  V30 8 1 8 9
M  V30 9 2 9 10
M  V30 10 1 10 11
M  V30 11 1 11 12
M  V30 12 1 12 13
M  V30 13 2 13 14
M  V30 14 1 14 15
M  V30 15 2 15 16
M  V30 16 1 16 17
M  V30 17 1 16 18
M  V30 18 2 18 19
M  V30 19 1 19 20
M  V30 20 1 11 21
M  V30 21 2 4 22
M  V30 22 1 22 23
M  V30 23 1 23 2
M  V30 24 2 21 8
M  V30 25 1 19 13
M  V30 26 1 1 24
M  V30 27 1 1 25
M  V30 28 1 1 26
M  V30 29 1 3 27
M  V30 30 1 7 28
M  V30 31 1 9 29
M  V30 32 1 12 30
M  V30 33 1 12 31
M  V30 34 1 14 32
M  V30 35 1 15 33
M  V30 36 1 18 34
M  V30 37 1 21 35
M  V30 END BOND
M  V30 END CTAB
M  END
>  <Dataset>  (327) 
ChEMBL_Kinases

>  <Ligand_Instance>  (327) 
nan

>  <PDB_ID>  (327) 
nan

>  <Standardized_SMILES>  (327) 
Cc1cc(C(=O)Nc2cnn(Cc3ccc(Cl)cc3Cl)c2)no1

>  <Name>  (327) 
nan

>  <Pocket>  (327) 
nan

>  <ATP_Site>  (327) 
nan

>  <Peripheral>  (327) 
nan

>  <Num_H_Atoms_ProtBoundConf>  (327) 
nan

>  <Num_Resolved_Atoms>  (327) 
nan

>  <Num_Not_Resolved_Atoms>  (327) 
nan

$$$$
CHEMBL3909023
     RDKit          3D

  0  0  0  0  0  0  0  0  0  0999 V3000
M  V30 BEGIN CTAB
M  V30 COUNTS 44 48 0 0 0
M  V30 BEGIN ATOM
M  V30 1 C -0.407057 -1.785181 0.297518 0
M  V30 2 C 0.685425 -1.712464 1.003422 0
M  V30 3 C 1.570486 -0.702601 1.519391 0
M  V30 4 N 2.665251 -1.060057 2.252972 0
M  V30 5 N 3.322184 0.009897 2.616132 0
M  V30 6 C 2.749589 1.141587 2.175805 0
M  V30 7 C 3.022994 2.487515 2.272514 0
M  V30 8 C 2.149919 3.345341 1.652607 0
M  V30 9 C 2.385766 4.788672 1.718174 0
M  V30 10 C 1.324576 5.685522 1.709321 0
M  V30 11 C 1.592368 7.047577 1.773128 0
M  V30 12 N 2.864601 7.532175 1.844263 0
M  V30 13 C 3.885396 6.634592 1.851525 0
M  V30 14 C 3.686858 5.251570 1.789703 0
M  V30 15 C 1.042472 2.921508 0.957647 0
M  V30 16 C 0.816778 1.563964 0.892661 0
M  V30 17 C 1.657573 0.664495 1.494002 0
M  V30 18 C -1.187653 -2.934181 -0.142256 0
M  V30 19 C -2.319733 -2.689496 -0.889160 0
M  V30 20 C -3.065813 -3.768504 -1.311807 0
M  V30 21 C -2.741050 -5.076656 -1.027952 0
M  V30 22 C -3.553661 -6.089012 -1.498111 0
M  V30 23 C -3.164945 -7.393532 -1.173841 0
M  V30 24 C -2.036625 -7.682424 -0.426959 0
M  V30 25 C -1.244022 -6.637225 0.028357 0
M  V30 26 C -1.592644 -5.336180 -0.269731 0
M  V30 27 C -0.858963 -4.240553 0.143919 0
M  V30 28 H -0.739863 -0.804129 0.023944 0
M  V30 29 H 0.919686 -2.770675 1.218137 0
M  V30 30 H 4.192717 -0.067558 3.187004 0
M  V30 31 H 3.886463 2.787753 2.816406 0
M  V30 32 H 0.311537 5.318973 1.653652 0
M  V30 33 H 0.789563 7.774920 1.767949 0
M  V30 34 H 4.942540 6.935351 1.906952 0
M  V30 35 H 4.519846 4.574619 1.797796 0
M  V30 36 H 0.369747 3.615751 0.478099 0
M  V30 37 H -0.048422 1.245969 0.348741 0
M  V30 38 H -2.634081 -1.671185 -1.150214 0
M  V30 39 H -3.958220 -3.545577 -1.902185 0
M  V30 40 H -4.418987 -5.849397 -2.072175 0
M  V30 41 H -3.846817 -8.149787 -1.572662 0
M  V30 42 H -1.799149 -8.715811 -0.216244 0
M  V30 43 H -0.348377 -6.830326 0.619105 0
M  V30 44 H 0.009631 -4.486057 0.720037 0
M  V30 END ATOM
M  V30 BEGIN BOND
M  V30 1 2 1 2
M  V30 2 1 2 3
M  V30 3 2 3 4
M  V30 4 1 4 5
M  V30 5 1 5 6
M  V30 6 2 6 7
M  V30 7 1 7 8
M  V30 8 1 8 9
M  V30 9 2 9 10
M  V30 10 1 10 11
M  V30 11 2 11 12
M  V30 12 1 12 13
M  V30 13 2 13 14
M  V30 14 2 8 15
M  V30 15 1 15 16
M  V30 16 2 16 17
M  V30 17 1 1 18
M  V30 18 2 18 19
M  V30 19 1 19 20
M  V30 20 2 20 21
M  V30 21 1 21 22
M  V30 22 2 22 23
M  V30 23 1 23 24
M  V30 24 2 24 25
M  V30 25 1 25 26
M  V30 26 2 26 27
M  V30 27 1 17 3
M  V30 28 1 27 18
M  V30 29 1 17 6
M  V30 30 1 26 21
M  V30 31 1 14 9
M  V30 32 1 1 28
M  V30 33 1 2 29
M  V30 34 1 5 30
M  V30 35 1 7 31
M  V30 36 1 10 32
M  V30 37 1 11 33
M  V30 38 1 13 34
M  V30 39 1 14 35
M  V30 40 1 15 36
M  V30 41 1 16 37
M  V30 42 1 19 38
M  V30 43 1 20 39
M  V30 44 1 22 40
M  V30 45 1 23 41
M  V30 46 1 24 42
M  V30 47 1 25 43
M  V30 48 1 27 44
M  V30 END BOND
M  V30 END CTAB
M  END
>  <Dataset>  (328) 
ChEMBL_Kinases

>  <Ligand_Instance>  (328) 
nan

>  <PDB_ID>  (328) 
nan

>  <Standardized_SMILES>  (328) 
C(=C/c1n[nH]c2cc(-c3ccncc3)ccc12)\c1ccc2ccccc2c1

>  <Name>  (328) 
nan

>  <Pocket>  (328) 
nan

>  <ATP_Site>  (328) 
nan

>  <Peripheral>  (328) 
nan

>  <Num_H_Atoms_ProtBoundConf>  (328) 
nan

>  <Num_Resolved_Atoms>  (328) 
nan

>  <Num_Not_Resolved_Atoms>  (328) 
nan

$$$$
CHEMBL604085
     RDKit          3D

  0  0  0  0  0  0  0  0  0  0999 V3000
M  V30 BEGIN CTAB
M  V30 COUNTS 62 64 0 0 0
M  V30 BEGIN ATOM
M  V30 1 C -3.698263 -2.131768 4.215794 0
M  V30 2 O -2.618976 -2.877720 3.685767 0
M  V30 3 C -1.353776 -2.251528 3.588461 0
M  V30 4 C -1.351572 -0.877854 4.027915 0
M  V30 5 C -0.107258 -0.423398 3.893353 0
M  V30 6 C 1.105849 -0.864711 3.481621 0
M  V30 7 C 2.292403 -0.039662 3.409926 0
M  V30 8 O 3.492558 -0.117263 3.718175 0
M  V30 9 N 2.257225 1.288245 2.835023 0
M  V30 10 C 2.273267 2.608321 2.275609 0
M  V30 11 C 2.866155 2.616600 0.903977 0
M  V30 12 C 4.109363 2.974102 0.476206 0
M  V30 13 C 4.654896 2.945425 -0.757403 0
M  V30 14 C 3.779779 2.463959 -1.738027 0
M  V30 15 C 2.531048 2.097359 -1.348846 0
M  V30 16 C 1.665474 1.597473 -2.456924 0
M  V30 17 O 1.839170 1.573856 -3.687325 0
M  V30 18 N 0.376527 1.017583 -2.143234 0
M  V30 19 C -0.354796 0.589603 -3.279281 0
M  V30 20 C -1.666688 -0.056291 -3.058211 0
M  V30 21 C -1.724653 -1.341547 -2.343384 0
M  V30 22 C -1.191944 -1.375537 -0.946192 0
M  V30 23 C -1.620010 -2.669360 -0.247620 0
M  V30 24 N -2.005589 -3.670418 -1.203720 0
M  V30 25 C -3.130650 -3.318971 -1.997929 0
M  V30 26 C -3.175075 -1.829275 -2.252404 0
M  V30 27 C 1.977451 2.123629 -0.111098 0
M  V30 28 C 0.964002 -2.191107 3.087441 0
M  V30 29 C -0.211620 -2.961054 3.101307 0
M  V30 30 O -0.476566 -4.080777 2.791672 0
M  V30 31 C -0.755840 -5.387977 2.421802 0
M  V30 32 H -3.379597 -1.760119 5.232810 0
M  V30 33 H -3.914050 -1.196651 3.647702 0
M  V30 34 H -4.585757 -2.736332 4.402360 0
M  V30 35 H -2.220862 -0.362662 4.374554 0
M  V30 36 H -0.067640 0.650071 4.208901 0
M  V30 37 H 1.219975 1.246782 2.516107 0
M  V30 38 H 1.321359 3.112781 2.282404 0
M  V30 39 H 2.978223 3.286262 2.867861 0
M  V30 40 H 4.730271 3.339964 1.310715 0
M  V30 41 H 5.648778 3.275301 -0.916706 0
M  V30 42 H 4.142800 2.414318 -2.750739 0
M  V30 43 H 0.000289 0.924078 -1.189001 0
M  V30 44 H -0.559716 1.533870 -3.883213 0
M  V30 45 H 0.262908 -0.012615 -4.000135 0
M  V30 46 H -2.366039 0.661640 -2.523704 0
M  V30 47 H -2.197861 -0.171993 -4.059688 0
M  V30 48 H -1.208247 -2.109470 -2.999523 0
M  V30 49 H -0.078794 -1.373942 -0.938403 0
M  V30 50 H -1.663594 -0.552043 -0.382350 0
M  V30 51 H -0.701482 -3.056431 0.268355 0
M  V30 52 H -2.362535 -2.457397 0.527684 0
M  V30 53 H -1.257912 -4.198829 -1.643685 0
M  V30 54 H -4.088992 -3.585180 -1.445848 0
M  V30 55 H -3.091691 -3.892717 -2.957001 0
M  V30 56 H -3.697420 -1.665897 -3.219748 0
M  V30 57 H -3.688476 -1.360317 -1.380211 0
M  V30 58 H 0.993164 1.851304 0.203669 0
M  V30 59 H 1.874370 -2.674389 2.724640 0
M  V30 60 H -0.849157 -5.579882 1.326482 0
M  V30 61 H 0.015002 -6.089663 2.870202 0
M  V30 62 H -1.750391 -5.712014 2.866767 0
M  V30 END ATOM
M  V30 BEGIN BOND
M  V30 1 1 1 2
M  V30 2 1 2 3
M  V30 3 2 3 4
M  V30 4 1 4 5
M  V30 5 2 5 6
M  V30 6 1 6 7
M  V30 7 2 7 8
M  V30 8 1 7 9
M  V30 9 1 9 10
M  V30 10 1 10 11
M  V30 11 2 11 12
M  V30 12 1 12 13
M  V30 13 2 13 14
M  V30 14 1 14 15
M  V30 15 1 15 16
M  V30 16 2 16 17
M  V30 17 1 16 18
M  V30 18 1 18 19
M  V30 19 1 19 20
M  V30 20 1 20 21
M  V30 21 1 21 22
M  V30 22 1 22 23
M  V30 23 1 23 24
M  V30 24 1 24 25
M  V30 25 1 25 26
M  V30 26 2 15 27
M  V30 27 1 6 28
M  V30 28 2 28 29
M  V30 29 1 29 30
M  V30 30 1 30 31
M  V30 31 1 29 3
M  V30 32 1 27 11
M  V30 33 1 26 21
M  V30 34 1 1 32
M  V30 35 1 1 33
M  V30 36 1 1 34
M  V30 37 1 4 35
M  V30 38 1 5 36
M  V30 39 1 9 37
M  V30 40 1 10 38
M  V30 41 1 10 39
M  V30 42 1 12 40
M  V30 43 1 13 41
M  V30 44 1 14 42
M  V30 45 1 18 43
M  V30 46 1 19 44
M  V30 47 1 19 45
M  V30 48 1 20 46
M  V30 49 1 20 47
M  V30 50 1 21 48
M  V30 51 1 22 49
M  V30 52 1 22 50
M  V30 53 1 23 51
M  V30 54 1 23 52
M  V30 55 1 24 53
M  V30 56 1 25 54
M  V30 57 1 25 55
M  V30 58 1 26 56
M  V30 59 1 26 57
M  V30 60 1 27 58
M  V30 61 1 28 59
M  V30 62 1 31 60
M  V30 63 1 31 61
M  V30 64 1 31 62
M  V30 END BOND
M  V30 END CTAB
M  END
>  <Dataset>  (329) 
ChEMBL_Kinases

>  <Ligand_Instance>  (329) 
nan

>  <PDB_ID>  (329) 
nan

>  <Standardized_SMILES>  (329) 
COc1ccc(C(=O)NCc2cccc(C(=O)NCCC3CCNCC3)c2)cc1OC

>  <Name>  (329) 
nan

>  <Pocket>  (329) 
nan

>  <ATP_Site>  (329) 
nan

>  <Peripheral>  (329) 
nan

>  <Num_H_Atoms_ProtBoundConf>  (329) 
nan

>  <Num_Resolved_Atoms>  (329) 
nan

>  <Num_Not_Resolved_Atoms>  (329) 
nan

$$$$
CHEMBL3908648
     RDKit          3D

  0  0  0  0  0  0  0  0  0  0999 V3000
M  V30 BEGIN CTAB
M  V30 COUNTS 59 62 0 0 0
M  V30 BEGIN ATOM
M  V30 1 C 0.733025 -4.376699 4.380843 0
M  V30 2 C 1.177653 -4.203386 2.972647 0
M  V30 3 C 0.814099 -3.060147 2.389325 0
M  V30 4 C 0.019687 -2.047326 3.120057 0
M  V30 5 C 1.183296 -2.765142 1.012041 0
M  V30 6 C 0.826421 -1.592325 0.374607 0
M  V30 7 N 1.145291 -1.280304 -0.897078 0
M  V30 8 C 0.897231 -0.214410 -1.683781 0
M  V30 9 C 0.133351 0.989472 -1.291899 0
M  V30 10 C 0.393101 1.612456 -0.066774 0
M  V30 11 C -0.323092 2.740326 0.318174 0
M  V30 12 C -1.298074 3.238280 -0.529793 0
M  V30 13 C -1.994618 4.435218 -0.015215 0
M  V30 14 O -2.115420 5.614955 -0.489680 0
M  V30 15 N -2.627730 4.154917 1.245535 0
M  V30 16 C -3.390746 5.101538 2.019281 0
M  V30 17 C -4.661068 4.665311 2.701796 0
M  V30 18 C -3.439490 5.079841 3.484091 0
M  V30 19 C -1.580642 2.649073 -1.746238 0
M  V30 20 C -2.629382 3.234268 -2.593192 0
M  V30 21 C -0.861672 1.530291 -2.114687 0
M  V30 22 C 1.491003 -0.489358 -2.897832 0
M  V30 23 N 2.083729 -1.702583 -2.831525 0
M  V30 24 C 1.871949 -2.181921 -1.612595 0
M  V30 25 C 2.253282 -3.378418 -1.008263 0
M  V30 26 N 3.013322 -4.353387 -1.708947 0
M  V30 27 C 3.418589 -5.596833 -1.103829 0
M  V30 28 C 2.295017 -6.468537 -0.657906 0
M  V30 29 C 2.836462 -7.737476 -0.041985 0
M  V30 30 F 1.822275 -8.576872 0.386453 0
M  V30 31 F 3.560132 -7.431632 1.118616 0
M  V30 32 F 3.637848 -8.464543 -0.893381 0
M  V30 33 N 1.909147 -3.641911 0.265754 0
M  V30 34 H -0.369334 -4.347239 4.398123 0
M  V30 35 H 1.161251 -3.604308 5.051177 0
M  V30 36 H 1.136195 -5.362704 4.725137 0
M  V30 37 H 1.760918 -4.902429 2.375854 0
M  V30 38 H -0.171494 -2.329393 4.175284 0
M  V30 39 H -0.949176 -1.824028 2.586661 0
M  V30 40 H 0.619893 -1.106651 3.160238 0
M  V30 41 H 0.247682 -0.919154 0.997138 0
M  V30 42 H 1.144052 1.253849 0.611990 0
M  V30 43 H -0.096388 3.197067 1.272555 0
M  V30 44 H -2.608049 3.219759 1.754326 0
M  V30 45 H -3.461601 6.110390 1.558771 0
M  V30 46 H -5.565802 5.306003 2.681067 0
M  V30 47 H -4.891509 3.593586 2.540235 0
M  V30 48 H -2.917142 4.333924 4.104049 0
M  V30 49 H -3.599135 6.028722 4.038671 0
M  V30 50 H -2.156732 3.452337 -3.591170 0
M  V30 51 H -3.440369 2.511071 -2.820406 0
M  V30 52 H -2.993370 4.174098 -2.188020 0
M  V30 53 H -1.057436 1.037808 -3.069003 0
M  V30 54 H 1.473841 0.183508 -3.767792 0
M  V30 55 H 3.279835 -4.144066 -2.700707 0
M  V30 56 H 4.063289 -5.408175 -0.213581 0
M  V30 57 H 4.059841 -6.173692 -1.805394 0
M  V30 58 H 1.667148 -5.991570 0.096246 0
M  V30 59 H 1.738484 -6.786385 -1.566524 0
M  V30 END ATOM
M  V30 BEGIN BOND
M  V30 1 1 1 2
M  V30 2 2 2 3
M  V30 3 1 3 4
M  V30 4 1 3 5
M  V30 5 2 5 6
M  V30 6 1 6 7
M  V30 7 1 7 8
M  V30 8 1 8 9
M  V30 9 2 9 10
M  V30 10 1 10 11
M  V30 11 2 11 12
M  V30 12 1 12 13
M  V30 13 2 13 14
M  V30 14 1 13 15
M  V30 15 1 15 16
M  V30 16 1 16 17
M  V30 17 1 17 18
M  V30 18 1 12 19
M  V30 19 1 19 20
M  V30 20 2 19 21
M  V30 21 2 8 22
M  V30 22 1 22 23
M  V30 23 2 23 24
M  V30 24 1 24 25
M  V30 25 1 25 26
M  V30 26 1 26 27
M  V30 27 1 27 28
M  V30 28 1 28 29
M  V30 29 1 29 30
M  V30 30 1 29 31
M  V30 31 1 29 32
M  V30 32 2 25 33
M  V30 33 1 33 5
M  V30 34 1 24 7
M  V30 35 1 21 9
M  V30 36 1 18 16
M  V30 37 1 1 34
M  V30 38 1 1 35
M  V30 39 1 1 36
M  V30 40 1 2 37
M  V30 41 1 4 38
M  V30 42 1 4 39
M  V30 43 1 4 40
M  V30 44 1 6 41
M  V30 45 1 10 42
M  V30 46 1 11 43
M  V30 47 1 15 44
M  V30 48 1 16 45
M  V30 49 1 17 46
M  V30 50 1 17 47
M  V30 51 1 18 48
M  V30 52 1 18 49
M  V30 53 1 20 50
M  V30 54 1 20 51
M  V30 55 1 20 52
M  V30 56 1 21 53
M  V30 57 1 22 54
M  V30 58 1 26 55
M  V30 59 1 27 56
M  V30 60 1 27 57
M  V30 61 1 28 58
M  V30 62 1 28 59
M  V30 END BOND
M  V30 END CTAB
M  END
>  <Dataset>  (330) 
ChEMBL_Kinases

>  <Ligand_Instance>  (330) 
nan

>  <PDB_ID>  (330) 
nan

>  <Standardized_SMILES>  (330) 
C/C=C(\C)c1cn2c(-c3ccc(C(=O)NC4CC4)c(C)c3)cnc2c(NCCC(F)(F)F)n1

>  <Name>  (330) 
nan

>  <Pocket>  (330) 
nan

>  <ATP_Site>  (330) 
nan

>  <Peripheral>  (330) 
nan

>  <Num_H_Atoms_ProtBoundConf>  (330) 
nan

>  <Num_Resolved_Atoms>  (330) 
nan

>  <Num_Not_Resolved_Atoms>  (330) 
nan

$$$$
CHEMBL3891139
     RDKit          3D

  0  0  0  0  0  0  0  0  0  0999 V3000
M  V30 BEGIN CTAB
M  V30 COUNTS 52 55 0 0 0
M  V30 BEGIN ATOM
M  V30 1 O -0.934079 -4.451218 0.700891 0
M  V30 2 C -0.459394 -3.290392 0.970146 0
M  V30 3 C 0.387991 -2.622394 0.007710 0
M  V30 4 C 0.981253 -1.448887 0.066141 0
M  V30 5 C 1.830844 -0.825427 -0.947046 0
M  V30 6 C 2.111636 -1.441262 -2.146631 0
M  V30 7 N 2.910361 -0.831170 -3.071739 0
M  V30 8 C 3.430559 0.390644 -2.805690 0
M  V30 9 N 4.223059 1.157162 -3.554281 0
M  V30 10 C 4.516158 2.321089 -2.904045 0
M  V30 11 C 3.858322 2.239922 -1.698536 0
M  V30 12 C 3.882690 3.265778 -0.671838 0
M  V30 13 C 5.042292 3.909841 -0.251107 0
M  V30 14 C 5.030902 4.883738 0.728444 0
M  V30 15 C 3.822219 5.250104 1.331391 0
M  V30 16 C 2.662735 4.598550 0.903143 0
M  V30 17 C 2.692865 3.627683 -0.077283 0
M  V30 18 C 3.177153 1.041806 -1.622617 0
M  V30 19 C 2.368363 0.416992 -0.693537 0
M  V30 20 N -0.858049 -2.805988 2.245528 0
M  V30 21 C -1.657977 -3.229831 3.319762 0
M  V30 22 C -3.110370 -3.371380 3.237083 0
M  V30 23 N -3.697948 -4.208365 2.240009 0
M  V30 24 C -5.100069 -4.482913 2.679649 0
M  V30 25 C -5.868241 -3.226109 2.908903 0
M  V30 26 O -5.621620 -2.261214 1.941977 0
M  V30 27 C -5.254383 -2.946584 0.787967 0
M  V30 28 C -3.839479 -3.447298 0.974639 0
M  V30 29 H 0.578343 -3.158714 -0.921906 0
M  V30 30 H 0.788654 -0.915427 0.996855 0
M  V30 31 H 1.721653 -2.408476 -2.401450 0
M  V30 32 H 4.613335 0.976079 -4.510217 0
M  V30 33 H 5.145192 3.131975 -3.285322 0
M  V30 34 H 5.979513 3.616657 -0.728195 0
M  V30 35 H 5.937256 5.380748 1.050484 0
M  V30 36 H 3.762776 6.008017 2.103062 0
M  V30 37 H 1.744192 4.914857 1.399730 0
M  V30 38 H 1.718755 3.214780 -0.303346 0
M  V30 39 H 2.168378 0.926165 0.239091 0
M  V30 40 H -0.384744 -1.855569 2.346152 0
M  V30 41 H -1.455171 -2.510266 4.185447 0
M  V30 42 H -1.264161 -4.216381 3.752555 0
M  V30 43 H -3.657902 -2.386520 3.175252 0
M  V30 44 H -3.470836 -3.772055 4.245504 0
M  V30 45 H -5.574565 -5.196850 1.991046 0
M  V30 46 H -4.970805 -5.000674 3.652020 0
M  V30 47 H -6.957288 -3.465540 2.846551 0
M  V30 48 H -5.684186 -2.775641 3.895021 0
M  V30 49 H -5.250945 -2.236991 -0.090022 0
M  V30 50 H -5.892990 -3.800888 0.552871 0
M  V30 51 H -3.213683 -2.551938 1.093176 0
M  V30 52 H -3.544221 -4.026770 0.100298 0
M  V30 END ATOM
M  V30 BEGIN BOND
M  V30 1 2 1 2
M  V30 2 1 2 3
M  V30 3 2 3 4
M  V30 4 1 4 5
M  V30 5 2 5 6
M  V30 6 1 6 7
M  V30 7 2 7 8
M  V30 8 1 8 9
M  V30 9 1 9 10
M  V30 10 2 10 11
M  V30 11 1 11 12
M  V30 12 2 12 13
M  V30 13 1 13 14
M  V30 14 2 14 15
M  V30 15 1 15 16
M  V30 16 2 16 17
M  V30 17 1 11 18
M  V30 18 2 18 19
M  V30 19 1 2 20
M  V30 20 1 20 21
M  V30 21 1 21 22
M  V30 22 1 22 23
M  V30 23 1 23 24
M  V30 24 1 24 25
M  V30 25 1 25 26
M  V30 26 1 26 27
M  V30 27 1 27 28
M  V30 28 1 19 5
M  V30 29 1 28 23
M  V30 30 1 18 8
M  V30 31 1 17 12
M  V30 32 1 3 29
M  V30 33 1 4 30
M  V30 34 1 6 31
M  V30 35 1 9 32
M  V30 36 1 10 33
M  V30 37 1 13 34
M  V30 38 1 14 35
M  V30 39 1 15 36
M  V30 40 1 16 37
M  V30 41 1 17 38
M  V30 42 1 19 39
M  V30 43 1 20 40
M  V30 44 1 21 41
M  V30 45 1 21 42
M  V30 46 1 22 43
M  V30 47 1 22 44
M  V30 48 1 24 45
M  V30 49 1 24 46
M  V30 50 1 25 47
M  V30 51 1 25 48
M  V30 52 1 27 49
M  V30 53 1 27 50
M  V30 54 1 28 51
M  V30 55 1 28 52
M  V30 END BOND
M  V30 END CTAB
M  END
>  <Dataset>  (331) 
ChEMBL_Kinases

>  <Ligand_Instance>  (331) 
nan

>  <PDB_ID>  (331) 
nan

>  <Standardized_SMILES>  (331) 
O=C(/C=C/c1cnc2[nH]cc(-c3ccccc3)c2c1)NCCN1CCOCC1

>  <Name>  (331) 
nan

>  <Pocket>  (331) 
nan

>  <ATP_Site>  (331) 
nan

>  <Peripheral>  (331) 
nan

>  <Num_H_Atoms_ProtBoundConf>  (331) 
nan

>  <Num_Resolved_Atoms>  (331) 
nan

>  <Num_Not_Resolved_Atoms>  (331) 
nan

$$$$
CHEMBL389102
     RDKit          3D

  0  0  0  0  0  0  0  0  0  0999 V3000
M  V30 BEGIN CTAB
M  V30 COUNTS 44 47 0 0 0
M  V30 BEGIN ATOM
M  V30 1 N -1.618285 -4.630635 4.549939 0
M  V30 2 C -1.134784 -3.598377 4.252547 0
M  V30 3 C -0.558622 -2.331372 3.909592 0
M  V30 4 C -0.311399 -1.432478 4.922921 0
M  V30 5 N 0.228903 -0.246586 4.614364 0
M  V30 6 C 0.545506 0.117477 3.360800 0
M  V30 7 N 1.119969 1.393823 3.116746 0
M  V30 8 C 1.516198 1.983261 1.888926 0
M  V30 9 C 2.112685 3.225746 1.853405 0
M  V30 10 C 2.503177 3.816480 0.675491 0
M  V30 11 C 2.315374 3.191804 -0.527275 0
M  V30 12 C 2.750451 3.857403 -1.784684 0
M  V30 13 C 1.596742 4.688520 -2.304852 0
M  V30 14 O 1.223064 5.649549 -1.382533 0
M  V30 15 C 1.730606 1.965036 -0.540382 0
M  V30 16 C 1.348255 1.394251 0.654399 0
M  V30 17 N 0.275285 -0.806624 2.441821 0
M  V30 18 C -0.252873 -2.008158 2.607398 0
M  V30 19 C -0.509800 -2.955291 1.527603 0
M  V30 20 C 0.504068 -3.137417 0.581238 0
M  V30 21 C 0.274899 -4.036528 -0.454973 0
M  V30 22 C -0.919135 -4.752811 -0.578449 0
M  V30 23 N -1.282757 -5.650543 -1.519202 0
M  V30 24 C -2.541024 -6.055258 -1.183413 0
M  V30 25 C -2.901093 -5.380273 -0.036174 0
M  V30 26 C -1.888382 -4.550813 0.363078 0
M  V30 27 C -1.662989 -3.659533 1.391643 0
M  V30 28 H -0.515831 -1.592191 5.975776 0
M  V30 29 H 1.278044 2.000228 3.972422 0
M  V30 30 H 2.302830 3.801054 2.770034 0
M  V30 31 H 2.966662 4.787627 0.685849 0
M  V30 32 H 3.673796 4.438947 -1.675792 0
M  V30 33 H 2.966541 3.063027 -2.557622 0
M  V30 34 H 0.779771 3.978090 -2.563233 0
M  V30 35 H 1.939109 5.138733 -3.263229 0
M  V30 36 H 0.665892 6.347023 -1.825784 0
M  V30 37 H 1.579200 1.466168 -1.505336 0
M  V30 38 H 0.891300 0.422407 0.564547 0
M  V30 39 H 1.454925 -2.626761 0.600144 0
M  V30 40 H 1.071096 -4.176934 -1.194589 0
M  V30 41 H -0.707258 -5.963611 -2.335163 0
M  V30 42 H -3.081777 -6.782212 -1.773834 0
M  V30 43 H -3.861978 -5.493230 0.480421 0
M  V30 44 H -2.468478 -3.529836 2.122998 0
M  V30 END ATOM
M  V30 BEGIN BOND
M  V30 1 3 1 2
M  V30 2 1 2 3
M  V30 3 2 3 4
M  V30 4 1 4 5
M  V30 5 2 5 6
M  V30 6 1 6 7
M  V30 7 1 7 8
M  V30 8 2 8 9
M  V30 9 1 9 10
M  V30 10 2 10 11
M  V30 11 1 11 12
M  V30 12 1 12 13
M  V30 13 1 13 14
M  V30 14 1 11 15
M  V30 15 2 15 16
M  V30 16 1 6 17
M  V30 17 2 17 18
M  V30 18 1 18 19
M  V30 19 2 19 20
M  V30 20 1 20 21
M  V30 21 2 21 22
M  V30 22 1 22 23
M  V30 23 1 23 24
M  V30 24 2 24 25
M  V30 25 1 25 26
M  V30 26 2 26 27
M  V30 27 1 18 3
M  V30 28 1 27 19
M  V30 29 1 16 8
M  V30 30 1 26 22
M  V30 31 1 4 28
M  V30 32 1 7 29
M  V30 33 1 9 30
M  V30 34 1 10 31
M  V30 35 1 12 32
M  V30 36 1 12 33
M  V30 37 1 13 34
M  V30 38 1 13 35
M  V30 39 1 14 36
M  V30 40 1 15 37
M  V30 41 1 16 38
M  V30 42 1 20 39
M  V30 43 1 21 40
M  V30 44 1 23 41
M  V30 45 1 24 42
M  V30 46 1 25 43
M  V30 47 1 27 44
M  V30 END BOND
M  V30 END CTAB
M  END
>  <Dataset>  (332) 
ChEMBL_Kinases

>  <Ligand_Instance>  (332) 
nan

>  <PDB_ID>  (332) 
nan

>  <Standardized_SMILES>  (332) 
N#Cc1cnc(Nc2ccc(CCO)cc2)nc1-c1ccc2[nH]ccc2c1

>  <Name>  (332) 
nan

>  <Pocket>  (332) 
nan

>  <ATP_Site>  (332) 
nan

>  <Peripheral>  (332) 
nan

>  <Num_H_Atoms_ProtBoundConf>  (332) 
nan

>  <Num_Resolved_Atoms>  (332) 
nan

>  <Num_Not_Resolved_Atoms>  (332) 
nan

$$$$
CHEMBL389086
     RDKit          3D

  0  0  0  0  0  0  0  0  0  0999 V3000
M  V30 BEGIN CTAB
M  V30 COUNTS 26 27 0 0 0
M  V30 BEGIN ATOM
M  V30 1 N -2.382799 -2.187573 2.736559 0
M  V30 2 C -1.085146 -2.730677 2.661179 0
M  V30 3 O -0.861821 -3.797785 3.293395 0
M  V30 4 C -0.107847 -2.009226 1.855457 0
M  V30 5 C -0.408541 -0.837781 1.172813 0
M  V30 6 C 0.575682 -0.226571 0.435826 0
M  V30 7 C 0.326969 0.988218 -0.292983 0
M  V30 8 C -0.535641 2.005655 0.032173 0
M  V30 9 C -0.723106 3.139526 -0.715422 0
M  V30 10 N -0.001630 3.248115 -1.847974 0
M  V30 11 C 0.851187 2.297710 -2.218253 0
M  V30 12 C 1.048439 1.151672 -1.473937 0
M  V30 13 C 1.839105 -0.818064 0.409438 0
M  V30 14 C 2.154470 -1.987917 1.086293 0
M  V30 15 C 1.155006 -2.586223 1.819659 0
M  V30 16 O 1.381765 -3.750575 2.522044 0
M  V30 17 H -2.291322 -1.683735 3.656968 0
M  V30 18 H -3.318479 -1.770232 2.834825 0
M  V30 19 H -1.416069 -0.435809 1.239980 0
M  V30 20 H -1.090768 1.866195 0.949300 0
M  V30 21 H -1.404780 3.907080 -0.427703 0
M  V30 22 H 1.381326 2.483644 -3.149175 0
M  V30 23 H 1.778196 0.458061 -1.898392 0
M  V30 24 H 2.656005 -0.389065 -0.147243 0
M  V30 25 H 3.145338 -2.417190 1.042006 0
M  V30 26 H 1.110419 -4.654381 2.141310 0
M  V30 END ATOM
M  V30 BEGIN BOND
M  V30 1 1 1 2
M  V30 2 2 2 3
M  V30 3 1 2 4
M  V30 4 2 4 5
M  V30 5 1 5 6
M  V30 6 1 6 7
M  V30 7 2 7 8
M  V30 8 1 8 9
M  V30 9 2 9 10
M  V30 10 1 10 11
M  V30 11 2 11 12
M  V30 12 2 6 13
M  V30 13 1 13 14
M  V30 14 2 14 15
M  V30 15 1 15 16
M  V30 16 1 15 4
M  V30 17 1 12 7
M  V30 18 1 1 17
M  V30 19 1 1 18
M  V30 20 1 5 19
M  V30 21 1 8 20
M  V30 22 1 9 21
M  V30 23 1 11 22
M  V30 24 1 12 23
M  V30 25 1 13 24
M  V30 26 1 14 25
M  V30 27 1 16 26
M  V30 END BOND
M  V30 END CTAB
M  END
>  <Dataset>  (333) 
ChEMBL_Kinases

>  <Ligand_Instance>  (333) 
nan

>  <PDB_ID>  (333) 
nan

>  <Standardized_SMILES>  (333) 
NC(=O)c1cc(-c2ccncc2)ccc1O

>  <Name>  (333) 
nan

>  <Pocket>  (333) 
nan

>  <ATP_Site>  (333) 
nan

>  <Peripheral>  (333) 
nan

>  <Num_H_Atoms_ProtBoundConf>  (333) 
nan

>  <Num_Resolved_Atoms>  (333) 
nan

>  <Num_Not_Resolved_Atoms>  (333) 
nan

$$$$
CHEMBL389079
     RDKit          3D

  0  0  0  0  0  0  0  0  0  0999 V3000
M  V30 BEGIN CTAB
M  V30 COUNTS 56 60 0 0 0
M  V30 BEGIN ATOM
M  V30 1 C 2.494172 -1.532412 4.680648 0
M  V30 2 C 3.475615 -2.577080 4.155778 0
M  V30 3 C 3.466131 -2.489927 2.663074 0
M  V30 4 C 4.247284 -3.303475 1.870701 0
M  V30 5 C 4.240056 -3.224281 0.481262 0
M  V30 6 C 3.404203 -2.279412 -0.122430 0
M  V30 7 C 2.629404 -1.473974 0.688607 0
M  V30 8 C 1.753129 -0.485001 0.072195 0
M  V30 9 N 1.700946 0.857241 0.116460 0
M  V30 10 C 0.696575 1.352935 -0.629707 0
M  V30 11 C 0.541755 2.832129 -0.664056 0
M  V30 12 N -0.294506 3.300695 0.393933 0
M  V30 13 C -1.663067 3.089749 0.650130 0
M  V30 14 C -2.326454 3.612622 1.765404 0
M  V30 15 C -3.660222 3.403856 1.992462 0
M  V30 16 C -4.434506 2.661720 1.130924 0
M  V30 17 C -5.842390 2.493575 1.454904 0
M  V30 18 N -6.778720 1.762521 0.684090 0
M  V30 19 O -6.291603 3.029821 2.497425 0
M  V30 20 C -3.834823 2.124707 0.019356 0
M  V30 21 C -2.494154 2.357510 -0.172335 0
M  V30 22 N 0.108330 0.273180 -1.153226 0
M  V30 23 C 0.714812 -0.855096 -0.754973 0
M  V30 24 C 0.319253 -2.203279 -1.146486 0
M  V30 25 C -0.096848 -3.068150 -0.155115 0
M  V30 26 C -0.464279 -4.335609 -0.558110 0
M  V30 27 C -0.417206 -4.718739 -1.890810 0
M  V30 28 C 0.010564 -3.812940 -2.867498 0
M  V30 29 C 0.384149 -2.533735 -2.481523 0
M  V30 30 O -0.065463 -4.520034 -4.079182 0
M  V30 31 C -0.958944 -5.622438 -3.890414 0
M  V30 32 O -0.731937 -5.917156 -2.523537 0
M  V30 33 N 2.679874 -1.598074 2.034826 0
M  V30 34 H 2.313030 -0.718896 3.942635 0
M  V30 35 H 2.846516 -1.117524 5.644787 0
M  V30 36 H 1.478859 -1.988263 4.837051 0
M  V30 37 H 3.033216 -3.571440 4.406613 0
M  V30 38 H 4.483131 -2.479099 4.578465 0
M  V30 39 H 4.900078 -4.041309 2.331412 0
M  V30 40 H 4.863641 -3.874166 -0.132713 0
M  V30 41 H 3.367292 -2.183741 -1.207904 0
M  V30 42 H 2.436338 1.319875 0.715122 0
M  V30 43 H 0.020548 3.060673 -1.643568 0
M  V30 44 H 1.499611 3.346918 -0.650457 0
M  V30 45 H 0.172485 3.915684 1.128038 0
M  V30 46 H -1.743868 4.203226 2.465997 0
M  V30 47 H -4.081008 3.859401 2.897977 0
M  V30 48 H -6.455355 0.851578 1.081993 0
M  V30 49 H -7.523764 1.973279 -0.019388 0
M  V30 50 H -4.442609 1.543884 -0.654225 0
M  V30 51 H -2.110076 1.903427 -1.073759 0
M  V30 52 H -0.134398 -2.770891 0.887747 0
M  V30 53 H -0.805752 -5.073574 0.185604 0
M  V30 54 H 0.712471 -1.845036 -3.249433 0
M  V30 55 H -1.994169 -5.248277 -4.055196 0
M  V30 56 H -0.723843 -6.473046 -4.556730 0
M  V30 END ATOM
M  V30 BEGIN BOND
M  V30 1 1 1 2
M  V30 2 1 2 3
M  V30 3 2 3 4
M  V30 4 1 4 5
M  V30 5 2 5 6
M  V30 6 1 6 7
M  V30 7 1 7 8
M  V30 8 1 8 9
M  V30 9 1 9 10
M  V30 10 1 10 11
M  V30 11 1 11 12
M  V30 12 1 12 13
M  V30 13 2 13 14
M  V30 14 1 14 15
M  V30 15 2 15 16
M  V30 16 1 16 17
M  V30 17 1 17 18
M  V30 18 2 17 19
M  V30 19 1 16 20
M  V30 20 2 20 21
M  V30 21 2 10 22
M  V30 22 1 22 23
M  V30 23 1 23 24
M  V30 24 2 24 25
M  V30 25 1 25 26
M  V30 26 2 26 27
M  V30 27 1 27 28
M  V30 28 2 28 29
M  V30 29 1 28 30
M  V30 30 1 30 31
M  V30 31 1 31 32
M  V30 32 2 7 33
M  V30 33 1 33 3
M  V30 34 2 23 8
M  V30 35 1 29 24
M  V30 36 1 21 13
M  V30 37 1 32 27
M  V30 38 1 1 34
M  V30 39 1 1 35
M  V30 40 1 1 36
M  V30 41 1 2 37
M  V30 42 1 2 38
M  V30 43 1 4 39
M  V30 44 1 5 40
M  V30 45 1 6 41
M  V30 46 1 9 42
M  V30 47 1 11 43
M  V30 48 1 11 44
M  V30 49 1 12 45
M  V30 50 1 14 46
M  V30 51 1 15 47
M  V30 52 1 18 48
M  V30 53 1 18 49
M  V30 54 1 20 50
M  V30 55 1 21 51
M  V30 56 1 25 52
M  V30 57 1 26 53
M  V30 58 1 29 54
M  V30 59 1 31 55
M  V30 60 1 31 56
M  V30 END BOND
M  V30 END CTAB
M  END
>  <Dataset>  (334) 
ChEMBL_Kinases

>  <Ligand_Instance>  (334) 
nan

>  <PDB_ID>  (334) 
nan

>  <Standardized_SMILES>  (334) 
CCc1cccc(-c2[nH]c(CNc3ccc(C(N)=O)cc3)nc2-c2ccc3c(c2)OCO3)n1

>  <Name>  (334) 
nan

>  <Pocket>  (334) 
nan

>  <ATP_Site>  (334) 
nan

>  <Peripheral>  (334) 
nan

>  <Num_H_Atoms_ProtBoundConf>  (334) 
nan

>  <Num_Resolved_Atoms>  (334) 
nan

>  <Num_Not_Resolved_Atoms>  (334) 
nan

$$$$
CHEMBL389078
     RDKit          3D

  0  0  0  0  0  0  0  0  0  0999 V3000
M  V30 BEGIN CTAB
M  V30 COUNTS 53 57 0 0 0
M  V30 BEGIN ATOM
M  V30 1 C -0.012756 -3.606786 4.434218 0
M  V30 2 C 1.186246 -2.906499 3.852800 0
M  V30 3 C 2.466033 -2.877992 4.412110 0
M  V30 4 C 3.443283 -2.185314 3.737417 0
M  V30 5 C 3.177767 -1.537414 2.547631 0
M  V30 6 C 1.882474 -1.589393 2.019099 0
M  V30 7 C 1.651706 -0.891201 0.760294 0
M  V30 8 N 1.786403 0.397948 0.507226 0
M  V30 9 C 1.494776 0.720031 -0.762017 0
M  V30 10 C 1.448917 1.955052 -1.588573 0
M  V30 11 N 0.098628 2.471071 -1.616194 0
M  V30 12 C -0.716112 3.020402 -0.597006 0
M  V30 13 C -0.346079 3.208743 0.700492 0
M  V30 14 C -1.138485 3.731462 1.692483 0
M  V30 15 C -2.423431 4.099039 1.344759 0
M  V30 16 C -2.841894 3.928012 0.046518 0
M  V30 17 C -4.194880 4.310631 -0.336588 0
M  V30 18 N -5.124470 4.863672 0.578779 0
M  V30 19 O -4.674583 4.191090 -1.508222 0
M  V30 20 C -2.003998 3.400763 -0.897772 0
M  V30 21 N 1.152719 -0.471248 -1.336065 0
M  V30 22 C 1.242656 -1.439573 -0.436554 0
M  V30 23 C 0.958980 -2.876421 -0.643733 0
M  V30 24 C 1.860869 -3.913829 -0.531692 0
M  V30 25 C 1.435579 -5.204593 -0.756401 0
M  V30 26 C 0.106322 -5.459519 -1.093530 0
M  V30 27 C -0.798853 -4.420050 -1.205893 0
M  V30 28 C -0.363216 -3.128529 -0.978817 0
M  V30 29 O -2.056319 -4.924501 -1.550210 0
M  V30 30 C -1.862412 -6.297224 -1.794447 0
M  V30 31 O -0.558232 -6.633477 -1.363530 0
M  V30 32 N 0.954281 -2.268195 2.694425 0
M  V30 33 H -0.850787 -2.908481 4.457993 0
M  V30 34 H -0.258928 -4.389627 3.667887 0
M  V30 35 H 0.202918 -4.035811 5.410250 0
M  V30 36 H 2.572944 -3.414348 5.343845 0
M  V30 37 H 4.418918 -2.190930 4.208397 0
M  V30 38 H 4.023261 -1.015809 2.090816 0
M  V30 39 H 2.091049 1.127016 1.182341 0
M  V30 40 H 2.126636 2.740821 -1.148775 0
M  V30 41 H 1.802685 1.712926 -2.590339 0
M  V30 42 H -0.339610 2.417252 -2.589023 0
M  V30 43 H 0.638507 2.945124 1.008318 0
M  V30 44 H -0.785428 3.856316 2.711980 0
M  V30 45 H -3.120718 4.515467 2.041667 0
M  V30 46 H -5.515723 3.944253 0.934528 0
M  V30 47 H -5.597630 4.065101 1.017367 0
M  V30 48 H -2.399458 3.290732 -1.914506 0
M  V30 49 H 2.875788 -3.623670 -0.266405 0
M  V30 50 H 2.165997 -6.006684 -0.662762 0
M  V30 51 H -1.110646 -2.344467 -1.078581 0
M  V30 52 H -2.578244 -6.902040 -1.198290 0
M  V30 53 H -2.007384 -6.463282 -2.890112 0
M  V30 END ATOM
M  V30 BEGIN BOND
M  V30 1 1 1 2
M  V30 2 2 2 3
M  V30 3 1 3 4
M  V30 4 2 4 5
M  V30 5 1 5 6
M  V30 6 1 6 7
M  V30 7 1 7 8
M  V30 8 1 8 9
M  V30 9 1 9 10
M  V30 10 1 10 11
M  V30 11 1 11 12
M  V30 12 2 12 13
M  V30 13 1 13 14
M  V30 14 2 14 15
M  V30 15 1 15 16
M  V30 16 1 16 17
M  V30 17 1 17 18
M  V30 18 2 17 19
M  V30 19 2 16 20
M  V30 20 2 9 21
M  V30 21 1 21 22
M  V30 22 1 22 23
M  V30 23 2 23 24
M  V30 24 1 24 25
M  V30 25 2 25 26
M  V30 26 1 26 27
M  V30 27 2 27 28
M  V30 28 1 27 29
M  V30 29 1 29 30
M  V30 30 1 30 31
M  V30 31 2 6 32
M  V30 32 1 32 2
M  V30 33 2 22 7
M  V30 34 1 28 23
M  V30 35 1 20 12
M  V30 36 1 31 26
M  V30 37 1 1 33
M  V30 38 1 1 34
M  V30 39 1 1 35
M  V30 40 1 3 36
M  V30 41 1 4 37
M  V30 42 1 5 38
M  V30 43 1 8 39
M  V30 44 1 10 40
M  V30 45 1 10 41
M  V30 46 1 11 42
M  V30 47 1 13 43
M  V30 48 1 14 44
M  V30 49 1 15 45
M  V30 50 1 18 46
M  V30 51 1 18 47
M  V30 52 1 20 48
M  V30 53 1 24 49
M  V30 54 1 25 50
M  V30 55 1 28 51
M  V30 56 1 30 52
M  V30 57 1 30 53
M  V30 END BOND
M  V30 END CTAB
M  END
>  <Dataset>  (335) 
ChEMBL_Kinases

>  <Ligand_Instance>  (335) 
nan

>  <PDB_ID>  (335) 
nan

>  <Standardized_SMILES>  (335) 
Cc1cccc(-c2[nH]c(CNc3cccc(C(N)=O)c3)nc2-c2ccc3c(c2)OCO3)n1

>  <Name>  (335) 
nan

>  <Pocket>  (335) 
nan

>  <ATP_Site>  (335) 
nan

>  <Peripheral>  (335) 
nan

>  <Num_H_Atoms_ProtBoundConf>  (335) 
nan

>  <Num_Resolved_Atoms>  (335) 
nan

>  <Num_Not_Resolved_Atoms>  (335) 
nan

$$$$
CHEMBL3890544
     RDKit          3D

  0  0  0  0  0  0  0  0  0  0999 V3000
M  V30 BEGIN CTAB
M  V30 COUNTS 44 47 0 0 0
M  V30 BEGIN ATOM
M  V30 1 C 1.508272 -3.740322 -1.272883 0
M  V30 2 C 0.872451 -2.375930 -1.567579 0
M  V30 3 C 1.927591 -1.452773 -2.147129 0 CFG=1
M  V30 4 C 1.367334 -0.099941 -2.457266 0
M  V30 5 N 3.153082 -1.443651 -1.393412 0
M  V30 6 C 4.283141 -2.174173 -1.583763 0
M  V30 7 N 5.226379 -1.886064 -0.666856 0
M  V30 8 N 4.697474 -0.953649 0.129766 0
M  V30 9 C 3.456872 -0.706308 -0.325819 0
M  V30 10 C 2.620801 0.278617 0.347539 0
M  V30 11 C 3.020648 1.597247 0.397407 0
M  V30 12 C 2.287129 2.597220 1.016443 0
M  V30 13 C 1.086665 2.276217 1.622738 0
M  V30 14 C 0.705251 0.951395 1.561247 0
M  V30 15 N -0.534585 0.631580 2.189858 0
M  V30 16 C -0.713216 0.230448 3.573933 0
M  V30 17 C -2.182408 0.028566 3.673387 0
M  V30 18 C -2.892466 -0.362692 4.791269 0
M  V30 19 C -4.259199 -0.484312 4.642768 0
M  V30 20 C -4.965490 -0.249313 3.481089 0
M  V30 21 C -4.196507 0.143729 2.382217 0
M  V30 22 C -2.817693 0.288310 2.452306 0
M  V30 23 C -1.788111 0.674931 1.489479 0
M  V30 24 O -1.994077 0.979583 0.290584 0
M  V30 25 N 1.438330 0.000755 0.952711 0
M  V30 26 H 0.821350 -4.314780 -0.595407 0
M  V30 27 H 1.534920 -4.326299 -2.212947 0
M  V30 28 H 2.483922 -3.656990 -0.782326 0
M  V30 29 H 0.336009 -1.962654 -0.711412 0
M  V30 30 H 0.116669 -2.552118 -2.383338 0
M  V30 31 H 2.189264 -1.927498 -3.138761 0
M  V30 32 H 2.210152 0.587903 -2.588912 0
M  V30 33 H 0.621738 0.248765 -1.714035 0
M  V30 34 H 0.810824 -0.165295 -3.417021 0
M  V30 35 H 4.428481 -2.909184 -2.376353 0
M  V30 36 H 3.952370 1.843054 -0.073853 0
M  V30 37 H 2.600985 3.630446 1.055221 0
M  V30 38 H 0.517437 3.042795 2.101169 0
M  V30 39 H -0.399845 1.101851 4.203331 0
M  V30 40 H -0.137909 -0.684010 3.819686 0
M  V30 41 H -2.419029 -0.568123 5.744479 0
M  V30 42 H -4.849939 -0.789148 5.497453 0
M  V30 43 H -6.039414 -0.362851 3.429860 0
M  V30 44 H -4.687770 0.343844 1.440718 0
M  V30 END ATOM
M  V30 BEGIN BOND
M  V30 1 1 1 2
M  V30 2 1 2 3
M  V30 3 1 3 4
M  V30 4 1 3 5
M  V30 5 1 5 6
M  V30 6 2 6 7
M  V30 7 1 7 8
M  V30 8 2 8 9
M  V30 9 1 9 10
M  V30 10 2 10 11
M  V30 11 1 11 12
M  V30 12 2 12 13
M  V30 13 1 13 14
M  V30 14 1 14 15
M  V30 15 1 15 16
M  V30 16 1 16 17
M  V30 17 2 17 18
M  V30 18 1 18 19
M  V30 19 2 19 20
M  V30 20 1 20 21
M  V30 21 2 21 22
M  V30 22 1 22 23
M  V30 23 2 23 24
M  V30 24 2 14 25
M  V30 25 1 9 5
M  V30 26 1 25 10
M  V30 27 1 23 15
M  V30 28 1 22 17
M  V30 29 1 1 26
M  V30 30 1 1 27
M  V30 31 1 1 28
M  V30 32 1 2 29
M  V30 33 1 2 30
M  V30 34 1 3 31 CFG=3
M  V30 35 1 4 32
M  V30 36 1 4 33
M  V30 37 1 4 34
M  V30 38 1 6 35
M  V30 39 1 11 36
M  V30 40 1 12 37
M  V30 41 1 13 38
M  V30 42 1 16 39
M  V30 43 1 16 40
M  V30 44 1 18 41
M  V30 45 1 19 42
M  V30 46 1 20 43
M  V30 47 1 21 44
M  V30 END BOND
M  V30 END CTAB
M  END
>  <Dataset>  (336) 
ChEMBL_Kinases

>  <Ligand_Instance>  (336) 
nan

>  <PDB_ID>  (336) 
nan

>  <Standardized_SMILES>  (336) 
CC[C@@H](C)n1cnnc1-c1cccc(N2Cc3ccccc3C2=O)n1

>  <Name>  (336) 
nan

>  <Pocket>  (336) 
nan

>  <ATP_Site>  (336) 
nan

>  <Peripheral>  (336) 
nan

>  <Num_H_Atoms_ProtBoundConf>  (336) 
nan

>  <Num_Resolved_Atoms>  (336) 
nan

>  <Num_Not_Resolved_Atoms>  (336) 
nan

$$$$
CHEMBL3890533
     RDKit          3D

  0  0  0  0  0  0  0  0  0  0999 V3000
M  V30 BEGIN CTAB
M  V30 COUNTS 38 40 0 0 0
M  V30 BEGIN ATOM
M  V30 1 C -1.443989 -4.230916 -2.509373 0
M  V30 2 C -0.099857 -3.828654 -3.047201 0
M  V30 3 O 0.497273 -2.771804 -2.353203 0
M  V30 4 C 0.842493 -2.812841 -1.032539 0
M  V30 5 C 0.598055 -3.959657 -0.281602 0
M  V30 6 C 0.931331 -4.037476 1.055114 0
M  V30 7 C 1.523419 -2.995424 1.728922 0
M  V30 8 C 1.770215 -1.850563 0.991259 0
M  V30 9 C 1.432224 -1.769373 -0.363494 0
M  V30 10 C 1.666172 -0.568289 -1.202208 0
M  V30 11 N 1.788665 0.567712 -0.280876 0
M  V30 12 C 0.494697 0.552627 0.365072 0
M  V30 13 O -0.256017 -0.367634 -0.055881 0
M  V30 14 C 0.118062 1.575424 1.450616 0
M  V30 15 N 0.283016 2.476578 2.155674 0
M  V30 16 N -0.519803 2.990246 3.028323 0
M  V30 17 C -0.461554 4.012083 3.898584 0
M  V30 18 C 0.648985 4.993872 4.190976 0
M  V30 19 N -1.621232 4.076376 4.564519 0
M  V30 20 C -2.469148 3.128573 4.174471 0
M  V30 21 C -1.731463 2.453793 3.192421 0
M  V30 22 S -1.650623 1.093030 1.953376 0
M  V30 23 H -1.787909 -3.612383 -1.656086 0
M  V30 24 H -2.226441 -4.077155 -3.324406 0
M  V30 25 H -1.426695 -5.333545 -2.256195 0
M  V30 26 H -0.212450 -3.565929 -4.139259 0
M  V30 27 H 0.581642 -4.740542 -2.983188 0
M  V30 28 H 0.155075 -4.867881 -0.625428 0
M  V30 29 H 0.764949 -4.900317 1.689421 0
M  V30 30 H 1.803943 -3.002013 2.760338 0
M  V30 31 H 2.232671 -0.940638 1.371765 0
M  V30 32 H 2.607974 -0.673841 -1.803643 0
M  V30 33 H 0.868570 -0.440602 -1.921790 0
M  V30 34 H 2.329299 1.338839 0.134833 0
M  V30 35 H 0.444880 5.556180 5.114921 0
M  V30 36 H 0.910631 5.596958 3.315438 0
M  V30 37 H 1.552044 4.353224 4.410955 0
M  V30 38 H -3.464385 2.760830 4.371549 0
M  V30 END ATOM
M  V30 BEGIN BOND
M  V30 1 1 1 2
M  V30 2 1 2 3
M  V30 3 1 3 4
M  V30 4 2 4 5
M  V30 5 1 5 6
M  V30 6 2 6 7
M  V30 7 1 7 8
M  V30 8 2 8 9
M  V30 9 1 9 10
M  V30 10 1 10 11
M  V30 11 1 11 12
M  V30 12 2 12 13
M  V30 13 1 12 14
M  V30 14 2 14 15
M  V30 15 1 15 16
M  V30 16 1 16 17
M  V30 17 1 17 18
M  V30 18 2 17 19
M  V30 19 1 19 20
M  V30 20 2 20 21
M  V30 21 1 21 22
M  V30 22 1 9 4
M  V30 23 1 22 14
M  V30 24 1 21 16
M  V30 25 1 1 23
M  V30 26 1 1 24
M  V30 27 1 1 25
M  V30 28 1 2 26
M  V30 29 1 2 27
M  V30 30 1 5 28
M  V30 31 1 6 29
M  V30 32 1 7 30
M  V30 33 1 8 31
M  V30 34 1 10 32
M  V30 35 1 10 33
M  V30 36 1 11 34
M  V30 37 1 18 35
M  V30 38 1 18 36
M  V30 39 1 18 37
M  V30 40 1 20 38
M  V30 END BOND
M  V30 END CTAB
M  END
>  <Dataset>  (337) 
ChEMBL_Kinases

>  <Ligand_Instance>  (337) 
nan

>  <PDB_ID>  (337) 
nan

>  <Standardized_SMILES>  (337) 
CCOc1ccccc1CNC(=O)c1nn2c(C)ncc2s1

>  <Name>  (337) 
nan

>  <Pocket>  (337) 
nan

>  <ATP_Site>  (337) 
nan

>  <Peripheral>  (337) 
nan

>  <Num_H_Atoms_ProtBoundConf>  (337) 
nan

>  <Num_Resolved_Atoms>  (337) 
nan

>  <Num_Not_Resolved_Atoms>  (337) 
nan

$$$$
CHEMBL3909782
     RDKit          3D

  0  0  0  0  0  0  0  0  0  0999 V3000
M  V30 BEGIN CTAB
M  V30 COUNTS 41 45 0 0 0
M  V30 BEGIN ATOM
M  V30 1 N -0.131128 -4.971846 3.565349 0
M  V30 2 C 0.528823 -5.054326 2.611597 0
M  V30 3 C 1.362041 -5.145622 1.428451 0
M  V30 4 C 1.384334 -3.845303 0.708384 0
M  V30 5 C 0.467520 -3.541463 -0.271243 0
M  V30 6 C 0.511292 -2.327016 -0.923560 0
M  V30 7 C 1.476398 -1.353628 -0.627989 0
M  V30 8 N 1.600854 -0.102035 -1.251531 0
M  V30 9 C 2.386762 -0.039445 -2.344166 0
M  V30 10 N 2.397908 1.237068 -2.822464 0
M  V30 11 C 1.599238 1.985982 -2.006865 0
M  V30 12 C 1.277207 3.326130 -2.054659 0
M  V30 13 N 0.449743 3.748368 -1.081338 0
M  V30 14 C -0.034985 2.929985 -0.124525 0
M  V30 15 C -0.874689 3.475577 0.820787 0
M  V30 16 C -1.359296 2.617702 1.791731 0
M  V30 17 Cl -2.419522 3.344836 2.980163 0
M  V30 18 C -1.048078 1.274873 1.854877 0
M  V30 19 C -1.596474 0.425462 2.900893 0
M  V30 20 C -0.857222 -0.444753 3.620970 0
M  V30 21 C -1.378018 -1.231964 4.586784 0
M  V30 22 S -3.148796 -0.833847 4.635954 0
M  V30 23 C -3.000576 0.437205 3.259523 0
M  V30 24 C -0.205088 0.738137 0.902072 0
M  V30 25 C 0.277740 1.588603 -0.063624 0
M  V30 26 C 1.120341 1.128777 -1.043905 0
M  V30 27 C 2.365319 -1.752488 0.381145 0
M  V30 28 C 2.369200 -2.950031 1.065778 0
M  V30 29 H 0.898841 -5.890643 0.746078 0
M  V30 30 H 2.386077 -5.513911 1.635348 0
M  V30 31 H -0.300160 -4.264760 -0.535337 0
M  V30 32 H -0.196986 -2.056416 -1.700761 0
M  V30 33 H 2.991217 -0.768305 -2.902631 0
M  V30 34 H 1.676522 3.968944 -2.831504 0
M  V30 35 H -1.129210 4.531613 0.784249 0
M  V30 36 H 0.205224 -0.590774 3.493773 0
M  V30 37 H -1.036345 -1.965014 5.267667 0
M  V30 38 H -3.718414 1.190690 2.653802 0
M  V30 39 H -0.000437 -0.292209 0.997236 0
M  V30 40 H 3.126177 -1.012462 0.629745 0
M  V30 41 H 3.129480 -3.097737 1.818828 0
M  V30 END ATOM
M  V30 BEGIN BOND
M  V30 1 3 1 2
M  V30 2 1 2 3
M  V30 3 1 3 4
M  V30 4 2 4 5
M  V30 5 1 5 6
M  V30 6 2 6 7
M  V30 7 1 7 8
M  V30 8 1 8 9
M  V30 9 2 9 10
M  V30 10 1 10 11
M  V30 11 2 11 12
M  V30 12 1 12 13
M  V30 13 2 13 14
M  V30 14 1 14 15
M  V30 15 2 15 16
M  V30 16 1 16 17
M  V30 17 1 16 18
M  V30 18 1 18 19
M  V30 19 1 19 20
M  V30 20 2 20 21
M  V30 21 1 21 22
M  V30 22 1 22 23
M  V30 23 2 18 24
M  V30 24 1 24 25
M  V30 25 2 25 26
M  V30 26 1 7 27
M  V30 27 2 27 28
M  V30 28 1 28 4
M  V30 29 1 26 8
M  V30 30 1 26 11
M  V30 31 1 25 14
M  V30 32 2 23 19
M  V30 33 1 3 29
M  V30 34 1 3 30
M  V30 35 1 5 31
M  V30 36 1 6 32
M  V30 37 1 9 33
M  V30 38 1 12 34
M  V30 39 1 15 35
M  V30 40 1 20 36
M  V30 41 1 21 37
M  V30 42 1 23 38
M  V30 43 1 24 39
M  V30 44 1 27 40
M  V30 45 1 28 41
M  V30 END BOND
M  V30 END CTAB
M  END
>  <Dataset>  (338) 
ChEMBL_Kinases

>  <Ligand_Instance>  (338) 
nan

>  <PDB_ID>  (338) 
nan

>  <Standardized_SMILES>  (338) 
N#CCc1ccc(-n2cnc3cnc4cc(Cl)c(-c5ccsc5)cc4c32)cc1

>  <Name>  (338) 
nan

>  <Pocket>  (338) 
nan

>  <ATP_Site>  (338) 
nan

>  <Peripheral>  (338) 
nan

>  <Num_H_Atoms_ProtBoundConf>  (338) 
nan

>  <Num_Resolved_Atoms>  (338) 
nan

>  <Num_Not_Resolved_Atoms>  (338) 
nan

$$$$
CHEMBL3909328
     RDKit          3D

  0  0  0  0  0  0  0  0  0  0999 V3000
M  V30 BEGIN CTAB
M  V30 COUNTS 50 53 0 0 0
M  V30 BEGIN ATOM
M  V30 1 O 7.446920 -2.190314 3.063067 0
M  V30 2 C 6.528496 -1.723658 2.317096 0
M  V30 3 O 6.647774 -0.764534 3.283482 0
M  V30 4 C 6.042077 -2.407378 1.128441 0
M  V30 5 C 5.099786 -1.989056 0.306897 0
M  V30 6 C 4.472404 -0.724097 0.597451 0
M  V30 7 O 4.695678 0.062091 1.542208 0
M  V30 8 N 3.448031 -0.197583 -0.232952 0
M  V30 9 C 2.839672 1.067279 0.081258 0
M  V30 10 C 3.333996 2.250581 -0.403221 0
M  V30 11 C 2.683655 3.407051 -0.046947 0
M  V30 12 C 1.559486 3.347308 0.782190 0
M  V30 13 C 1.072956 2.136036 1.263797 0
M  V30 14 C -0.105944 2.253722 2.114826 0
M  V30 15 N -0.298027 3.146101 3.121740 0
M  V30 16 N -1.473483 2.960798 3.668473 0
M  V30 17 C -2.083605 1.943840 3.036507 0
M  V30 18 C -3.306738 1.325571 3.181977 0
M  V30 19 C -3.668463 0.278645 2.365545 0
M  V30 20 C -2.854056 -0.215117 1.368081 0
M  V30 21 N -3.306680 -1.296387 0.574168 0
M  V30 22 C -2.687902 -1.974243 -0.483292 0
M  V30 23 O -1.542949 -1.595977 -0.817439 0
M  V30 24 C -3.286371 -3.081805 -1.212823 0
M  V30 25 C -4.532095 -3.624275 -0.981010 0
M  V30 26 C -5.058888 -4.675983 -1.699026 0
M  V30 27 C -4.326489 -5.247348 -2.718818 0
M  V30 28 C -3.072067 -4.743921 -2.994711 0
M  V30 29 C -2.598791 -3.690610 -2.242042 0
M  V30 30 C -1.665387 0.430409 1.271077 0
M  V30 31 C -1.242935 1.477261 2.049689 0
M  V30 32 C 1.734377 0.985774 0.898791 0
M  V30 33 H 5.879209 -0.540596 3.927668 0
M  V30 34 H 6.517967 -3.339811 0.930300 0
M  V30 35 H 4.778553 -2.540213 -0.562151 0
M  V30 36 H 3.099268 -0.707395 -1.099918 0
M  V30 37 H 4.214564 2.182033 -1.040804 0
M  V30 38 H 3.075267 4.342233 -0.430465 0
M  V30 39 H 1.129869 4.318611 0.996102 0
M  V30 40 H -1.851335 3.522746 4.462346 0
M  V30 41 H -4.001405 1.654278 3.940875 0
M  V30 42 H -4.659638 -0.171921 2.533777 0
M  V30 43 H -4.263995 -1.681896 0.784768 0
M  V30 44 H -5.139840 -3.207459 -0.191742 0
M  V30 45 H -6.041837 -5.069899 -1.482391 0
M  V30 46 H -4.656330 -6.072883 -3.334111 0
M  V30 47 H -2.447637 -5.155455 -3.789148 0
M  V30 48 H -1.598469 -3.308327 -2.481072 0
M  V30 49 H -0.948709 0.128844 0.525049 0
M  V30 50 H 1.321581 0.075490 1.295699 0
M  V30 END ATOM
M  V30 BEGIN BOND
M  V30 1 2 1 2
M  V30 2 1 2 3
M  V30 3 1 2 4
M  V30 4 2 4 5
M  V30 5 1 5 6
M  V30 6 2 6 7
M  V30 7 1 6 8
M  V30 8 1 8 9
M  V30 9 2 9 10
M  V30 10 1 10 11
M  V30 11 2 11 12
M  V30 12 1 12 13
M  V30 13 1 13 14
M  V30 14 2 14 15
M  V30 15 1 15 16
M  V30 16 1 16 17
M  V30 17 2 17 18
M  V30 18 1 18 19
M  V30 19 2 19 20
M  V30 20 1 20 21
M  V30 21 1 21 22
M  V30 22 2 22 23
M  V30 23 1 22 24
M  V30 24 2 24 25
M  V30 25 1 25 26
M  V30 26 2 26 27
M  V30 27 1 27 28
M  V30 28 2 28 29
M  V30 29 1 20 30
M  V30 30 2 30 31
M  V30 31 2 13 32
M  V30 32 1 32 9
M  V30 33 1 31 14
M  V30 34 1 31 17
M  V30 35 1 29 24
M  V30 36 1 3 33
M  V30 37 1 4 34
M  V30 38 1 5 35
M  V30 39 1 8 36
M  V30 40 1 10 37
M  V30 41 1 11 38
M  V30 42 1 12 39
M  V30 43 1 16 40
M  V30 44 1 18 41
M  V30 45 1 19 42
M  V30 46 1 21 43
M  V30 47 1 25 44
M  V30 48 1 26 45
M  V30 49 1 27 46
M  V30 50 1 28 47
M  V30 51 1 29 48
M  V30 52 1 30 49
M  V30 53 1 32 50
M  V30 END BOND
M  V30 END CTAB
M  END
>  <Dataset>  (339) 
ChEMBL_Kinases

>  <Ligand_Instance>  (339) 
nan

>  <PDB_ID>  (339) 
nan

>  <Standardized_SMILES>  (339) 
O=C(O)/C=C\C(=O)Nc1cccc(-c2n[nH]c3ccc(NC(=O)c4ccccc4)cc23)c1

>  <Name>  (339) 
nan

>  <Pocket>  (339) 
nan

>  <ATP_Site>  (339) 
nan

>  <Peripheral>  (339) 
nan

>  <Num_H_Atoms_ProtBoundConf>  (339) 
nan

>  <Num_Resolved_Atoms>  (339) 
nan

>  <Num_Not_Resolved_Atoms>  (339) 
nan

$$$$
CHEMBL3890448
     RDKit          3D

  0  0  0  0  0  0  0  0  0  0999 V3000
M  V30 BEGIN CTAB
M  V30 COUNTS 49 52 0 0 0
M  V30 BEGIN ATOM
M  V30 1 N 2.628845 -8.728116 -1.610636 0
M  V30 2 C 1.452223 -8.033880 -1.153577 0
M  V30 3 O 0.414955 -8.631840 -0.794644 0
M  V30 4 C 1.511477 -6.560502 -1.121751 0
M  V30 5 C 2.645669 -5.870932 -1.512930 0
M  V30 6 C 2.754812 -4.498827 -1.503092 0
M  V30 7 C 1.665802 -3.763827 -1.076695 0
M  V30 8 N 1.558782 -2.427509 -0.988820 0
M  V30 9 C 0.306612 -2.221761 -0.521783 0
M  V30 10 C -0.245102 -0.889126 -0.270822 0
M  V30 11 C 0.541224 0.217547 -0.519163 0
M  V30 12 C -0.007346 1.458765 -0.272654 0
M  V30 13 C -1.301748 1.686628 0.210762 0
M  V30 14 C -1.915432 2.965892 0.484134 0
M  V30 15 O -1.580843 3.868178 -0.526419 0
M  V30 16 C -1.649530 3.621828 1.799140 0
M  V30 17 C -0.210959 3.923830 2.083490 0
M  V30 18 C 0.521187 2.926946 2.911041 0
M  V30 19 C -0.258119 2.728216 4.214667 0
M  V30 20 C -1.535195 2.008535 3.748739 0
M  V30 21 C -2.307867 3.029999 2.983210 0
M  V30 22 C -2.002542 0.491230 0.424459 0
M  V30 23 C -1.536631 -0.788957 0.206857 0
M  V30 24 N -0.309457 -3.403377 -0.338652 0
M  V30 25 C 0.523823 -4.425397 -0.681640 0
M  V30 26 C 0.459479 -5.806311 -0.708239 0
M  V30 27 H 3.500725 -8.946918 -1.045513 0
M  V30 28 H 3.139900 -8.670963 -0.712536 0
M  V30 29 H 3.511347 -6.422707 -1.850697 0
M  V30 30 H 3.688538 -4.017033 -1.828253 0
M  V30 31 H 2.289497 -1.723757 -1.231407 0
M  V30 32 H 1.552725 0.148152 -0.892954 0
M  V30 33 H 0.591798 2.337223 -0.461435 0
M  V30 34 H -3.035236 2.812204 0.354239 0
M  V30 35 H -1.885089 4.764249 -0.275411 0
M  V30 36 H -2.127294 4.657680 1.683951 0
M  V30 37 H -0.139821 4.904153 2.639402 0
M  V30 38 H 0.332832 4.123451 1.110810 0
M  V30 39 H 0.618503 1.923182 2.478326 0
M  V30 40 H 1.514420 3.363783 3.143786 0
M  V30 41 H 0.266751 2.023667 4.871029 0
M  V30 42 H -0.495909 3.689441 4.694482 0
M  V30 43 H -2.145011 1.658199 4.578575 0
M  V30 44 H -1.190774 1.141746 3.171658 0
M  V30 45 H -3.358186 2.688745 2.787646 0
M  V30 46 H -2.471599 3.868179 3.727831 0
M  V30 47 H -3.031004 0.591342 0.805585 0
M  V30 48 H -2.188560 -1.625239 0.415691 0
M  V30 49 H -0.469770 -6.273465 -0.384190 0
M  V30 END ATOM
M  V30 BEGIN BOND
M  V30 1 1 1 2
M  V30 2 2 2 3
M  V30 3 1 2 4
M  V30 4 2 4 5
M  V30 5 1 5 6
M  V30 6 2 6 7
M  V30 7 1 7 8
M  V30 8 1 8 9
M  V30 9 1 9 10
M  V30 10 2 10 11
M  V30 11 1 11 12
M  V30 12 2 12 13
M  V30 13 1 13 14
M  V30 14 1 14 15
M  V30 15 1 14 16
M  V30 16 1 16 17
M  V30 17 1 17 18
M  V30 18 1 18 19
M  V30 19 1 19 20
M  V30 20 1 20 21
M  V30 21 1 13 22
M  V30 22 2 22 23
M  V30 23 2 9 24
M  V30 24 1 24 25
M  V30 25 2 25 26
M  V30 26 1 26 4
M  V30 27 1 25 7
M  V30 28 1 23 10
M  V30 29 1 21 16
M  V30 30 1 1 27
M  V30 31 1 1 28
M  V30 32 1 5 29
M  V30 33 1 6 30
M  V30 34 1 8 31
M  V30 35 1 11 32
M  V30 36 1 12 33
M  V30 37 1 14 34
M  V30 38 1 15 35
M  V30 39 1 16 36
M  V30 40 1 17 37
M  V30 41 1 17 38
M  V30 42 1 18 39
M  V30 43 1 18 40
M  V30 44 1 19 41
M  V30 45 1 19 42
M  V30 46 1 20 43
M  V30 47 1 20 44
M  V30 48 1 21 45
M  V30 49 1 21 46
M  V30 50 1 22 47
M  V30 51 1 23 48
M  V30 52 1 26 49
M  V30 END BOND
M  V30 END CTAB
M  END
>  <Dataset>  (340) 
ChEMBL_Kinases

>  <Ligand_Instance>  (340) 
nan

>  <PDB_ID>  (340) 
nan

>  <Standardized_SMILES>  (340) 
NC(=O)c1ccc2[nH]c(-c3ccc(C(O)C4CCCCC4)cc3)nc2c1

>  <Name>  (340) 
nan

>  <Pocket>  (340) 
nan

>  <ATP_Site>  (340) 
nan

>  <Peripheral>  (340) 
nan

>  <Num_H_Atoms_ProtBoundConf>  (340) 
nan

>  <Num_Resolved_Atoms>  (340) 
nan

>  <Num_Not_Resolved_Atoms>  (340) 
nan

$$$$
CHEMBL3890427
     RDKit          3D

  0  0  0  0  0  0  0  0  0  0999 V3000
M  V30 BEGIN CTAB
M  V30 COUNTS 57 60 0 0 0
M  V30 BEGIN ATOM
M  V30 1 C 1.965430 -0.314948 6.020460 0
M  V30 2 O 1.934309 -0.043919 4.754372 0
M  V30 3 C 2.020360 0.200616 3.487326 0
M  V30 4 C 3.310632 0.015173 2.983452 0
M  V30 5 C 3.615421 0.228880 1.634442 0
M  V30 6 C 4.944879 0.043744 1.069829 0
M  V30 7 N 6.150413 0.453494 1.551561 0
M  V30 8 N 7.067180 0.046320 0.684786 0
M  V30 9 C 6.512262 -0.604007 -0.329484 0
M  V30 10 N 5.165362 -0.616789 -0.103820 0
M  V30 11 C 4.211305 -1.250190 -1.015718 0
M  V30 12 C 2.580052 0.632983 0.821823 0
M  V30 13 C 1.311675 0.813019 1.328410 0
M  V30 14 C 0.995020 0.603700 2.666450 0
M  V30 15 N -0.318029 0.776597 3.187354 0
M  V30 16 C -1.288297 1.220114 2.241266 0
M  V30 17 N -1.705775 2.500973 2.026120 0
M  V30 18 C -2.617330 2.788902 1.086812 0
M  V30 19 C -3.178863 1.801492 0.289977 0
M  V30 20 C -4.110240 2.111413 -0.675729 0
M  V30 21 C -4.593643 1.054671 -1.409597 0
M  V30 22 N -4.147479 -0.180864 -1.154955 0
M  V30 23 C -3.243652 -0.517268 -0.224578 0
M  V30 24 N -2.877614 -1.876630 -0.051888 0
M  V30 25 C -3.239271 -3.111825 -0.701799 0
M  V30 26 C -2.719448 -3.304903 -2.075758 0
M  V30 27 C -1.190622 -3.258345 -1.987082 0
M  V30 28 C -3.111254 -2.310992 -3.107777 0
M  V30 29 C -3.068037 -4.712028 -2.548679 0
M  V30 30 C -2.726227 0.530113 0.545344 0
M  V30 31 N -1.815081 0.225769 1.481450 0
M  V30 32 H 1.171624 -1.071465 6.348181 0
M  V30 33 H 2.916675 -0.888299 6.290320 0
M  V30 34 H 1.947507 0.539051 6.761926 0
M  V30 35 H 4.184108 -0.302508 3.556780 0
M  V30 36 H 6.998156 -1.052247 -1.187606 0
M  V30 37 H 3.261420 -1.496416 -0.485804 0
M  V30 38 H 4.691745 -2.125432 -1.498263 0
M  V30 39 H 3.960667 -0.503981 -1.803338 0
M  V30 40 H 2.703346 0.824908 -0.226487 0
M  V30 41 H 0.494843 1.134592 0.669958 0
M  V30 42 H -0.490344 0.576404 4.194832 0
M  V30 43 H -2.929141 3.802779 0.937375 0
M  V30 44 H -4.447862 3.122550 -0.854506 0
M  V30 45 H -5.331911 1.178061 -2.198395 0
M  V30 46 H -2.173113 -1.985059 0.744230 0
M  V30 47 H -2.874507 -3.981376 -0.089459 0
M  V30 48 H -4.368906 -3.259833 -0.667632 0
M  V30 49 H -0.873243 -4.005936 -1.222664 0
M  V30 50 H -0.731459 -3.453293 -2.983241 0
M  V30 51 H -0.923674 -2.225243 -1.680380 0
M  V30 52 H -4.169719 -2.061301 -3.161462 0
M  V30 53 H -2.516570 -1.374124 -3.024835 0
M  V30 54 H -2.862929 -2.683701 -4.156693 0
M  V30 55 H -2.406660 -4.991881 -3.394672 0
M  V30 56 H -4.099474 -4.751472 -2.932216 0
M  V30 57 H -2.902006 -5.423793 -1.719230 0
M  V30 END ATOM
M  V30 BEGIN BOND
M  V30 1 1 1 2
M  V30 2 1 2 3
M  V30 3 2 3 4
M  V30 4 1 4 5
M  V30 5 1 5 6
M  V30 6 2 6 7
M  V30 7 1 7 8
M  V30 8 2 8 9
M  V30 9 1 9 10
M  V30 10 1 10 11
M  V30 11 2 5 12
M  V30 12 1 12 13
M  V30 13 2 13 14
M  V30 14 1 14 15
M  V30 15 1 15 16
M  V30 16 2 16 17
M  V30 17 1 17 18
M  V30 18 2 18 19
M  V30 19 1 19 20
M  V30 20 2 20 21
M  V30 21 1 21 22
M  V30 22 2 22 23
M  V30 23 1 23 24
M  V30 24 1 24 25
M  V30 25 1 25 26
M  V30 26 1 26 27
M  V30 27 1 26 28
M  V30 28 1 26 29
M  V30 29 1 23 30
M  V30 30 2 30 31
M  V30 31 1 14 3
M  V30 32 1 31 16
M  V30 33 1 10 6
M  V30 34 1 30 19
M  V30 35 1 1 32
M  V30 36 1 1 33
M  V30 37 1 1 34
M  V30 38 1 4 35
M  V30 39 1 9 36
M  V30 40 1 11 37
M  V30 41 1 11 38
M  V30 42 1 11 39
M  V30 43 1 12 40
M  V30 44 1 13 41
M  V30 45 1 15 42
M  V30 46 1 18 43
M  V30 47 1 20 44
M  V30 48 1 21 45
M  V30 49 1 24 46
M  V30 50 1 25 47
M  V30 51 1 25 48
M  V30 52 1 27 49
M  V30 53 1 27 50
M  V30 54 1 27 51
M  V30 55 1 28 52
M  V30 56 1 28 53
M  V30 57 1 28 54
M  V30 58 1 29 55
M  V30 59 1 29 56
M  V30 60 1 29 57
M  V30 END BOND
M  V30 END CTAB
M  END
>  <Dataset>  (341) 
ChEMBL_Kinases

>  <Ligand_Instance>  (341) 
nan

>  <PDB_ID>  (341) 
nan

>  <Standardized_SMILES>  (341) 
COc1cc(-c2nncn2C)ccc1Nc1ncc2ccnc(NCC(C)(C)C)c2n1

>  <Name>  (341) 
nan

>  <Pocket>  (341) 
nan

>  <ATP_Site>  (341) 
nan

>  <Peripheral>  (341) 
nan

>  <Num_H_Atoms_ProtBoundConf>  (341) 
nan

>  <Num_Resolved_Atoms>  (341) 
nan

>  <Num_Not_Resolved_Atoms>  (341) 
nan

$$$$
CHEMBL3909860
     RDKit          3D

  0  0  0  0  0  0  0  0  0  0999 V3000
M  V30 BEGIN CTAB
M  V30 COUNTS 47 51 0 0 0
M  V30 BEGIN ATOM
M  V30 1 N 5.908179 -1.934209 7.456557 0
M  V30 2 C 6.323000 -0.633353 6.979898 0
M  V30 3 O 7.376710 -0.004483 7.349518 0
M  V30 4 C 5.385004 -0.055878 5.991631 0
M  V30 5 C 5.109405 1.312971 6.060002 0
M  V30 6 C 4.226801 1.867639 5.141847 0
M  V30 7 C 3.593887 1.156178 4.151561 0
M  V30 8 N 2.718144 1.332440 3.142306 0
M  V30 9 C 2.464637 0.186242 2.489824 0
M  V30 10 C 1.557650 -0.050944 1.377888 0
M  V30 11 C 0.704022 0.930320 0.923097 0
M  V30 12 C -0.106057 0.618981 -0.133062 0
M  V30 13 C -0.195734 -0.565049 -0.822293 0
M  V30 14 C -1.050014 -1.033667 -1.884971 0
M  V30 15 O -0.452794 -1.871380 -2.657663 0
M  V30 16 C -2.435624 -0.725161 -2.211242 0
M  V30 17 C -3.270779 0.340325 -1.850136 0
M  V30 18 C -4.550005 0.415528 -2.271731 0
M  V30 19 C -5.182718 -0.491184 -3.071232 0
M  V30 20 C -6.468358 -0.448035 -3.520041 0
M  V30 21 C -7.058525 -1.387925 -4.330402 0
M  V30 22 C -6.251555 -2.453319 -4.702049 0
M  V30 23 C -4.918882 -2.563702 -4.277472 0
M  V30 24 C -4.384817 -1.568595 -3.453712 0
M  V30 25 C -3.077709 -1.667767 -3.037026 0
M  V30 26 C 0.712619 -1.503182 -0.285678 0
M  V30 27 C 1.565353 -1.286198 0.768513 0
M  V30 28 N 3.210608 -0.766529 3.110172 0
M  V30 29 C 3.889072 -0.188181 4.110533 0
M  V30 30 C 4.749411 -0.766939 4.996627 0
M  V30 31 H 5.799764 -2.975432 7.513543 0
M  V30 32 H 5.451773 -1.355240 8.220878 0
M  V30 33 H 5.586422 1.919044 6.837368 0
M  V30 34 H 3.985647 2.938605 5.171902 0
M  V30 35 H 2.314782 2.276050 2.936500 0
M  V30 36 H 0.668652 1.911498 1.375187 0
M  V30 37 H -0.741585 1.409724 -0.471642 0
M  V30 38 H -2.817794 1.062477 -1.228443 0
M  V30 39 H -5.147064 1.262171 -1.964563 0
M  V30 40 H -7.057380 0.401677 -3.202257 0
M  V30 41 H -8.068841 -1.375836 -4.697837 0
M  V30 42 H -6.626128 -3.242270 -5.337749 0
M  V30 43 H -4.333602 -3.428856 -4.603391 0
M  V30 44 H -2.567683 -2.551115 -3.407455 0
M  V30 45 H 0.763378 -2.511348 -0.732100 0
M  V30 46 H 2.225716 -2.068379 1.111420 0
M  V30 47 H 5.063097 -1.811983 5.058970 0
M  V30 END ATOM
M  V30 BEGIN BOND
M  V30 1 1 1 2
M  V30 2 2 2 3
M  V30 3 1 2 4
M  V30 4 2 4 5
M  V30 5 1 5 6
M  V30 6 2 6 7
M  V30 7 1 7 8
M  V30 8 1 8 9
M  V30 9 1 9 10
M  V30 10 2 10 11
M  V30 11 1 11 12
M  V30 12 2 12 13
M  V30 13 1 13 14
M  V30 14 2 14 15
M  V30 15 1 14 16
M  V30 16 2 16 17
M  V30 17 1 17 18
M  V30 18 2 18 19
M  V30 19 1 19 20
M  V30 20 2 20 21
M  V30 21 1 21 22
M  V30 22 2 22 23
M  V30 23 1 23 24
M  V30 24 2 24 25
M  V30 25 1 13 26
M  V30 26 2 26 27
M  V30 27 2 9 28
M  V30 28 1 28 29
M  V30 29 2 29 30
M  V30 30 1 30 4
M  V30 31 1 29 7
M  V30 32 1 27 10
M  V30 33 1 25 16
M  V30 34 1 24 19
M  V30 35 1 1 31
M  V30 36 1 1 32
M  V30 37 1 5 33
M  V30 38 1 6 34
M  V30 39 1 8 35
M  V30 40 1 11 36
M  V30 41 1 12 37
M  V30 42 1 17 38
M  V30 43 1 18 39
M  V30 44 1 20 40
M  V30 45 1 21 41
M  V30 46 1 22 42
M  V30 47 1 23 43
M  V30 48 1 25 44
M  V30 49 1 26 45
M  V30 50 1 27 46
M  V30 51 1 30 47
M  V30 END BOND
M  V30 END CTAB
M  END
>  <Dataset>  (342) 
ChEMBL_Kinases

>  <Ligand_Instance>  (342) 
nan

>  <PDB_ID>  (342) 
nan

>  <Standardized_SMILES>  (342) 
NC(=O)c1ccc2[nH]c(-c3ccc(C(=O)c4ccc5ccccc5c4)cc3)nc2c1

>  <Name>  (342) 
nan

>  <Pocket>  (342) 
nan

>  <ATP_Site>  (342) 
nan

>  <Peripheral>  (342) 
nan

>  <Num_H_Atoms_ProtBoundConf>  (342) 
nan

>  <Num_Resolved_Atoms>  (342) 
nan

>  <Num_Not_Resolved_Atoms>  (342) 
nan

$$$$
CHEMBL601921
     RDKit          3D

  0  0  0  0  0  0  0  0  0  0999 V3000
M  V30 BEGIN CTAB
M  V30 COUNTS 50 54 0 0 0
M  V30 BEGIN ATOM
M  V30 1 N 5.606435 -0.246595 4.469683 0
M  V30 2 C 5.391748 -0.702073 3.143792 0
M  V30 3 O 6.355608 -1.156107 2.457925 0
M  V30 4 C 4.037135 -0.644093 2.566034 0
M  V30 5 N 2.936016 -0.183442 3.200565 0
M  V30 6 N 1.866715 -0.259464 2.416291 0
M  V30 7 C 0.595353 0.169893 2.873814 0
M  V30 8 C 0.102108 1.474890 2.735791 0
M  V30 9 C -1.149362 1.802612 3.225587 0
M  V30 10 C -1.959232 0.860687 3.867433 0
M  V30 11 F -3.186115 1.181838 4.347543 0
M  V30 12 C -1.515598 -0.447907 4.029567 0
M  V30 13 C -0.265170 -0.723250 3.525542 0
M  V30 14 C 2.294863 -0.778423 1.260371 0
M  V30 15 C 3.644024 -1.035676 1.304901 0
M  V30 16 C 4.488766 -1.601271 0.251246 0
M  V30 17 C 3.772089 -1.931573 -1.030304 0
M  V30 18 C 2.342950 -1.624808 -0.982917 0
M  V30 19 C 1.676711 -1.928947 -2.160620 0
M  V30 20 C 0.317580 -1.705935 -2.301944 0
M  V30 21 C -0.436139 -1.163251 -1.256971 0
M  V30 22 N -1.831337 -0.948091 -1.439358 0
M  V30 23 C -2.572094 0.166765 -1.925902 0
M  V30 24 O -1.745440 1.072906 -2.220472 0
M  V30 25 C -3.989338 -0.181650 -1.890308 0
M  V30 26 C -4.811341 0.597066 -1.092394 0
M  V30 27 C -6.158580 0.326348 -1.011438 0
M  V30 28 C -6.593758 -0.745469 -1.765912 0
M  V30 29 N -5.780130 -1.487850 -2.533169 0
M  V30 30 C -4.456425 -1.246421 -2.632177 0
M  V30 31 Cl -3.393772 -2.213739 -3.632113 0
M  V30 32 C 0.235184 -0.862521 -0.085578 0
M  V30 33 C 1.584029 -1.091163 0.035022 0
M  V30 34 H 6.003168 0.725523 4.603091 0
M  V30 35 H 5.380484 -0.851689 5.303536 0
M  V30 36 H 0.738266 2.194358 2.237292 0
M  V30 37 H -1.538843 2.801455 3.125534 0
M  V30 38 H -2.072514 -1.236622 4.510580 0
M  V30 39 H 0.111354 -1.742888 3.637612 0
M  V30 40 H 4.965853 -2.545912 0.629617 0
M  V30 41 H 5.340157 -0.917729 -0.013308 0
M  V30 42 H 3.921134 -3.019867 -1.259361 0
M  V30 43 H 4.187846 -1.321304 -1.889237 0
M  V30 44 H 2.147402 -2.357238 -3.053282 0
M  V30 45 H -0.212396 -1.942613 -3.224797 0
M  V30 46 H -2.139162 -1.890207 -1.094176 0
M  V30 47 H -4.450868 1.438722 -0.504015 0
M  V30 48 H -6.896798 0.851020 -0.433301 0
M  V30 49 H -7.611674 -1.116825 -1.837039 0
M  V30 50 H -0.375369 -0.452904 0.680989 0
M  V30 END ATOM
M  V30 BEGIN BOND
M  V30 1 1 1 2
M  V30 2 2 2 3
M  V30 3 1 2 4
M  V30 4 2 4 5
M  V30 5 1 5 6
M  V30 6 1 6 7
M  V30 7 2 7 8
M  V30 8 1 8 9
M  V30 9 2 9 10
M  V30 10 1 10 11
M  V30 11 1 10 12
M  V30 12 2 12 13
M  V30 13 1 6 14
M  V30 14 2 14 15
M  V30 15 1 15 16
M  V30 16 1 16 17
M  V30 17 1 17 18
M  V30 18 2 18 19
M  V30 19 1 19 20
M  V30 20 2 20 21
M  V30 21 1 21 22
M  V30 22 1 22 23
M  V30 23 2 23 24
M  V30 24 1 23 25
M  V30 25 2 25 26
M  V30 26 1 26 27
M  V30 27 2 27 28
M  V30 28 1 28 29
M  V30 29 2 29 30
M  V30 30 1 30 31
M  V30 31 1 21 32
M  V30 32 2 32 33
M  V30 33 1 15 4
M  V30 34 1 33 18
M  V30 35 1 13 7
M  V30 36 1 33 14
M  V30 37 1 30 25
M  V30 38 1 1 34
M  V30 39 1 1 35
M  V30 40 1 8 36
M  V30 41 1 9 37
M  V30 42 1 12 38
M  V30 43 1 13 39
M  V30 44 1 16 40
M  V30 45 1 16 41
M  V30 46 1 17 42
M  V30 47 1 17 43
M  V30 48 1 19 44
M  V30 49 1 20 45
M  V30 50 1 22 46
M  V30 51 1 26 47
M  V30 52 1 27 48
M  V30 53 1 28 49
M  V30 54 1 32 50
M  V30 END BOND
M  V30 END CTAB
M  END
>  <Dataset>  (343) 
ChEMBL_Kinases

>  <Ligand_Instance>  (343) 
nan

>  <PDB_ID>  (343) 
nan

>  <Standardized_SMILES>  (343) 
NC(=O)c1nn(-c2ccc(F)cc2)c2c1CCc1ccc(NC(=O)c3cccnc3Cl)cc1-2

>  <Name>  (343) 
nan

>  <Pocket>  (343) 
nan

>  <ATP_Site>  (343) 
nan

>  <Peripheral>  (343) 
nan

>  <Num_H_Atoms_ProtBoundConf>  (343) 
nan

>  <Num_Resolved_Atoms>  (343) 
nan

>  <Num_Not_Resolved_Atoms>  (343) 
nan

$$$$
CHEMBL4878479
     RDKit          3D

  0  0  0  0  0  0  0  0  0  0999 V3000
M  V30 BEGIN CTAB
M  V30 COUNTS 64 69 0 0 0
M  V30 BEGIN ATOM
M  V30 1 C 4.340148 -0.425910 4.802909 0
M  V30 2 C 4.281928 -1.751191 4.069342 0
M  V30 3 N 4.094572 -1.499805 2.652719 0
M  V30 4 C 5.085630 -1.332713 1.736024 0
M  V30 5 O 6.334150 -1.359682 1.915428 0
M  V30 6 C 4.483168 -1.118994 0.521787 0
M  V30 7 C 4.931552 -0.889101 -0.759826 0
M  V30 8 N 4.024380 -0.720359 -1.728145 0
M  V30 9 C 2.704092 -0.754465 -1.565998 0
M  V30 10 N 1.828820 -0.562030 -2.666696 0
M  V30 11 C 0.432236 -0.563689 -2.688513 0
M  V30 12 C -0.264828 -0.355550 -3.873009 0
M  V30 13 C -1.636537 -0.347832 -3.946951 0
M  V30 14 C -2.409391 -0.550782 -2.824392 0
M  V30 15 C -1.769063 -0.762072 -1.623464 0
M  V30 16 C -0.398593 -0.759432 -1.607717 0
M  V30 17 C -2.590331 -0.982329 -0.405156 0
M  V30 18 C -3.991499 -1.433920 -0.754961 0
M  V30 19 N -4.549962 -0.523182 -1.710226 0
M  V30 20 C -3.874634 -0.530605 -2.970992 0
M  V30 21 C -4.348447 0.704106 -3.727816 0
M  V30 22 C -4.271778 -1.745708 -3.785649 0
M  V30 23 N 2.324097 -0.980972 -0.301882 0
M  V30 24 C 3.126227 -1.164253 0.745783 0
M  V30 25 N 2.929545 -1.398487 2.057446 0
M  V30 26 C 1.600136 -1.499810 2.597122 0
M  V30 27 C 1.009627 -2.655073 3.072203 0
M  V30 28 C -0.278927 -2.539532 3.549988 0
M  V30 29 C -0.948018 -1.335398 3.555536 0
M  V30 30 C -0.319226 -0.205386 3.070883 0
M  V30 31 C -0.982358 1.143900 3.043356 0
M  V30 32 C -0.564932 2.047996 1.945459 0
M  V30 33 N -0.241692 2.746907 1.069539 0
M  V30 34 C -2.349305 1.326047 3.537630 0
M  V30 35 C -1.214721 1.866369 4.337017 0
M  V30 36 N 0.938009 -0.305504 2.602038 0
M  V30 37 H 3.317525 -0.110603 5.145085 0
M  V30 38 H 4.716579 0.324253 4.087035 0
M  V30 39 H 4.957664 -0.511478 5.723153 0
M  V30 40 H 3.391189 -2.291852 4.456457 0
M  V30 41 H 5.176441 -2.363629 4.266298 0
M  V30 42 H 5.993285 -0.847819 -0.968067 0
M  V30 43 H 2.304576 -0.393689 -3.601858 0
M  V30 44 H 0.298019 -0.188226 -4.800179 0
M  V30 45 H -2.099811 -0.177002 -4.916689 0
M  V30 46 H 0.023843 -0.930087 -0.639907 0
M  V30 47 H -2.716237 0.021522 0.071218 0
M  V30 48 H -2.108305 -1.706440 0.271912 0
M  V30 49 H -4.593387 -1.376893 0.176319 0
M  V30 50 H -3.947502 -2.489370 -1.147838 0
M  V30 51 H -5.542648 -0.822621 -1.875695 0
M  V30 52 H -5.437164 0.593473 -3.858451 0
M  V30 53 H -4.158070 1.628253 -3.138138 0
M  V30 54 H -3.895491 0.772834 -4.729684 0
M  V30 55 H -4.292843 -1.443617 -4.845242 0
M  V30 56 H -5.239415 -2.145478 -3.428500 0
M  V30 57 H -3.475712 -2.530058 -3.694319 0
M  V30 58 H 1.606440 -3.538148 3.026772 0
M  V30 59 H -0.743235 -3.446113 3.923154 0
M  V30 60 H -1.941097 -1.271152 3.929015 0
M  V30 61 H -3.019364 2.071369 3.060170 0
M  V30 62 H -2.919649 0.518160 4.030334 0
M  V30 63 H -0.889300 1.329424 5.263437 0
M  V30 64 H -1.019942 2.958048 4.407109 0
M  V30 END ATOM
M  V30 BEGIN BOND
M  V30 1 1 1 2
M  V30 2 1 2 3
M  V30 3 1 3 4
M  V30 4 2 4 5
M  V30 5 1 4 6
M  V30 6 2 6 7
M  V30 7 1 7 8
M  V30 8 2 8 9
M  V30 9 1 9 10
M  V30 10 1 10 11
M  V30 11 2 11 12
M  V30 12 1 12 13
M  V30 13 2 13 14
M  V30 14 1 14 15
M  V30 15 2 15 16
M  V30 16 1 15 17
M  V30 17 1 17 18
M  V30 18 1 18 19
M  V30 19 1 19 20
M  V30 20 1 20 21
M  V30 21 1 20 22
M  V30 22 1 9 23
M  V30 23 2 23 24
M  V30 24 1 24 25
M  V30 25 1 25 26
M  V30 26 2 26 27
M  V30 27 1 27 28
M  V30 28 2 28 29
M  V30 29 1 29 30
M  V30 30 1 30 31
M  V30 31 1 31 32
M  V30 32 3 32 33
M  V30 33 1 31 34
M  V30 34 1 34 35
M  V30 35 2 30 36
M  V30 36 1 25 3
M  V30 37 1 36 26
M  V30 38 1 24 6
M  V30 39 1 35 31
M  V30 40 1 16 11
M  V30 41 1 20 14
M  V30 42 1 1 37
M  V30 43 1 1 38
M  V30 44 1 1 39
M  V30 45 1 2 40
M  V30 46 1 2 41
M  V30 47 1 7 42
M  V30 48 1 10 43
M  V30 49 1 12 44
M  V30 50 1 13 45
M  V30 51 1 16 46
M  V30 52 1 17 47
M  V30 53 1 17 48
M  V30 54 1 18 49
M  V30 55 1 18 50
M  V30 56 1 19 51
M  V30 57 1 21 52
M  V30 58 1 21 53
M  V30 59 1 21 54
M  V30 60 1 22 55
M  V30 61 1 22 56
M  V30 62 1 22 57
M  V30 63 1 27 58
M  V30 64 1 28 59
M  V30 65 1 29 60
M  V30 66 1 34 61
M  V30 67 1 34 62
M  V30 68 1 35 63
M  V30 69 1 35 64
M  V30 END BOND
M  V30 END CTAB
M  END
>  <Dataset>  (344) 
ChEMBL_Kinases

>  <Ligand_Instance>  (344) 
nan

>  <PDB_ID>  (344) 
nan

>  <Standardized_SMILES>  (344) 
CCn1c(=O)c2cnc(Nc3ccc4c(c3)CCNC4(C)C)nc2n1-c1cccc(C2(C#N)CC2)n1

>  <Name>  (344) 
nan

>  <Pocket>  (344) 
nan

>  <ATP_Site>  (344) 
nan

>  <Peripheral>  (344) 
nan

>  <Num_H_Atoms_ProtBoundConf>  (344) 
nan

>  <Num_Resolved_Atoms>  (344) 
nan

>  <Num_Not_Resolved_Atoms>  (344) 
nan

$$$$
CHEMBL3889916
     RDKit          3D

  0  0  0  0  0  0  0  0  0  0999 V3000
M  V30 BEGIN CTAB
M  V30 COUNTS 58 62 0 0 0
M  V30 BEGIN ATOM
M  V30 1 C -1.172088 -1.983496 5.060542 0
M  V30 2 C -1.037826 -0.912300 4.038465 0
M  V30 3 C -0.178237 0.132433 4.308392 0
M  V30 4 C -0.022865 1.148501 3.388685 0
M  V30 5 N 0.883405 2.189917 3.732085 0
M  V30 6 C 0.543860 3.330392 4.473506 0
M  V30 7 C -0.678881 3.639655 4.989851 0
M  V30 8 C -0.456728 4.866205 5.625952 0
M  V30 9 N 0.832274 5.239935 5.479711 0
M  V30 10 N 1.433843 4.299437 4.776864 0
M  V30 11 N -0.734120 1.076299 2.237429 0
M  V30 12 C -1.566044 0.085492 1.951522 0
M  V30 13 C -2.330536 0.045844 0.654910 0
M  V30 14 C -1.498715 -0.698797 -0.398179 0 CFG=2
M  V30 15 C -0.232007 0.111915 -0.509798 0
M  V30 16 N 0.865518 -0.105578 0.258846 0
M  V30 17 N 1.751728 0.783005 -0.121252 0
M  V30 18 C 1.199641 1.518175 -1.096844 0
M  V30 19 O 1.743546 2.478252 -1.721257 0
M  V30 20 O -0.026314 1.119135 -1.351658 0
M  V30 21 C -2.196564 -0.613988 -1.737476 0
M  V30 22 C -1.448089 -1.384003 -2.804745 0
M  V30 23 C -0.611744 -2.494210 -2.187355 0 CFG=2
M  V30 24 O -0.193278 -3.446665 -3.079923 0
M  V30 25 C 1.072485 -3.828366 -3.438160 0
M  V30 26 C 0.993005 -4.839536 -4.384621 0
M  V30 27 C 2.134156 -5.430768 -4.939116 0
M  V30 28 C 3.400743 -5.019894 -4.555493 0
M  V30 29 C 3.472657 -4.016470 -3.616095 0
M  V30 30 Cl 4.996981 -3.361875 -3.003903 0
M  V30 31 C 2.345444 -3.449039 -3.084165 0
M  V30 32 F 2.378530 -2.463765 -2.162146 0
M  V30 33 C -1.465244 -3.030672 -1.059339 0
M  V30 34 C -1.267923 -2.079628 0.096195 0
M  V30 35 N -1.691860 -0.897001 2.883952 0
M  V30 36 H -0.503171 -2.803823 4.712838 0
M  V30 37 H -0.793085 -1.651262 6.031515 0
M  V30 38 H -2.202173 -2.388818 5.101724 0
M  V30 39 H 0.366456 0.149175 5.235183 0
M  V30 40 H 1.836593 1.991287 3.357735 0
M  V30 41 H -1.596528 3.092521 4.934393 0
M  V30 42 H -1.169521 5.464138 6.165198 0
M  V30 43 H 1.254332 6.133679 5.870564 0
M  V30 44 H -3.258015 -0.528753 0.824459 0
M  V30 45 H -2.609769 1.061033 0.324258 0
M  V30 46 H 2.733828 0.971619 0.207602 0
M  V30 47 H -3.265202 -0.924177 -1.674658 0
M  V30 48 H -2.209049 0.449675 -2.046748 0
M  V30 49 H -2.187427 -1.862533 -3.465703 0
M  V30 50 H -0.846469 -0.681736 -3.411424 0
M  V30 51 H 0.251421 -1.977689 -1.730711 0
M  V30 52 H 0.113720 -5.301314 -4.816457 0
M  V30 53 H 2.147973 -6.217083 -5.675505 0
M  V30 54 H 4.311518 -5.431705 -4.940874 0
M  V30 55 H -2.522609 -2.988416 -1.365726 0
M  V30 56 H -1.235164 -4.081395 -0.813916 0
M  V30 57 H -1.921153 -2.398108 0.926774 0
M  V30 58 H -0.190654 -2.122709 0.431367 0
M  V30 END ATOM
M  V30 BEGIN BOND
M  V30 1 1 1 2
M  V30 2 2 2 3
M  V30 3 1 3 4
M  V30 4 1 4 5
M  V30 5 1 5 6
M  V30 6 1 6 7
M  V30 7 2 7 8
M  V30 8 1 8 9
M  V30 9 1 9 10
M  V30 10 2 4 11
M  V30 11 1 11 12
M  V30 12 1 12 13
M  V30 13 1 14 13 CFG=1
M  V30 14 1 14 15
M  V30 15 2 15 16
M  V30 16 1 16 17
M  V30 17 1 17 18
M  V30 18 2 18 19
M  V30 19 1 18 20
M  V30 20 1 14 21
M  V30 21 1 21 22
M  V30 22 1 22 23
M  V30 23 1 23 24
M  V30 24 1 24 25
M  V30 25 2 25 26
M  V30 26 1 26 27
M  V30 27 2 27 28
M  V30 28 1 28 29
M  V30 29 1 29 30
M  V30 30 2 29 31
M  V30 31 1 31 32
M  V30 32 1 23 33
M  V30 33 1 33 34
M  V30 34 2 12 35
M  V30 35 1 35 2
M  V30 36 2 10 6
M  V30 37 1 34 14
M  V30 38 1 20 15
M  V30 39 1 31 25
M  V30 40 1 1 36
M  V30 41 1 1 37
M  V30 42 1 1 38
M  V30 43 1 3 39
M  V30 44 1 5 40
M  V30 45 1 7 41
M  V30 46 1 8 42
M  V30 47 1 9 43
M  V30 48 1 13 44
M  V30 49 1 13 45
M  V30 50 1 17 46
M  V30 51 1 21 47
M  V30 52 1 21 48
M  V30 53 1 22 49
M  V30 54 1 22 50
M  V30 55 1 23 51 CFG=1
M  V30 56 1 26 52
M  V30 57 1 27 53
M  V30 58 1 28 54
M  V30 59 1 33 55
M  V30 60 1 33 56
M  V30 61 1 34 57
M  V30 62 1 34 58
M  V30 END BOND
M  V30 END CTAB
M  END
>  <Dataset>  (345) 
ChEMBL_Kinases

>  <Ligand_Instance>  (345) 
nan

>  <PDB_ID>  (345) 
nan

>  <Standardized_SMILES>  (345) 
Cc1cc(Nc2cc[nH]n2)nc(C[C@]2(c3n[nH]c(=O)o3)CC[C@H](Oc3cccc(Cl)c3F)CC2)n1

>  <Name>  (345) 
nan

>  <Pocket>  (345) 
nan

>  <ATP_Site>  (345) 
nan

>  <Peripheral>  (345) 
nan

>  <Num_H_Atoms_ProtBoundConf>  (345) 
nan

>  <Num_Resolved_Atoms>  (345) 
nan

>  <Num_Not_Resolved_Atoms>  (345) 
nan

$$$$
CHEMBL4878557
     RDKit          3D

  0  0  0  0  0  0  0  0  0  0999 V3000
M  V30 BEGIN CTAB
M  V30 COUNTS 37 39 0 0 0
M  V30 BEGIN ATOM
M  V30 1 C -2.522991 -2.280454 3.437350 0
M  V30 2 C -2.056919 -3.020386 2.191057 0
M  V30 3 N -0.765985 -2.464991 1.776424 0
M  V30 4 C -0.546231 -1.443113 0.933924 0
M  V30 5 C 0.821192 -1.228110 0.804053 0
M  V30 6 C 1.324331 -0.177843 -0.040788 0
M  V30 7 C 2.586528 0.147607 -0.422424 0
M  V30 8 C 2.996333 1.163741 -1.247915 0
M  V30 9 N 1.994299 1.944065 -1.745939 0
M  V30 10 C 0.719482 1.681496 -1.412076 0
M  V30 11 N -0.365489 2.470874 -1.908422 0
M  V30 12 C -1.755214 2.228897 -1.578763 0
M  V30 13 C -0.106288 3.579239 -2.788997 0
M  V30 14 N 0.434399 0.660769 -0.595735 0
M  V30 15 C 1.329275 -2.194436 1.627473 0
M  V30 16 C 2.645628 -2.457737 1.902529 0
M  V30 17 C 2.999103 -3.469884 2.764099 0
M  V30 18 C 2.028738 -4.239284 3.367904 0
M  V30 19 N 0.754019 -3.952796 3.076042 0
M  V30 20 C 0.376742 -2.971501 2.239569 0
M  V30 21 H -1.633864 -2.102944 4.107712 0
M  V30 22 H -3.267011 -2.927302 3.962577 0
M  V30 23 H -2.970845 -1.314673 3.194487 0
M  V30 24 H -2.808296 -2.775965 1.407354 0
M  V30 25 H -1.976091 -4.094004 2.389971 0
M  V30 26 H -1.420943 -0.942856 0.485970 0
M  V30 27 H 3.393590 -0.448609 -0.060385 0
M  V30 28 H 4.035776 1.327208 -1.481306 0
M  V30 29 H -1.765453 1.647949 -0.626909 0
M  V30 30 H -2.307910 3.169670 -1.383156 0
M  V30 31 H -2.261353 1.577532 -2.338234 0
M  V30 32 H -0.613013 3.391276 -3.775832 0
M  V30 33 H 0.981793 3.665275 -2.968215 0
M  V30 34 H -0.510590 4.537399 -2.380905 0
M  V30 35 H 3.459860 -1.911574 1.488370 0
M  V30 36 H 4.054816 -3.687970 2.990165 0
M  V30 37 H 2.316226 -5.042990 4.051939 0
M  V30 END ATOM
M  V30 BEGIN BOND
M  V30 1 1 1 2
M  V30 2 1 2 3
M  V30 3 1 3 4
M  V30 4 2 4 5
M  V30 5 1 5 6
M  V30 6 2 6 7
M  V30 7 1 7 8
M  V30 8 2 8 9
M  V30 9 1 9 10
M  V30 10 1 10 11
M  V30 11 1 11 12
M  V30 12 1 11 13
M  V30 13 2 10 14
M  V30 14 1 5 15
M  V30 15 2 15 16
M  V30 16 1 16 17
M  V30 17 2 17 18
M  V30 18 1 18 19
M  V30 19 2 19 20
M  V30 20 1 20 3
M  V30 21 1 14 6
M  V30 22 1 20 15
M  V30 23 1 1 21
M  V30 24 1 1 22
M  V30 25 1 1 23
M  V30 26 1 2 24
M  V30 27 1 2 25
M  V30 28 1 4 26
M  V30 29 1 7 27
M  V30 30 1 8 28
M  V30 31 1 12 29
M  V30 32 1 12 30
M  V30 33 1 12 31
M  V30 34 1 13 32
M  V30 35 1 13 33
M  V30 36 1 13 34
M  V30 37 1 16 35
M  V30 38 1 17 36
M  V30 39 1 18 37
M  V30 END BOND
M  V30 END CTAB
M  END
>  <Dataset>  (346) 
ChEMBL_Kinases

>  <Ligand_Instance>  (346) 
nan

>  <PDB_ID>  (346) 
nan

>  <Standardized_SMILES>  (346) 
CCn1cc(-c2ccnc(N(C)C)n2)c2cccnc21

>  <Name>  (346) 
nan

>  <Pocket>  (346) 
nan

>  <ATP_Site>  (346) 
nan

>  <Peripheral>  (346) 
nan

>  <Num_H_Atoms_ProtBoundConf>  (346) 
nan

>  <Num_Resolved_Atoms>  (346) 
nan

>  <Num_Not_Resolved_Atoms>  (346) 
nan

$$$$
CHEMBL3889698
     RDKit          3D

  0  0  0  0  0  0  0  0  0  0999 V3000
M  V30 BEGIN CTAB
M  V30 COUNTS 54 58 0 0 0
M  V30 BEGIN ATOM
M  V30 1 N -6.240907 2.087382 -6.515557 0
M  V30 2 C -6.812597 2.362612 -5.244177 0
M  V30 3 O -8.017052 2.639498 -5.138022 0
M  V30 4 C -5.956427 2.316900 -4.051507 0
M  V30 5 C -6.625014 2.546913 -2.854384 0
M  V30 6 C -5.866963 2.514706 -1.674918 0
M  V30 7 C -4.515812 2.256162 -1.812678 0
M  V30 8 N -3.578485 2.171753 -0.831005 0
M  V30 9 C -2.372455 1.903722 -1.367732 0
M  V30 10 C -1.111877 1.735377 -0.645905 0
M  V30 11 C 0.065806 1.481222 -1.315282 0
M  V30 12 C 1.273340 1.311404 -0.648602 0
M  V30 13 C 1.298551 1.400288 0.736814 0
M  V30 14 S 2.719037 1.218761 1.756848 0
M  V30 15 O 3.934690 1.755187 1.038955 0
M  V30 16 O 2.544864 2.020280 3.005235 0
M  V30 17 N 2.993344 -0.402648 2.189866 0
M  V30 18 C 3.238934 -1.276569 1.103096 0
M  V30 19 C 4.641823 -1.845428 1.184447 0
M  V30 20 C 4.980616 -2.659173 -0.035766 0
M  V30 21 C 3.784152 -3.091460 -0.815847 0
M  V30 22 C 2.559422 -3.254254 0.040082 0
M  V30 23 C 1.745547 -4.350400 -0.197391 0
M  V30 24 C 0.606418 -4.500849 0.589300 0
M  V30 25 C 0.258562 -3.619047 1.579362 0
M  V30 26 C 1.094700 -2.542946 1.782206 0
M  V30 27 C 2.220212 -2.341229 1.048394 0
M  V30 28 C 0.092234 1.657546 1.374551 0
M  V30 29 C -1.124923 1.831720 0.749361 0
M  V30 30 N -2.562839 1.820693 -2.693875 0
M  V30 31 C -3.855759 2.029017 -3.003042 0
M  V30 32 C -4.606448 2.061507 -4.157686 0
M  V30 33 H -6.432504 2.506592 -7.459417 0
M  V30 34 H -5.490761 1.383108 -6.737428 0
M  V30 35 H -7.679916 2.747398 -2.778186 0
M  V30 36 H -6.290333 2.678472 -0.680233 0
M  V30 37 H -3.714607 2.287848 0.186398 0
M  V30 38 H 0.100863 1.400935 -2.398323 0
M  V30 39 H 2.216433 1.112652 -1.116949 0
M  V30 40 H 2.553092 -0.754165 3.029977 0
M  V30 41 H 3.207740 -0.660256 0.155818 0
M  V30 42 H 4.778247 -2.457460 2.110701 0
M  V30 43 H 5.355437 -1.003132 1.254128 0
M  V30 44 H 5.531192 -3.563503 0.299366 0
M  V30 45 H 5.632793 -2.082502 -0.746155 0
M  V30 46 H 3.511325 -2.398219 -1.650858 0
M  V30 47 H 3.997975 -4.075155 -1.255406 0
M  V30 48 H 1.917286 -5.100985 -0.941033 0
M  V30 49 H -0.071607 -5.336734 0.453992 0
M  V30 50 H -0.600241 -3.655953 2.233743 0
M  V30 51 H 0.919697 -1.801832 2.518086 0
M  V30 52 H 0.072453 1.734629 2.472740 0
M  V30 53 H -2.018476 2.030065 1.325395 0
M  V30 54 H -4.129290 1.888301 -5.111080 0
M  V30 END ATOM
M  V30 BEGIN BOND
M  V30 1 1 1 2
M  V30 2 2 2 3
M  V30 3 1 2 4
M  V30 4 2 4 5
M  V30 5 1 5 6
M  V30 6 2 6 7
M  V30 7 1 7 8
M  V30 8 1 8 9
M  V30 9 1 9 10
M  V30 10 2 10 11
M  V30 11 1 11 12
M  V30 12 2 12 13
M  V30 13 1 13 14
M  V30 14 2 14 15
M  V30 15 2 14 16
M  V30 16 1 14 17
M  V30 17 1 17 18
M  V30 18 1 18 19
M  V30 19 1 19 20
M  V30 20 1 20 21
M  V30 21 1 21 22
M  V30 22 2 22 23
M  V30 23 1 23 24
M  V30 24 2 24 25
M  V30 25 1 25 26
M  V30 26 2 26 27
M  V30 27 1 13 28
M  V30 28 2 28 29
M  V30 29 2 9 30
M  V30 30 1 30 31
M  V30 31 2 31 32
M  V30 32 1 32 4
M  V30 33 1 31 7
M  V30 34 1 29 10
M  V30 35 1 27 18
M  V30 36 1 27 22
M  V30 37 1 1 33
M  V30 38 1 1 34
M  V30 39 1 5 35
M  V30 40 1 6 36
M  V30 41 1 8 37
M  V30 42 1 11 38
M  V30 43 1 12 39
M  V30 44 1 17 40
M  V30 45 1 18 41
M  V30 46 1 19 42
M  V30 47 1 19 43
M  V30 48 1 20 44
M  V30 49 1 20 45
M  V30 50 1 21 46
M  V30 51 1 21 47
M  V30 52 1 23 48
M  V30 53 1 24 49
M  V30 54 1 25 50
M  V30 55 1 26 51
M  V30 56 1 28 52
M  V30 57 1 29 53
M  V30 58 1 32 54
M  V30 END BOND
M  V30 END CTAB
M  END
>  <Dataset>  (347) 
ChEMBL_Kinases

>  <Ligand_Instance>  (347) 
nan

>  <PDB_ID>  (347) 
nan

>  <Standardized_SMILES>  (347) 
NC(=O)c1ccc2[nH]c(-c3ccc(S(=O)(=O)NC4CCCc5ccccc54)cc3)nc2c1

>  <Name>  (347) 
nan

>  <Pocket>  (347) 
nan

>  <ATP_Site>  (347) 
nan

>  <Peripheral>  (347) 
nan

>  <Num_H_Atoms_ProtBoundConf>  (347) 
nan

>  <Num_Resolved_Atoms>  (347) 
nan

>  <Num_Not_Resolved_Atoms>  (347) 
nan

$$$$
CHEMBL3909916
     RDKit          3D

  0  0  0  0  0  0  0  0  0  0999 V3000
M  V30 BEGIN CTAB
M  V30 COUNTS 54 58 0 0 0
M  V30 BEGIN ATOM
M  V30 1 C 2.854358 -5.242604 5.851974 0
M  V30 2 O 3.304944 -4.702209 4.601719 0
M  V30 3 C 2.356065 -4.273565 3.669088 0
M  V30 4 O 1.095728 -4.285466 3.754081 0
M  V30 5 N 3.017296 -3.769700 2.491581 0
M  V30 6 C 2.230927 -3.268295 1.389284 0
M  V30 7 N 1.917666 -1.940106 1.398461 0
M  V30 8 C 1.187236 -1.637434 0.308841 0
M  V30 9 C 0.608370 -0.463415 -0.184390 0
M  V30 10 C -0.091436 -0.590980 -1.394938 0
M  V30 11 C -0.685132 0.657550 -1.882102 0
M  V30 12 O -1.172134 0.518003 -3.179350 0
M  V30 13 C 0.428486 1.677033 -1.846312 0
M  V30 14 C 1.573656 1.565108 -2.607581 0
M  V30 15 C 2.616193 2.491442 -2.529237 0
M  V30 16 C 2.419974 3.539194 -1.627191 0
M  V30 17 C 1.274298 3.633142 -0.880322 0
M  V30 18 C 0.245881 2.718882 -0.959179 0
M  V30 19 C -1.084771 2.469530 -0.409923 0
M  V30 20 O -1.533955 3.284256 0.461043 0
M  V30 21 N -1.652556 1.275275 -1.004961 0
M  V30 22 C -3.019754 0.988180 -0.639781 0
M  V30 23 C -3.287812 0.173495 0.535419 0
M  V30 24 C -2.769113 0.679396 1.857848 0
M  V30 25 C -3.130522 -0.494820 2.766768 0
M  V30 26 N -3.487121 -1.605904 1.910197 0
M  V30 27 C -2.942786 -1.256787 0.576411 0
M  V30 28 C -0.221716 -1.780267 -2.083236 0
M  V30 29 C 0.360153 -2.929286 -1.575009 0
M  V30 30 C 1.053151 -2.824632 -0.384977 0
M  V30 31 N 1.692644 -3.810916 0.282199 0
M  V30 32 H 2.980946 -6.333131 5.824228 0
M  V30 33 H 3.425390 -4.773781 6.657341 0
M  V30 34 H 1.767642 -4.987882 5.987051 0
M  V30 35 H 4.043699 -3.710190 2.307424 0
M  V30 36 H 0.711000 0.455410 0.350787 0
M  V30 37 H -1.501834 1.387475 -3.489083 0
M  V30 38 H 1.779037 0.772284 -3.323618 0
M  V30 39 H 3.509371 2.434621 -3.100095 0
M  V30 40 H 3.170043 4.296248 -1.502172 0
M  V30 41 H 1.109774 4.445668 -0.173833 0
M  V30 42 H -3.640362 1.931631 -0.514263 0
M  V30 43 H -3.538632 0.513434 -1.538281 0
M  V30 44 H -4.429630 0.201080 0.683619 0
M  V30 45 H -3.362454 1.566467 2.225858 0
M  V30 46 H -1.689044 0.873690 1.874299 0
M  V30 47 H -2.289589 -0.779725 3.431244 0
M  V30 48 H -4.043267 -0.265916 3.378206 0
M  V30 49 H -3.108780 -2.521648 2.207751 0
M  V30 50 H -3.564451 -1.816820 -0.145094 0
M  V30 51 H -1.904348 -1.550228 0.611346 0
M  V30 52 H -0.790768 -1.767970 -3.021170 0
M  V30 53 H 0.269206 -3.859197 -2.094665 0
M  V30 54 H 1.829791 -4.829072 0.105394 0
M  V30 END ATOM
M  V30 BEGIN BOND
M  V30 1 1 1 2
M  V30 2 1 2 3
M  V30 3 2 3 4
M  V30 4 1 3 5
M  V30 5 1 5 6
M  V30 6 2 6 7
M  V30 7 1 7 8
M  V30 8 2 8 9
M  V30 9 1 9 10
M  V30 10 1 10 11
M  V30 11 1 11 12
M  V30 12 1 11 13
M  V30 13 2 13 14
M  V30 14 1 14 15
M  V30 15 2 15 16
M  V30 16 1 16 17
M  V30 17 2 17 18
M  V30 18 1 18 19
M  V30 19 2 19 20
M  V30 20 1 19 21
M  V30 21 1 21 22
M  V30 22 1 22 23
M  V30 23 1 23 24
M  V30 24 1 24 25
M  V30 25 1 25 26
M  V30 26 1 26 27
M  V30 27 2 10 28
M  V30 28 1 28 29
M  V30 29 2 29 30
M  V30 30 1 30 31
M  V30 31 1 31 6
M  V30 32 1 30 8
M  V30 33 1 21 11
M  V30 34 1 27 23
M  V30 35 1 18 13
M  V30 36 1 1 32
M  V30 37 1 1 33
M  V30 38 1 1 34
M  V30 39 1 5 35
M  V30 40 1 9 36
M  V30 41 1 12 37
M  V30 42 1 14 38
M  V30 43 1 15 39
M  V30 44 1 16 40
M  V30 45 1 17 41
M  V30 46 1 22 42
M  V30 47 1 22 43
M  V30 48 1 23 44
M  V30 49 1 24 45
M  V30 50 1 24 46
M  V30 51 1 25 47
M  V30 52 1 25 48
M  V30 53 1 26 49
M  V30 54 1 27 50
M  V30 55 1 27 51
M  V30 56 1 28 52
M  V30 57 1 29 53
M  V30 58 1 31 54
M  V30 END BOND
M  V30 END CTAB
M  END
>  <Dataset>  (348) 
ChEMBL_Kinases

>  <Ligand_Instance>  (348) 
nan

>  <PDB_ID>  (348) 
nan

>  <Standardized_SMILES>  (348) 
COC(=O)Nc1nc2cc(C3(O)c4ccccc4C(=O)N3CC3CCNC3)ccc2[nH]1

>  <Name>  (348) 
nan

>  <Pocket>  (348) 
nan

>  <ATP_Site>  (348) 
nan

>  <Peripheral>  (348) 
nan

>  <Num_H_Atoms_ProtBoundConf>  (348) 
nan

>  <Num_Resolved_Atoms>  (348) 
nan

>  <Num_Not_Resolved_Atoms>  (348) 
nan

$$$$
CHEMBL3890505
     RDKit          3D

  0  0  0  0  0  0  0  0  0  0999 V3000
M  V30 BEGIN CTAB
M  V30 COUNTS 64 70 0 0 0
M  V30 BEGIN ATOM
M  V30 1 C 5.462123 -2.254800 -1.546468 0
M  V30 2 C 4.144007 -2.029358 -0.878331 0
M  V30 3 C 4.356074 -1.621079 0.542185 0
M  V30 4 N 5.058708 -2.613942 1.340379 0
M  V30 5 C 5.248088 -2.128994 2.679050 0
M  V30 6 C 4.291393 -2.667859 3.685700 0
M  V30 7 O 4.030891 -4.018024 3.574441 0
M  V30 8 C 4.760143 -4.631138 2.563570 0
M  V30 9 C 4.402473 -3.899354 1.288723 0
M  V30 10 N 3.360174 -1.007165 -1.539824 0
M  V30 11 C 2.133355 -0.838783 -0.808728 0
M  V30 12 N 1.710455 0.085461 -0.263812 0
M  V30 13 C 0.597901 0.250204 0.412835 0
M  V30 14 C 0.099028 1.362832 1.057389 0
M  V30 15 C -1.103650 1.317143 1.709490 0
M  V30 16 C -1.912058 0.173766 1.780509 0
M  V30 17 N -3.150910 0.085033 2.455404 0
M  V30 18 C -3.084569 -0.264335 3.754022 0
M  V30 19 N -4.348277 -0.305512 4.252208 0
M  V30 20 C -5.183116 0.018932 3.256885 0
M  V30 21 C -6.560769 0.143339 3.154258 0
M  V30 22 N -7.103106 0.493616 1.975106 0
M  V30 23 C -6.363039 0.726729 0.897303 0
M  V30 24 C -6.925696 1.084473 -0.312956 0
M  V30 25 N -6.158732 1.313315 -1.389124 0
M  V30 26 C -4.800691 1.217150 -1.386183 0
M  V30 27 C -4.075577 1.485226 -2.621965 0
M  V30 28 C -2.711510 1.424925 -2.759191 0
M  V30 29 C -2.099477 1.694316 -3.979529 0
M  V30 30 N -2.806284 2.025349 -5.079823 0
M  V30 31 C -4.134551 2.087915 -4.960808 0
M  V30 32 C -4.765583 1.826282 -3.765276 0
M  V30 33 C -4.221447 0.861607 -0.187774 0
M  V30 34 C -4.989274 0.622491 0.925375 0
M  V30 35 C -4.434961 0.265104 2.126871 0
M  V30 36 C -1.482188 -0.998324 1.154766 0
M  V30 37 C -0.234911 -0.853450 0.510132 0
M  V30 38 S 0.745037 -2.126429 -0.462734 0
M  V30 39 H 5.994269 -3.066011 -1.016609 0
M  V30 40 H 5.330964 -2.561496 -2.605975 0
M  V30 41 H 6.139117 -1.365567 -1.456878 0
M  V30 42 H 3.580518 -2.994376 -0.964708 0
M  V30 43 H 3.416173 -1.326170 1.056519 0
M  V30 44 H 4.997367 -0.711672 0.529087 0
M  V30 45 H 6.301748 -2.334186 2.962304 0
M  V30 46 H 5.139686 -1.024612 2.653637 0
M  V30 47 H 3.309633 -2.150341 3.651457 0
M  V30 48 H 4.704731 -2.490806 4.701018 0
M  V30 49 H 5.850588 -4.549562 2.743732 0
M  V30 50 H 4.414038 -5.695483 2.521768 0
M  V30 51 H 4.811824 -4.500238 0.461294 0
M  V30 52 H 3.299380 -3.771841 1.220603 0
M  V30 53 H 3.422649 -0.380974 -2.360028 0
M  V30 54 H 0.601258 2.319422 1.095036 0
M  V30 55 H -1.512670 2.202739 2.228252 0
M  V30 56 H -2.272848 -0.505207 4.443116 0
M  V30 57 H -7.204372 -0.038497 4.014153 0
M  V30 58 H -7.997937 1.174897 -0.368666 0
M  V30 59 H -2.110372 1.168126 -1.920040 0
M  V30 60 H -1.020889 1.627356 -4.016043 0
M  V30 61 H -4.764437 2.341960 -5.782422 0
M  V30 62 H -5.861529 1.885002 -3.692603 0
M  V30 63 H -3.154152 0.801168 -0.222148 0
M  V30 64 H -1.953749 -1.945669 1.103782 0
M  V30 END ATOM
M  V30 BEGIN BOND
M  V30 1 1 1 2
M  V30 2 1 2 3
M  V30 3 1 3 4
M  V30 4 1 4 5
M  V30 5 1 5 6
M  V30 6 1 6 7
M  V30 7 1 7 8
M  V30 8 1 8 9
M  V30 9 1 2 10
M  V30 10 1 10 11
M  V30 11 2 11 12
M  V30 12 1 12 13
M  V30 13 2 13 14
M  V30 14 1 14 15
M  V30 15 2 15 16
M  V30 16 1 16 17
M  V30 17 1 17 18
M  V30 18 2 18 19
M  V30 19 1 19 20
M  V30 20 2 20 21
M  V30 21 1 21 22
M  V30 22 2 22 23
M  V30 23 1 23 24
M  V30 24 2 24 25
M  V30 25 1 25 26
M  V30 26 1 26 27
M  V30 27 2 27 28
M  V30 28 1 28 29
M  V30 29 2 29 30
M  V30 30 1 30 31
M  V30 31 2 31 32
M  V30 32 2 26 33
M  V30 33 1 33 34
M  V30 34 2 34 35
M  V30 35 1 16 36
M  V30 36 2 36 37
M  V30 37 1 37 38
M  V30 38 1 9 4
M  V30 39 1 38 11
M  V30 40 1 37 13
M  V30 41 1 35 17
M  V30 42 1 35 20
M  V30 43 1 34 23
M  V30 44 1 32 27
M  V30 45 1 1 39
M  V30 46 1 1 40
M  V30 47 1 1 41
M  V30 48 1 2 42
M  V30 49 1 3 43
M  V30 50 1 3 44
M  V30 51 1 5 45
M  V30 52 1 5 46
M  V30 53 1 6 47
M  V30 54 1 6 48
M  V30 55 1 8 49
M  V30 56 1 8 50
M  V30 57 1 9 51
M  V30 58 1 9 52
M  V30 59 1 10 53
M  V30 60 1 14 54
M  V30 61 1 15 55
M  V30 62 1 18 56
M  V30 63 1 21 57
M  V30 64 1 24 58
M  V30 65 1 28 59
M  V30 66 1 29 60
M  V30 67 1 31 61
M  V30 68 1 32 62
M  V30 69 1 33 63
M  V30 70 1 36 64
M  V30 END BOND
M  V30 END CTAB
M  END
>  <Dataset>  (349) 
ChEMBL_Kinases

>  <Ligand_Instance>  (349) 
nan

>  <PDB_ID>  (349) 
nan

>  <Standardized_SMILES>  (349) 
CC(CN1CCOCC1)Nc1nc2ccc(-n3cnc4cnc5cnc(-c6ccncc6)cc5c43)cc2s1

>  <Name>  (349) 
nan

>  <Pocket>  (349) 
nan

>  <ATP_Site>  (349) 
nan

>  <Peripheral>  (349) 
nan

>  <Num_H_Atoms_ProtBoundConf>  (349) 
nan

>  <Num_Resolved_Atoms>  (349) 
nan

>  <Num_Not_Resolved_Atoms>  (349) 
nan

$$$$
CHEMBL602158
     RDKit          3D

  0  0  0  0  0  0  0  0  0  0999 V3000
M  V30 BEGIN CTAB
M  V30 COUNTS 42 44 0 0 0
M  V30 BEGIN ATOM
M  V30 1 O -1.111681 -1.779566 1.119200 0
M  V30 2 C -0.711914 -2.957775 0.942119 0
M  V30 3 C 0.673685 -3.407433 0.820549 0
M  V30 4 C 1.716512 -2.352590 0.934699 0
M  V30 5 C 1.694487 -1.640722 2.256180 0
M  V30 6 C 2.773669 -0.587801 2.301187 0
M  V30 7 N 2.632972 0.678111 1.921535 0
M  V30 8 C 3.804234 1.344362 2.097374 0
M  V30 9 C 3.954106 2.757469 1.766024 0
M  V30 10 C 4.028789 3.143075 0.443187 0
M  V30 11 C 4.170152 4.453318 0.055133 0
M  V30 12 C 4.236399 5.395131 1.073561 0
M  V30 13 C 4.168794 5.085682 2.419268 0
M  V30 14 C 4.026345 3.743552 2.726114 0
M  V30 15 N 4.648213 0.418859 2.598570 0
M  V30 16 O 4.005371 -0.716789 2.707142 0
M  V30 17 N -1.742167 -3.909503 0.858174 0
M  V30 18 C -3.160452 -3.634345 0.954676 0
M  V30 19 C -3.707491 -3.048403 -0.296147 0
M  V30 20 C -3.834694 -1.734578 -0.633270 0
M  V30 21 C -4.358024 -1.320543 -1.837740 0
M  V30 22 C -4.781841 -2.253655 -2.766311 0
M  V30 23 N -4.681576 -3.564168 -2.489902 0
M  V30 24 C -4.162793 -3.910773 -1.298444 0
M  V30 25 H 0.861673 -4.119675 1.678568 0
M  V30 26 H 0.793610 -4.035635 -0.089504 0
M  V30 27 H 1.765761 -1.660839 0.082808 0
M  V30 28 H 2.707280 -2.897863 0.904206 0
M  V30 29 H 1.846456 -2.333197 3.114720 0
M  V30 30 H 0.703390 -1.184357 2.425624 0
M  V30 31 H 3.970023 2.352499 -0.306765 0
M  V30 32 H 4.227964 4.748476 -0.984976 0
M  V30 33 H 4.348647 6.430185 0.731666 0
M  V30 34 H 4.227568 5.873806 3.155841 0
M  V30 35 H 3.970716 3.478523 3.789178 0
M  V30 36 H -1.472669 -4.920673 0.710385 0
M  V30 37 H -3.396449 -2.998729 1.832568 0
M  V30 38 H -3.728162 -4.571973 1.119168 0
M  V30 39 H -3.509207 -1.013402 0.089826 0
M  V30 40 H -4.437291 -0.266390 -2.057775 0
M  V30 41 H -5.182406 -1.876441 -3.691339 0
M  V30 42 H -4.113108 -4.997776 -1.145365 0
M  V30 END ATOM
M  V30 BEGIN BOND
M  V30 1 2 1 2
M  V30 2 1 2 3
M  V30 3 1 3 4
M  V30 4 1 4 5
M  V30 5 1 5 6
M  V30 6 2 6 7
M  V30 7 1 7 8
M  V30 8 1 8 9
M  V30 9 2 9 10
M  V30 10 1 10 11
M  V30 11 2 11 12
M  V30 12 1 12 13
M  V30 13 2 13 14
M  V30 14 2 8 15
M  V30 15 1 15 16
M  V30 16 1 2 17
M  V30 17 1 17 18
M  V30 18 1 18 19
M  V30 19 2 19 20
M  V30 20 1 20 21
M  V30 21 2 21 22
M  V30 22 1 22 23
M  V30 23 2 23 24
M  V30 24 1 16 6
M  V30 25 1 24 19
M  V30 26 1 14 9
M  V30 27 1 3 25
M  V30 28 1 3 26
M  V30 29 1 4 27
M  V30 30 1 4 28
M  V30 31 1 5 29
M  V30 32 1 5 30
M  V30 33 1 10 31
M  V30 34 1 11 32
M  V30 35 1 12 33
M  V30 36 1 13 34
M  V30 37 1 14 35
M  V30 38 1 17 36
M  V30 39 1 18 37
M  V30 40 1 18 38
M  V30 41 1 20 39
M  V30 42 1 21 40
M  V30 43 1 22 41
M  V30 44 1 24 42
M  V30 END BOND
M  V30 END CTAB
M  END
>  <Dataset>  (350) 
ChEMBL_Kinases

>  <Ligand_Instance>  (350) 
nan

>  <PDB_ID>  (350) 
nan

>  <Standardized_SMILES>  (350) 
O=C(CCCc1nc(-c2ccccc2)no1)NCc1cccnc1

>  <Name>  (350) 
nan

>  <Pocket>  (350) 
nan

>  <ATP_Site>  (350) 
nan

>  <Peripheral>  (350) 
nan

>  <Num_H_Atoms_ProtBoundConf>  (350) 
nan

>  <Num_Resolved_Atoms>  (350) 
nan

>  <Num_Not_Resolved_Atoms>  (350) 
nan

$$$$
CHEMBL3892460
     RDKit          3D

  0  0  0  0  0  0  0  0  0  0999 V3000
M  V30 BEGIN CTAB
M  V30 COUNTS 48 51 0 0 0
M  V30 BEGIN ATOM
M  V30 1 C 5.140289 -3.259728 -2.552448 0
M  V30 2 O 5.208291 -2.781242 -1.233906 0
M  V30 3 C 4.917828 -1.493528 -0.834696 0
M  V30 4 C 4.507104 -0.431125 -1.643277 0
M  V30 5 C 4.253516 0.807297 -1.088033 0
M  V30 6 C 4.396118 1.032945 0.268955 0
M  V30 7 N 4.112748 2.340760 0.751695 0
M  V30 8 S 2.686921 3.183435 0.211678 0
M  V30 9 O 2.651544 4.521154 0.926166 0
M  V30 10 O 2.669194 3.409019 -1.253301 0
M  V30 11 C 1.251563 2.286640 0.677588 0
M  V30 12 C 0.765493 1.337940 -0.224035 0
M  V30 13 C -0.362307 0.618924 0.118432 0
M  V30 14 C -1.013267 0.817215 1.323428 0
M  V30 15 C -2.220365 0.060490 1.711087 0
M  V30 16 N -2.776022 -0.880628 0.915975 0
M  V30 17 C -3.861371 -1.405120 1.520613 0
M  V30 18 C -4.748537 -2.381675 1.115091 0
M  V30 19 C -5.749578 -2.651301 2.024430 0
M  V30 20 C -6.743198 -3.659299 1.711081 0
M  V30 21 N -6.752022 -4.407253 0.494770 0
M  V30 22 O -7.753433 -4.152869 2.264919 0
M  V30 23 C -5.885103 -2.019867 3.244547 0
M  V30 24 C -4.963577 -1.047677 3.596492 0
M  V30 25 C -3.945683 -0.740919 2.725373 0
M  V30 26 N -2.948354 0.154937 2.849551 0
M  V30 27 C -0.510800 1.762957 2.198043 0
M  V30 28 C 0.625750 2.510778 1.891070 0
M  V30 29 C 4.800540 -0.002153 1.085052 0
M  V30 30 C 5.045209 -1.215065 0.516662 0
M  V30 31 H 5.887469 -4.058032 -2.754716 0
M  V30 32 H 4.141958 -3.690971 -2.809559 0
M  V30 33 H 5.316317 -2.401958 -3.253365 0
M  V30 34 H 4.413687 -0.663166 -2.684688 0
M  V30 35 H 3.944118 1.535767 -1.827198 0
M  V30 36 H 4.861804 2.650954 1.424971 0
M  V30 37 H 1.210021 1.117757 -1.186138 0
M  V30 38 H -0.800726 -0.143527 -0.541652 0
M  V30 39 H -4.677780 -2.900725 0.167039 0
M  V30 40 H -6.094231 -5.168734 0.218006 0
M  V30 41 H -6.101705 -5.169028 0.206755 0
M  V30 42 H -6.664658 -2.230403 3.951760 0
M  V30 43 H -5.041147 -0.536145 4.541404 0
M  V30 44 H -2.750577 0.798261 3.638983 0
M  V30 45 H -1.003208 1.941053 3.155698 0
M  V30 46 H 1.029456 3.257801 2.572707 0
M  V30 47 H 4.913069 0.174564 2.153435 0
M  V30 48 H 5.361669 -1.995720 1.208281 0
M  V30 END ATOM
M  V30 BEGIN BOND
M  V30 1 1 1 2
M  V30 2 1 2 3
M  V30 3 2 3 4
M  V30 4 1 4 5
M  V30 5 2 5 6
M  V30 6 1 6 7
M  V30 7 1 7 8
M  V30 8 2 8 9
M  V30 9 2 8 10
M  V30 10 1 8 11
M  V30 11 2 11 12
M  V30 12 1 12 13
M  V30 13 2 13 14
M  V30 14 1 14 15
M  V30 15 2 15 16
M  V30 16 1 16 17
M  V30 17 2 17 18
M  V30 18 1 18 19
M  V30 19 1 19 20
M  V30 20 1 20 21
M  V30 21 2 20 22
M  V30 22 2 19 23
M  V30 23 1 23 24
M  V30 24 2 24 25
M  V30 25 1 25 26
M  V30 26 1 14 27
M  V30 27 2 27 28
M  V30 28 1 6 29
M  V30 29 2 29 30
M  V30 30 1 30 3
M  V30 31 1 28 11
M  V30 32 1 26 15
M  V30 33 1 25 17
M  V30 34 1 1 31
M  V30 35 1 1 32
M  V30 36 1 1 33
M  V30 37 1 4 34
M  V30 38 1 5 35
M  V30 39 1 7 36
M  V30 40 1 12 37
M  V30 41 1 13 38
M  V30 42 1 18 39
M  V30 43 1 21 40
M  V30 44 1 21 41
M  V30 45 1 23 42
M  V30 46 1 24 43
M  V30 47 1 26 44
M  V30 48 1 27 45
M  V30 49 1 28 46
M  V30 50 1 29 47
M  V30 51 1 30 48
M  V30 END BOND
M  V30 END CTAB
M  END
>  <Dataset>  (351) 
ChEMBL_Kinases

>  <Ligand_Instance>  (351) 
nan

>  <PDB_ID>  (351) 
nan

>  <Standardized_SMILES>  (351) 
COc1ccc(NS(=O)(=O)c2ccc(-c3nc4cc(C(N)=O)ccc4[nH]3)cc2)cc1

>  <Name>  (351) 
nan

>  <Pocket>  (351) 
nan

>  <ATP_Site>  (351) 
nan

>  <Peripheral>  (351) 
nan

>  <Num_H_Atoms_ProtBoundConf>  (351) 
nan

>  <Num_Resolved_Atoms>  (351) 
nan

>  <Num_Not_Resolved_Atoms>  (351) 
nan

$$$$
CHEMBL3891901
     RDKit          3D

  0  0  0  0  0  0  0  0  0  0999 V3000
M  V30 BEGIN CTAB
M  V30 COUNTS 43 45 0 0 0
M  V30 BEGIN ATOM
M  V30 1 C -0.832270 -7.486675 1.708883 0
M  V30 2 C -0.728726 -6.125430 1.131049 0
M  V30 3 C -1.053612 -5.916406 -0.184613 0
M  V30 4 C -0.952556 -4.654718 -0.701863 0
M  V30 5 C -0.544104 -3.538049 -0.011107 0
M  V30 6 C -0.471256 -2.241600 -0.654086 0
M  V30 7 O -0.805920 -2.234448 -1.865438 0
M  V30 8 N -0.085974 -1.012180 -0.124032 0
M  V30 9 C -0.003183 0.266986 -0.719175 0
M  V30 10 C -0.302868 0.589051 -2.024317 0
M  V30 11 C -0.219251 1.839322 -2.596437 0
M  V30 12 C 0.205008 2.874038 -1.790213 0
M  V30 13 C 0.511716 2.579576 -0.479031 0
M  V30 14 C 0.964261 3.649584 0.404235 0
M  V30 15 N 0.915224 4.961046 0.154962 0
M  V30 16 N 1.406813 5.637509 1.166654 0
M  V30 17 C 1.803660 4.775431 2.134861 0
M  V30 18 N 1.513713 3.542294 1.627893 0
M  V30 19 C 1.783461 2.331122 2.353278 0
M  V30 20 C 0.596812 1.858759 3.157694 0
M  V30 21 C 2.976963 2.501511 3.297636 0
M  V30 22 N 0.398863 1.328769 -0.011894 0
M  V30 23 C -0.235113 -3.822804 1.300216 0
M  V30 24 F 0.182538 -2.846005 2.121629 0
M  V30 25 C -0.310700 -5.062613 1.893882 0
M  V30 26 H -1.111007 -7.446414 2.792277 0
M  V30 27 H -1.540723 -8.127139 1.135520 0
M  V30 28 H 0.182477 -7.947716 1.668748 0
M  V30 29 H -1.379530 -6.763534 -0.766444 0
M  V30 30 H -1.230168 -4.582155 -1.752045 0
M  V30 31 H 0.188676 -1.034707 0.881910 0
M  V30 32 H -0.638829 -0.166833 -2.707088 0
M  V30 33 H -0.464274 2.038281 -3.618535 0
M  V30 34 H 0.289035 3.876323 -2.187619 0
M  V30 35 H 2.255864 4.985815 3.109794 0
M  V30 36 H 2.069972 1.534191 1.669943 0
M  V30 37 H 0.518207 2.378092 4.132726 0
M  V30 38 H 0.685238 0.759615 3.271689 0
M  V30 39 H -0.333255 2.106916 2.577907 0
M  V30 40 H 3.789673 2.954547 2.710511 0
M  V30 41 H 2.717824 3.044514 4.219368 0
M  V30 42 H 3.327265 1.467218 3.549690 0
M  V30 43 H -0.064976 -5.250465 2.909769 0
M  V30 END ATOM
M  V30 BEGIN BOND
M  V30 1 1 1 2
M  V30 2 2 2 3
M  V30 3 1 3 4
M  V30 4 2 4 5
M  V30 5 1 5 6
M  V30 6 2 6 7
M  V30 7 1 6 8
M  V30 8 1 8 9
M  V30 9 2 9 10
M  V30 10 1 10 11
M  V30 11 2 11 12
M  V30 12 1 12 13
M  V30 13 1 13 14
M  V30 14 2 14 15
M  V30 15 1 15 16
M  V30 16 2 16 17
M  V30 17 1 17 18
M  V30 18 1 18 19
M  V30 19 1 19 20
M  V30 20 1 19 21
M  V30 21 2 13 22
M  V30 22 1 5 23
M  V30 23 1 23 24
M  V30 24 2 23 25
M  V30 25 1 25 2
M  V30 26 1 22 9
M  V30 27 1 18 14
M  V30 28 1 1 26
M  V30 29 1 1 27
M  V30 30 1 1 28
M  V30 31 1 3 29
M  V30 32 1 4 30
M  V30 33 1 8 31
M  V30 34 1 10 32
M  V30 35 1 11 33
M  V30 36 1 12 34
M  V30 37 1 17 35
M  V30 38 1 19 36
M  V30 39 1 20 37
M  V30 40 1 20 38
M  V30 41 1 20 39
M  V30 42 1 21 40
M  V30 43 1 21 41
M  V30 44 1 21 42
M  V30 45 1 25 43
M  V30 END BOND
M  V30 END CTAB
M  END
>  <Dataset>  (352) 
ChEMBL_Kinases

>  <Ligand_Instance>  (352) 
nan

>  <PDB_ID>  (352) 
nan

>  <Standardized_SMILES>  (352) 
Cc1ccc(C(=O)Nc2cccc(-c3nncn3C(C)C)n2)c(F)c1

>  <Name>  (352) 
nan

>  <Pocket>  (352) 
nan

>  <ATP_Site>  (352) 
nan

>  <Peripheral>  (352) 
nan

>  <Num_H_Atoms_ProtBoundConf>  (352) 
nan

>  <Num_Resolved_Atoms>  (352) 
nan

>  <Num_Not_Resolved_Atoms>  (352) 
nan

$$$$
CHEMBL3909445
     RDKit          3D

  0  0  0  0  0  0  0  0  0  0999 V3000
M  V30 BEGIN CTAB
M  V30 COUNTS 38 41 0 0 0
M  V30 BEGIN ATOM
M  V30 1 Cl 3.920704 -6.233916 6.176373 0
M  V30 2 C 3.275049 -5.020941 5.068274 0
M  V30 3 C 1.976672 -5.081836 4.665289 0
M  V30 4 C 1.502258 -4.132179 3.808467 0
M  V30 5 C 2.298020 -3.112427 3.338164 0
M  V30 6 C 1.698828 -2.147919 2.428525 0
M  V30 7 C 2.208938 -1.107707 1.844092 0
M  V30 8 C 1.795805 -0.063565 0.940072 0
M  V30 9 N 2.680817 0.898291 0.543641 0
M  V30 10 N 2.085039 1.734226 -0.271758 0
M  V30 11 C 0.796855 1.420018 -0.486855 0
M  V30 12 C -0.223716 1.966819 -1.237903 0
M  V30 13 C -1.467275 1.322840 -1.197186 0
M  V30 14 C -2.544077 1.911019 -1.997988 0
M  V30 15 C -3.842919 1.781320 -1.542511 0
M  V30 16 C -4.849621 2.346184 -2.316819 0
M  V30 17 N -4.560813 2.995023 -3.468524 0
M  V30 18 C -3.308815 3.107680 -3.886663 0
M  V30 19 C -2.236702 2.573236 -3.175756 0
M  V30 20 C -1.629433 0.189713 -0.426440 0
M  V30 21 C -0.581544 -0.320308 0.307232 0
M  V30 22 C 0.645688 0.290868 0.284775 0
M  V30 23 C 3.600195 -3.085000 3.766865 0
M  V30 24 C 4.127182 -4.035503 4.642424 0
M  V30 25 H 1.310678 -5.879461 5.018209 0
M  V30 26 H 0.456708 -4.218215 3.510876 0
M  V30 27 H 0.671208 -2.262353 2.159679 0
M  V30 28 H 3.257107 -1.095993 2.195453 0
M  V30 29 H 2.618310 2.538094 -0.674319 0
M  V30 30 H -0.017608 2.853973 -1.814062 0
M  V30 31 H -4.135640 1.275313 -0.632045 0
M  V30 32 H -5.877752 2.294288 -2.042270 0
M  V30 33 H -3.023962 3.623845 -4.812893 0
M  V30 34 H -1.212175 2.665585 -3.518179 0
M  V30 35 H -2.594159 -0.299013 -0.402638 0
M  V30 36 H -0.757754 -1.200702 0.888610 0
M  V30 37 H 4.258327 -2.322953 3.437158 0
M  V30 38 H 5.154293 -3.989477 4.962811 0
M  V30 END ATOM
M  V30 BEGIN BOND
M  V30 1 1 1 2
M  V30 2 2 2 3
M  V30 3 1 3 4
M  V30 4 2 4 5
M  V30 5 1 5 6
M  V30 6 2 6 7
M  V30 7 1 7 8
M  V30 8 2 8 9
M  V30 9 1 9 10
M  V30 10 1 10 11
M  V30 11 2 11 12
M  V30 12 1 12 13
M  V30 13 1 13 14
M  V30 14 2 14 15
M  V30 15 1 15 16
M  V30 16 2 16 17
M  V30 17 1 17 18
M  V30 18 2 18 19
M  V30 19 2 13 20
M  V30 20 1 20 21
M  V30 21 2 21 22
M  V30 22 1 5 23
M  V30 23 2 23 24
M  V30 24 1 24 2
M  V30 25 1 22 8
M  V30 26 1 22 11
M  V30 27 1 19 14
M  V30 28 1 3 25
M  V30 29 1 4 26
M  V30 30 1 6 27
M  V30 31 1 7 28
M  V30 32 1 10 29
M  V30 33 1 12 30
M  V30 34 1 15 31
M  V30 35 1 16 32
M  V30 36 1 18 33
M  V30 37 1 19 34
M  V30 38 1 20 35
M  V30 39 1 21 36
M  V30 40 1 23 37
M  V30 41 1 24 38
M  V30 END BOND
M  V30 END CTAB
M  END
>  <Dataset>  (353) 
ChEMBL_Kinases

>  <Ligand_Instance>  (353) 
nan

>  <PDB_ID>  (353) 
nan

>  <Standardized_SMILES>  (353) 
Clc1ccc(/C=C/c2n[nH]c3cc(-c4ccncc4)ccc23)cc1

>  <Name>  (353) 
nan

>  <Pocket>  (353) 
nan

>  <ATP_Site>  (353) 
nan

>  <Peripheral>  (353) 
nan

>  <Num_H_Atoms_ProtBoundConf>  (353) 
nan

>  <Num_Resolved_Atoms>  (353) 
nan

>  <Num_Not_Resolved_Atoms>  (353) 
nan

$$$$
CHEMBL4878473
     RDKit          3D

  0  0  0  0  0  0  0  0  0  0999 V3000
M  V30 BEGIN CTAB
M  V30 COUNTS 51 54 0 0 0
M  V30 BEGIN ATOM
M  V30 1 C 4.880618 1.447680 5.083254 0
M  V30 2 N 5.401840 0.155896 4.730755 0
M  V30 3 N 6.471484 -0.475914 5.210659 0
M  V30 4 C 6.604586 -1.656777 4.613576 0
M  V30 5 C 5.569550 -1.790948 3.704961 0
M  V30 6 Br 5.349444 -3.336499 2.607652 0
M  V30 7 C 4.822478 -0.614214 3.808038 0
M  V30 8 C 3.647143 -0.461865 2.957907 0
M  V30 9 C 3.695390 -0.788970 1.621631 0
M  V30 10 C 2.589957 -0.658027 0.769180 0
M  V30 11 F 2.845839 -1.037292 -0.524934 0
M  V30 12 C 1.406203 -0.178142 1.307844 0
M  V30 13 C 0.326966 -0.079820 0.351763 0
M  V30 14 O 0.579955 -0.441751 -0.849358 0
M  V30 15 N -1.007351 0.328806 0.376884 0
M  V30 16 C -1.906741 0.337745 -0.725797 0 CFG=2
M  V30 17 C -2.453723 1.704040 -1.067855 0
M  V30 18 N -3.238672 1.514290 -2.272612 0
M  V30 19 C -4.491559 0.931423 -1.915057 0
M  V30 20 C -4.393661 0.071961 -0.707209 0
M  V30 21 C -3.084357 -0.620205 -0.496977 0 CFG=1
M  V30 22 C -2.928179 -1.891179 -1.223007 0
M  V30 23 C -2.929130 -1.991598 -2.587417 0
M  V30 24 C -2.788264 -3.144323 -3.323622 0
M  V30 25 C -2.626750 -4.344717 -2.629028 0
M  V30 26 F -2.482299 -5.517005 -3.254385 0
M  V30 27 C -2.614504 -4.331108 -1.250161 0
M  V30 28 F -2.460876 -5.468098 -0.531108 0
M  V30 29 C -2.762122 -3.132155 -0.596394 0
M  V30 30 C 1.404728 0.134770 2.643178 0
M  V30 31 Cl -0.061299 0.738784 3.353585 0
M  V30 32 C 2.474185 0.015779 3.500821 0
M  V30 33 H 4.172372 1.382938 5.920592 0
M  V30 34 H 4.503783 2.014479 4.211193 0
M  V30 35 H 5.735160 2.064561 5.485388 0
M  V30 36 H 7.389104 -2.386848 4.806733 0
M  V30 37 H 4.637232 -1.154562 1.262682 0
M  V30 38 H -1.318823 0.646384 1.315169 0
M  V30 39 H -1.423053 -0.031139 -1.651952 0
M  V30 40 H -3.144447 2.088844 -0.303625 0
M  V30 41 H -1.613731 2.384645 -1.306804 0
M  V30 42 H -3.337769 2.395158 -2.822239 0
M  V30 43 H -4.996959 0.423270 -2.778496 0
M  V30 44 H -5.198447 1.777271 -1.670810 0
M  V30 45 H -4.614194 0.657812 0.233146 0
M  V30 46 H -5.173725 -0.727820 -0.695119 0
M  V30 47 H -3.040387 -0.902374 0.596649 0
M  V30 48 H -3.048227 -1.115139 -3.201448 0
M  V30 49 H -2.794446 -3.180899 -4.397393 0
M  V30 50 H -2.747846 -3.156345 0.503961 0
M  V30 51 H 2.421228 0.272492 4.530267 0
M  V30 END ATOM
M  V30 BEGIN BOND
M  V30 1 1 1 2
M  V30 2 1 2 3
M  V30 3 2 3 4
M  V30 4 1 4 5
M  V30 5 1 5 6
M  V30 6 2 5 7
M  V30 7 1 7 8
M  V30 8 2 8 9
M  V30 9 1 9 10
M  V30 10 1 10 11
M  V30 11 2 10 12
M  V30 12 1 12 13
M  V30 13 2 13 14
M  V30 14 1 13 15
M  V30 15 1 15 16
M  V30 16 1 16 17
M  V30 17 1 17 18
M  V30 18 1 18 19
M  V30 19 1 19 20
M  V30 20 1 20 21
M  V30 21 1 21 22
M  V30 22 2 22 23
M  V30 23 1 23 24
M  V30 24 2 24 25
M  V30 25 1 25 26
M  V30 26 1 25 27
M  V30 27 1 27 28
M  V30 28 2 27 29
M  V30 29 1 12 30
M  V30 30 1 30 31
M  V30 31 2 30 32
M  V30 32 1 7 2
M  V30 33 1 32 8
M  V30 34 1 21 16
M  V30 35 1 29 22
M  V30 36 1 1 33
M  V30 37 1 1 34
M  V30 38 1 1 35
M  V30 39 1 4 36
M  V30 40 1 9 37
M  V30 41 1 15 38
M  V30 42 1 16 39 CFG=3
M  V30 43 1 17 40
M  V30 44 1 17 41
M  V30 45 1 18 42
M  V30 46 1 19 43
M  V30 47 1 19 44
M  V30 48 1 20 45
M  V30 49 1 20 46
M  V30 50 1 21 47 CFG=1
M  V30 51 1 23 48
M  V30 52 1 24 49
M  V30 53 1 29 50
M  V30 54 1 32 51
M  V30 END BOND
M  V30 END CTAB
M  END
>  <Dataset>  (354) 
ChEMBL_Kinases

>  <Ligand_Instance>  (354) 
nan

>  <PDB_ID>  (354) 
nan

>  <Standardized_SMILES>  (354) 
Cn1ncc(Br)c1-c1cc(F)c(C(=O)N[C@@H]2CNCC[C@H]2c2ccc(F)c(F)c2)c(Cl)c1

>  <Name>  (354) 
nan

>  <Pocket>  (354) 
nan

>  <ATP_Site>  (354) 
nan

>  <Peripheral>  (354) 
nan

>  <Num_H_Atoms_ProtBoundConf>  (354) 
nan

>  <Num_Resolved_Atoms>  (354) 
nan

>  <Num_Not_Resolved_Atoms>  (354) 
nan

$$$$
CHEMBL604249
     RDKit          3D

  0  0  0  0  0  0  0  0  0  0999 V3000
M  V30 BEGIN CTAB
M  V30 COUNTS 61 63 0 0 0
M  V30 BEGIN ATOM
M  V30 1 C 1.544362 -6.814413 4.601832 0
M  V30 2 O 2.627327 -5.935084 4.802705 0
M  V30 3 C 2.971577 -4.998299 3.847059 0
M  V30 4 C 2.269739 -4.884177 2.658233 0
M  V30 5 C 2.734702 -3.886726 1.780977 0
M  V30 6 C 3.799336 -3.057863 2.026017 0
M  V30 7 C 4.221549 -2.042665 1.079771 0
M  V30 8 O 5.312486 -1.406375 1.276847 0
M  V30 9 N 3.530265 -1.665889 -0.080389 0
M  V30 10 C 3.825090 -0.696621 -1.105371 0
M  V30 11 C 3.451209 0.633827 -0.496749 0
M  V30 12 C 4.277278 1.501400 0.189284 0
M  V30 13 C 3.760291 2.674491 0.697293 0
M  V30 14 C 2.415238 3.027762 0.545151 0
M  V30 15 C 1.571487 2.176867 -0.136537 0
M  V30 16 C 0.187038 2.596310 -0.246728 0
M  V30 17 O -0.167089 3.672174 0.295038 0
M  V30 18 N -0.748694 1.823376 -0.941867 0
M  V30 19 C -2.124771 1.828408 -1.286199 0
M  V30 20 C -2.718489 2.373325 -2.378055 0
M  V30 21 C -4.072738 2.335790 -2.655297 0
M  V30 22 C -4.852842 1.676866 -1.712865 0
M  V30 23 C -6.313321 1.609103 -1.967396 0
M  V30 24 N -6.597818 0.416932 -2.736504 0
M  V30 25 C -6.174686 -0.748832 -1.985874 0
M  V30 26 C -8.035647 0.293111 -2.989813 0
M  V30 27 C -4.271854 1.120845 -0.605003 0
M  V30 28 C -2.898034 1.156622 -0.319805 0
M  V30 29 C 2.131910 1.018958 -0.625047 0
M  V30 30 C 4.496189 -3.177298 3.217059 0
M  V30 31 C 4.052864 -4.159629 4.104900 0
M  V30 32 C 4.753217 -4.348256 5.425472 0
M  V30 33 H 1.543371 -7.165101 3.538582 0
M  V30 34 H 0.611290 -6.248908 4.765313 0
M  V30 35 H 1.603677 -7.703107 5.269279 0
M  V30 36 H 1.438240 -5.498761 2.417308 0
M  V30 37 H 2.160600 -3.840286 0.872681 0
M  V30 38 H 2.627549 -2.221184 -0.182935 0
M  V30 39 H 3.148427 -0.866168 -1.957338 0
M  V30 40 H 4.891904 -0.687702 -1.394334 0
M  V30 41 H 5.299677 1.173653 0.273422 0
M  V30 42 H 4.422240 3.338058 1.228770 0
M  V30 43 H 2.094602 3.963636 0.972352 0
M  V30 44 H -0.446984 0.924217 -1.405275 0
M  V30 45 H -1.980191 2.852847 -3.016603 0
M  V30 46 H -4.432092 2.792798 -3.540150 0
M  V30 47 H -6.833865 1.488344 -0.982561 0
M  V30 48 H -6.713897 2.523527 -2.403706 0
M  V30 49 H -6.504860 -1.693427 -2.476367 0
M  V30 50 H -5.067679 -0.781817 -1.949712 0
M  V30 51 H -6.625364 -0.718097 -0.973463 0
M  V30 52 H -8.619565 0.447804 -2.060094 0
M  V30 53 H -8.376991 0.969840 -3.773376 0
M  V30 54 H -8.274906 -0.749212 -3.325137 0
M  V30 55 H -4.911145 0.602465 0.125907 0
M  V30 56 H -2.523631 0.695406 0.569945 0
M  V30 57 H 1.459258 0.362846 -1.156006 0
M  V30 58 H 5.335882 -2.576491 3.491252 0
M  V30 59 H 4.605790 -5.405850 5.751844 0
M  V30 60 H 4.270983 -3.655798 6.177302 0
M  V30 61 H 5.812693 -4.098187 5.300392 0
M  V30 END ATOM
M  V30 BEGIN BOND
M  V30 1 1 1 2
M  V30 2 1 2 3
M  V30 3 2 3 4
M  V30 4 1 4 5
M  V30 5 2 5 6
M  V30 6 1 6 7
M  V30 7 2 7 8
M  V30 8 1 7 9
M  V30 9 1 9 10
M  V30 10 1 10 11
M  V30 11 2 11 12
M  V30 12 1 12 13
M  V30 13 2 13 14
M  V30 14 1 14 15
M  V30 15 1 15 16
M  V30 16 2 16 17
M  V30 17 1 16 18
M  V30 18 1 18 19
M  V30 19 2 19 20
M  V30 20 1 20 21
M  V30 21 2 21 22
M  V30 22 1 22 23
M  V30 23 1 23 24
M  V30 24 1 24 25
M  V30 25 1 24 26
M  V30 26 1 22 27
M  V30 27 2 27 28
M  V30 28 2 15 29
M  V30 29 1 6 30
M  V30 30 2 30 31
M  V30 31 1 31 32
M  V30 32 1 31 3
M  V30 33 1 29 11
M  V30 34 1 28 19
M  V30 35 1 1 33
M  V30 36 1 1 34
M  V30 37 1 1 35
M  V30 38 1 4 36
M  V30 39 1 5 37
M  V30 40 1 9 38
M  V30 41 1 10 39
M  V30 42 1 10 40
M  V30 43 1 12 41
M  V30 44 1 13 42
M  V30 45 1 14 43
M  V30 46 1 18 44
M  V30 47 1 20 45
M  V30 48 1 21 46
M  V30 49 1 23 47
M  V30 50 1 23 48
M  V30 51 1 25 49
M  V30 52 1 25 50
M  V30 53 1 25 51
M  V30 54 1 26 52
M  V30 55 1 26 53
M  V30 56 1 26 54
M  V30 57 1 27 55
M  V30 58 1 28 56
M  V30 59 1 29 57
M  V30 60 1 30 58
M  V30 61 1 32 59
M  V30 62 1 32 60
M  V30 63 1 32 61
M  V30 END BOND
M  V30 END CTAB
M  END
>  <Dataset>  (355) 
ChEMBL_Kinases

>  <Ligand_Instance>  (355) 
nan

>  <PDB_ID>  (355) 
nan

>  <Standardized_SMILES>  (355) 
COc1ccc(C(=O)NCc2cccc(C(=O)Nc3ccc(CN(C)C)cc3)c2)cc1C

>  <Name>  (355) 
nan

>  <Pocket>  (355) 
nan

>  <ATP_Site>  (355) 
nan

>  <Peripheral>  (355) 
nan

>  <Num_H_Atoms_ProtBoundConf>  (355) 
nan

>  <Num_Resolved_Atoms>  (355) 
nan

>  <Num_Not_Resolved_Atoms>  (355) 
nan

$$$$
CHEMBL389176
     RDKit          3D

  0  0  0  0  0  0  0  0  0  0999 V3000
M  V30 BEGIN CTAB
M  V30 COUNTS 38 41 0 0 0
M  V30 BEGIN ATOM
M  V30 1 N -2.304944 -3.209170 1.420881 0
M  V30 2 C -1.109953 -2.935477 0.640419 0
M  V30 3 C 0.007706 -3.661554 1.311224 0
M  V30 4 C -0.172168 -4.964509 1.728541 0
M  V30 5 C 0.902213 -5.609106 2.353633 0
M  V30 6 C 2.111567 -4.931124 2.537989 0
M  V30 7 C 2.277984 -3.616863 2.111645 0
M  V30 8 C 1.203732 -2.977858 1.488668 0
M  V30 9 C -0.914705 -1.482083 0.635579 0
M  V30 10 C -0.599056 -0.872688 -0.576647 0
M  V30 11 C -0.407936 0.501609 -0.614890 0
M  V30 12 C -0.532208 1.261794 0.554500 0
M  V30 13 C -0.297278 2.684868 0.323296 0
M  V30 14 N -1.090403 3.662385 0.833216 0
M  V30 15 C -0.815656 4.975116 0.579290 0
M  V30 16 N 0.237522 5.379034 -0.177477 0
M  V30 17 C 1.048445 4.442096 -0.701765 0
M  V30 18 N 2.155093 4.539827 -1.481668 0
M  V30 19 C 2.574883 3.264711 -1.716099 0
M  V30 20 N 1.732700 2.419644 -1.086507 0
M  V30 21 C 0.771205 3.107000 -0.445045 0
M  V30 22 C -0.845986 0.642391 1.750109 0
M  V30 23 C -1.035693 -0.725702 1.785332 0
M  V30 24 H -2.066298 -3.588511 2.377486 0
M  V30 25 H -2.947319 -3.857135 0.942481 0
M  V30 26 H -1.273560 -3.332045 -0.371218 0
M  V30 27 H -1.104553 -5.507088 1.593756 0
M  V30 28 H 0.821565 -6.636674 2.704774 0
M  V30 29 H 2.975340 -5.387505 3.017661 0
M  V30 30 H 3.216075 -3.084951 2.252433 0
M  V30 31 H 1.310145 -1.964031 1.151881 0
M  V30 32 H -0.502391 -1.462985 -1.485531 0
M  V30 33 H -0.163062 0.919040 -1.593587 0
M  V30 34 H -1.536970 5.646745 1.053225 0
M  V30 35 H 2.595540 5.420162 -1.831452 0
M  V30 36 H 3.453443 2.986218 -2.318588 0
M  V30 37 H -0.920174 1.311185 2.596964 0
M  V30 38 H -1.280123 -1.177901 2.737670 0
M  V30 END ATOM
M  V30 BEGIN BOND
M  V30 1 1 1 2
M  V30 2 1 2 3
M  V30 3 2 3 4
M  V30 4 1 4 5
M  V30 5 2 5 6
M  V30 6 1 6 7
M  V30 7 2 7 8
M  V30 8 1 2 9
M  V30 9 2 9 10
M  V30 10 1 10 11
M  V30 11 2 11 12
M  V30 12 1 12 13
M  V30 13 2 13 14
M  V30 14 1 14 15
M  V30 15 2 15 16
M  V30 16 1 16 17
M  V30 17 1 17 18
M  V30 18 1 18 19
M  V30 19 2 19 20
M  V30 20 1 20 21
M  V30 21 1 12 22
M  V30 22 2 22 23
M  V30 23 1 8 3
M  V30 24 1 23 9
M  V30 25 1 21 13
M  V30 26 2 21 17
M  V30 27 1 1 24
M  V30 28 1 1 25
M  V30 29 1 2 26
M  V30 30 1 4 27
M  V30 31 1 5 28
M  V30 32 1 6 29
M  V30 33 1 7 30
M  V30 34 1 8 31
M  V30 35 1 10 32
M  V30 36 1 11 33
M  V30 37 1 15 34
M  V30 38 1 18 35
M  V30 39 1 19 36
M  V30 40 1 22 37
M  V30 41 1 23 38
M  V30 END BOND
M  V30 END CTAB
M  END
>  <Dataset>  (356) 
ChEMBL_Kinases

>  <Ligand_Instance>  (356) 
nan

>  <PDB_ID>  (356) 
nan

>  <Standardized_SMILES>  (356) 
NC(c1ccccc1)c1ccc(-c2ncnc3[nH]cnc23)cc1

>  <Name>  (356) 
nan

>  <Pocket>  (356) 
nan

>  <ATP_Site>  (356) 
nan

>  <Peripheral>  (356) 
nan

>  <Num_H_Atoms_ProtBoundConf>  (356) 
nan

>  <Num_Resolved_Atoms>  (356) 
nan

>  <Num_Not_Resolved_Atoms>  (356) 
nan

$$$$
CHEMBL3891743
     RDKit          3D

  0  0  0  0  0  0  0  0  0  0999 V3000
M  V30 BEGIN CTAB
M  V30 COUNTS 61 65 0 0 0
M  V30 BEGIN ATOM
M  V30 1 C 4.820456 -2.618060 2.349429 0
M  V30 2 C 6.052545 -1.797264 2.351577 0
M  V30 3 C 7.222666 -2.790894 2.189722 0
M  V30 4 C 6.244046 -0.773454 1.307223 0
M  V30 5 O 5.323628 0.266567 1.205990 0
M  V30 6 C 4.007160 0.195748 0.867995 0
M  V30 7 O 3.364102 -0.828326 0.567705 0
M  V30 8 N 3.303974 1.456230 0.865514 0
M  V30 9 C 1.923639 1.453643 0.517982 0
M  V30 10 N 1.172473 0.385430 0.174585 0
M  V30 11 C -0.101885 0.798152 -0.085412 0
M  V30 12 C -1.202362 0.059601 -0.468988 0
M  V30 13 C -2.428798 0.685911 -0.686257 0
M  V30 14 C -3.598589 -0.071162 -1.093502 0
M  V30 15 O -4.671337 0.832955 -1.230558 0
M  V30 16 C -3.482413 -0.767917 -2.379530 0
M  V30 17 C -3.075100 -0.205551 -3.581577 0
M  V30 18 C -2.984099 -0.940048 -4.761255 0
M  V30 19 C -3.315725 -2.298736 -4.736601 0
M  V30 20 C -3.719582 -2.846120 -3.534643 0
M  V30 21 C -3.807722 -2.112559 -2.369780 0
M  V30 22 C -4.183124 -2.336577 -0.972668 0
M  V30 23 O -4.552238 -3.493762 -0.571468 0
M  V30 24 N -4.061614 -1.103362 -0.219617 0
M  V30 25 C -4.393316 -1.052565 1.182974 0
M  V30 26 C -3.295045 -1.361286 2.100755 0
M  V30 27 C -2.407370 -0.447611 2.654552 0
M  V30 28 C -1.394101 -0.842922 3.518596 0
M  V30 29 C -1.242059 -2.176222 3.853799 0
M  V30 30 C -2.112523 -3.102168 3.315499 0
M  V30 31 C -3.124674 -2.702230 2.451523 0
M  V30 32 C -2.455707 2.072450 -0.491913 0
M  V30 33 C -1.348453 2.820103 -0.105405 0
M  V30 34 C -0.150731 2.178360 0.102301 0
M  V30 35 N 1.100041 2.515124 0.464970 0
M  V30 36 H 3.925672 -2.163092 2.816725 0
M  V30 37 H 5.041246 -3.531408 3.006811 0
M  V30 38 H 4.553665 -3.086239 1.382304 0
M  V30 39 H 6.201748 -1.310152 3.351273 0
M  V30 40 H 7.403836 -2.976152 1.111294 0
M  V30 41 H 8.144904 -2.378123 2.616996 0
M  V30 42 H 6.930244 -3.778224 2.620509 0
M  V30 43 H 7.272757 -0.360641 1.419268 0
M  V30 44 H 6.240863 -1.344602 0.312263 0
M  V30 45 H 3.762463 2.352362 1.102873 0
M  V30 46 H -1.119999 -1.014048 -0.604469 0
M  V30 47 H -5.250409 0.833289 -0.436298 0
M  V30 48 H -2.793297 0.842246 -3.714849 0
M  V30 49 H -2.667837 -0.508119 -5.702195 0
M  V30 50 H -3.272947 -2.948676 -5.612860 0
M  V30 51 H -3.993492 -3.906332 -3.447269 0
M  V30 52 H -4.791313 -0.063875 1.489081 0
M  V30 53 H -5.222687 -1.763893 1.364287 0
M  V30 54 H -2.548583 0.601494 2.374166 0
M  V30 55 H -0.753043 -0.057329 3.897304 0
M  V30 56 H -0.439523 -2.472992 4.534050 0
M  V30 57 H -1.930953 -4.117213 3.623901 0
M  V30 58 H -3.722265 -3.543273 2.116248 0
M  V30 59 H -3.401366 2.594703 -0.653459 0
M  V30 60 H -1.398867 3.879069 0.036341 0
M  V30 61 H 1.375202 3.509127 0.677618 0
M  V30 END ATOM
M  V30 BEGIN BOND
M  V30 1 1 1 2
M  V30 2 1 2 3
M  V30 3 1 2 4
M  V30 4 1 4 5
M  V30 5 1 5 6
M  V30 6 2 6 7
M  V30 7 1 6 8
M  V30 8 1 8 9
M  V30 9 2 9 10
M  V30 10 1 10 11
M  V30 11 2 11 12
M  V30 12 1 12 13
M  V30 13 1 13 14
M  V30 14 1 14 15
M  V30 15 1 14 16
M  V30 16 2 16 17
M  V30 17 1 17 18
M  V30 18 2 18 19
M  V30 19 1 19 20
M  V30 20 2 20 21
M  V30 21 1 21 22
M  V30 22 2 22 23
M  V30 23 1 22 24
M  V30 24 1 24 25
M  V30 25 1 25 26
M  V30 26 2 26 27
M  V30 27 1 27 28
M  V30 28 2 28 29
M  V30 29 1 29 30
M  V30 30 2 30 31
M  V30 31 2 13 32
M  V30 32 1 32 33
M  V30 33 2 33 34
M  V30 34 1 34 35
M  V30 35 1 35 9
M  V30 36 1 34 11
M  V30 37 1 24 14
M  V30 38 1 31 26
M  V30 39 1 21 16
M  V30 40 1 1 36
M  V30 41 1 1 37
M  V30 42 1 1 38
M  V30 43 1 2 39
M  V30 44 1 3 40
M  V30 45 1 3 41
M  V30 46 1 3 42
M  V30 47 1 4 43
M  V30 48 1 4 44
M  V30 49 1 8 45
M  V30 50 1 12 46
M  V30 51 1 15 47
M  V30 52 1 17 48
M  V30 53 1 18 49
M  V30 54 1 19 50
M  V30 55 1 20 51
M  V30 56 1 25 52
M  V30 57 1 25 53
M  V30 58 1 27 54
M  V30 59 1 28 55
M  V30 60 1 29 56
M  V30 61 1 30 57
M  V30 62 1 31 58
M  V30 63 1 32 59
M  V30 64 1 33 60
M  V30 65 1 35 61
M  V30 END BOND
M  V30 END CTAB
M  END
>  <Dataset>  (357) 
ChEMBL_Kinases

>  <Ligand_Instance>  (357) 
nan

>  <PDB_ID>  (357) 
nan

>  <Standardized_SMILES>  (357) 
CC(C)COC(=O)Nc1nc2cc(C3(O)c4ccccc4C(=O)N3Cc3ccccc3)ccc2[nH]1

>  <Name>  (357) 
nan

>  <Pocket>  (357) 
nan

>  <ATP_Site>  (357) 
nan

>  <Peripheral>  (357) 
nan

>  <Num_H_Atoms_ProtBoundConf>  (357) 
nan

>  <Num_Resolved_Atoms>  (357) 
nan

>  <Num_Not_Resolved_Atoms>  (357) 
nan

$$$$
CHEMBL3909741
     RDKit          3D

  0  0  0  0  0  0  0  0  0  0999 V3000
M  V30 BEGIN CTAB
M  V30 COUNTS 134 137 0 0 0
M  V30 BEGIN ATOM
M  V30 1 C 2.159683 -2.655763 6.965799 0
M  V30 2 C 1.783732 -1.570265 6.075294 0
M  V30 3 O 0.540726 -1.721489 5.852235 0
M  V30 4 N 2.330965 -0.450286 5.403992 0
M  V30 5 C 3.678248 -0.056541 5.523295 0
M  V30 6 C 4.572182 -0.632873 6.392249 0
M  V30 7 C 5.899058 -0.296007 6.529322 0
M  V30 8 C 6.431186 0.697780 5.755731 0
M  V30 9 C 5.591146 1.329736 4.853322 0
M  V30 10 C 4.289338 0.924137 4.790534 0
M  V30 11 C 1.503823 0.354928 4.553585 0
M  V30 12 N 1.539754 1.332380 3.780152 0
M  V30 13 C 0.505103 1.801077 3.159103 0
M  V30 14 C 0.789593 2.954449 2.279923 0
M  V30 15 N 1.877248 3.600969 2.014333 0
M  V30 16 O 1.849588 4.679502 1.118148 0
M  V30 17 C 2.145681 4.362153 -0.249624 0
M  V30 18 C 1.711670 5.413365 -1.212593 0
M  V30 19 C 2.054947 5.076548 -2.640920 0
M  V30 20 C 1.413187 3.742655 -3.085104 0
M  V30 21 C 1.726860 3.457646 -4.506652 0
M  V30 22 C 1.208602 2.237173 -5.142951 0
M  V30 23 N 1.573437 0.964920 -4.660113 0
M  V30 24 C 2.782136 0.473088 -5.087002 0
M  V30 25 N 3.078313 -0.720927 -4.582432 0
M  V30 26 C 2.051166 -1.090025 -3.773126 0
M  V30 27 C 1.149372 -0.018829 -3.855114 0
M  V30 28 C -0.122531 -0.029975 -3.121592 0
M  V30 29 C -0.059213 0.523078 -1.727535 0 CFG=2
M  V30 30 N 0.885779 -0.242877 -0.935414 0
M  V30 31 C 2.062753 -0.147095 -0.186501 0
M  V30 32 O 2.529528 0.998485 -0.138022 0
M  V30 33 C 2.689612 -1.305787 0.480462 0 CFG=2
M  V30 34 C 4.097344 -1.595813 -0.053493 0
M  V30 35 C 5.002178 -0.420251 0.154287 0
M  V30 36 C 5.119177 -0.052147 1.620837 0
M  V30 37 C 6.426150 -0.817461 -0.274375 0
M  V30 38 N 1.895915 -2.531538 0.340812 0
M  V30 39 C 1.674250 -3.386566 1.473940 0
M  V30 40 O 2.123027 -3.165382 2.620255 0
M  V30 41 C 0.885329 -4.663181 1.477374 0 CFG=2
M  V30 42 C 1.829058 -5.796371 1.669075 0
M  V30 43 C 1.480481 -6.811150 0.622260 0
M  V30 44 C 0.926105 -5.933387 -0.489346 0
M  V30 45 N 0.217512 -4.881660 0.245139 0
M  V30 46 C -0.949679 -4.203348 -0.214446 0
M  V30 47 C -1.551829 -3.152806 0.683647 0
M  V30 48 O -1.167227 -4.730080 -1.356881 0
M  V30 49 C -1.441565 0.416443 -1.137728 0
M  V30 50 O -2.035000 -0.066366 -0.160482 0
M  V30 51 N -2.404086 1.085247 -1.967524 0
M  V30 52 C -3.817595 1.146805 -1.651243 0 CFG=1
M  V30 53 C -4.439603 2.473818 -1.909781 0
M  V30 54 O -5.808339 2.481623 -1.596916 0
M  V30 55 C -4.449795 0.026872 -2.426406 0
M  V30 56 O -3.728989 -0.722635 -3.175576 0
M  V30 57 N -5.821726 -0.313683 -2.422601 0
M  V30 58 C -6.358779 -1.414908 -3.195690 0 CFG=2
M  V30 59 C -7.334512 -0.923256 -4.210573 0
M  V30 60 N -7.986009 0.190239 -4.776270 0
M  V30 61 O -7.791920 -1.901976 -4.858929 0
M  V30 62 C -6.978885 -2.413875 -2.232909 0 CFG=1
M  V30 63 C -7.549422 -3.613880 -2.944865 0
M  V30 64 O -5.944166 -2.826101 -1.388259 0
M  V30 65 P -6.206077 -2.305329 0.199178 0
M  V30 66 O -7.399270 -1.379029 0.277390 0
M  V30 67 O -6.336715 -3.627314 1.231808 0
M  V30 68 O -4.841079 -1.428838 0.705723 0
M  V30 69 C -0.827576 1.195682 3.328102 0
M  V30 70 S -0.325946 -0.125976 4.504842 0
M  V30 71 H 1.381946 -3.455064 7.059826 0
M  V30 72 H 3.026003 -3.236117 6.512952 0
M  V30 73 H 2.386810 -2.369829 8.006300 0
M  V30 74 H 4.293833 -1.417297 7.067175 0
M  V30 75 H 6.588669 -0.769077 7.225682 0
M  V30 76 H 7.464140 0.984533 5.841041 0
M  V30 77 H 6.027922 2.110530 4.254344 0
M  V30 78 H 3.730695 1.475012 4.060581 0
M  V30 79 H -0.066214 3.363232 1.736200 0
M  V30 80 H 1.501866 3.474657 -0.454675 0
M  V30 81 H 3.185205 4.041209 -0.319169 0
M  V30 82 H 0.589140 5.520481 -1.136865 0
M  V30 83 H 2.181519 6.408460 -1.009652 0
M  V30 84 H 3.156296 5.005680 -2.720233 0
M  V30 85 H 1.600287 5.829221 -3.315441 0
M  V30 86 H 1.851449 2.994406 -2.387424 0
M  V30 87 H 0.329124 3.889130 -2.962830 0
M  V30 88 H 2.869140 3.485877 -4.569736 0
M  V30 89 H 1.458400 4.341333 -5.171231 0
M  V30 90 H 1.478658 2.308339 -6.249379 0
M  V30 91 H 0.060722 2.335932 -5.226707 0
M  V30 92 H 3.552508 0.857919 -5.755625 0
M  V30 93 H 1.932899 -1.979785 -3.197799 0
M  V30 94 H -0.469936 -1.099542 -3.041776 0
M  V30 95 H -0.926401 0.449937 -3.724833 0
M  V30 96 H 0.183399 1.577276 -1.669595 0
M  V30 97 H 0.458333 -1.217188 -0.990770 0
M  V30 98 H 2.844471 -1.169934 1.572112 0
M  V30 99 H 4.062489 -1.824956 -1.132516 0
M  V30 100 H 4.486946 -2.418456 0.576667 0
M  V30 101 H 4.727221 0.477673 -0.409303 0
M  V30 102 H 4.334852 0.682445 1.903487 0
M  V30 103 H 6.101277 0.432299 1.773410 0
M  V30 104 H 5.074109 -0.931782 2.283338 0
M  V30 105 H 6.998094 0.088933 -0.544120 0
M  V30 106 H 6.959495 -1.272980 0.600111 0
M  V30 107 H 6.378991 -1.568036 -1.062458 0
M  V30 108 H 1.433227 -2.920109 -0.495712 0
M  V30 109 H 0.124347 -4.637968 2.299729 0
M  V30 110 H 2.883101 -5.433404 1.563329 0
M  V30 111 H 1.681065 -6.196738 2.704713 0
M  V30 112 H 2.401312 -7.347500 0.321365 0
M  V30 113 H 0.697986 -7.459952 1.034355 0
M  V30 114 H 1.750141 -5.443728 -1.032898 0
M  V30 115 H 0.194811 -6.461205 -1.103368 0
M  V30 116 H -0.851562 -2.322623 0.858216 0
M  V30 117 H -2.477569 -2.745562 0.245151 0
M  V30 118 H -1.804778 -3.660265 1.661864 0
M  V30 119 H -2.259215 1.601847 -2.853062 0
M  V30 120 H -3.997626 0.851781 -0.584234 0
M  V30 121 H -3.952330 3.232138 -1.240739 0
M  V30 122 H -4.288924 2.772362 -2.977065 0
M  V30 123 H -6.361431 2.597048 -2.413115 0
M  V30 124 H -6.446457 0.252961 -1.838110 0
M  V30 125 H -5.566301 -1.945504 -3.759080 0
M  V30 126 H -7.620346 0.593683 -5.682547 0
M  V30 127 H -8.832275 0.613585 -4.295246 0
M  V30 128 H -7.770869 -1.885635 -1.661043 0
M  V30 129 H -6.867365 -3.975841 -3.743955 0
M  V30 130 H -8.590413 -3.440262 -3.299393 0
M  V30 131 H -7.669149 -4.405322 -2.146027 0
M  V30 132 H -6.444490 -3.305848 2.184747 0
M  V30 133 H -5.099493 -0.577492 1.100983 0
M  V30 134 H -1.712827 1.603230 2.792390 0
M  V30 END ATOM
M  V30 BEGIN BOND
M  V30 1 1 1 2
M  V30 2 2 2 3
M  V30 3 1 2 4
M  V30 4 1 4 5
M  V30 5 2 5 6
M  V30 6 1 6 7
M  V30 7 2 7 8
M  V30 8 1 8 9
M  V30 9 2 9 10
M  V30 10 1 4 11
M  V30 11 2 11 12
M  V30 12 1 12 13
M  V30 13 1 13 14
M  V30 14 2 14 15
M  V30 15 1 15 16
M  V30 16 1 16 17
M  V30 17 1 17 18
M  V30 18 1 18 19
M  V30 19 1 19 20
M  V30 20 1 20 21
M  V30 21 1 21 22
M  V30 22 1 22 23
M  V30 23 1 23 24
M  V30 24 2 24 25
M  V30 25 1 25 26
M  V30 26 2 26 27
M  V30 27 1 27 28
M  V30 28 1 28 29
M  V30 29 1 29 30
M  V30 30 1 30 31
M  V30 31 2 31 32
M  V30 32 1 31 33
M  V30 33 1 33 34
M  V30 34 1 34 35
M  V30 35 1 35 36
M  V30 36 1 35 37
M  V30 37 1 33 38
M  V30 38 1 38 39
M  V30 39 2 39 40
M  V30 40 1 39 41
M  V30 41 1 41 42
M  V30 42 1 42 43
M  V30 43 1 43 44
M  V30 44 1 44 45
M  V30 45 1 45 46
M  V30 46 1 46 47
M  V30 47 2 46 48
M  V30 48 1 29 49
M  V30 49 2 49 50
M  V30 50 1 49 51
M  V30 51 1 51 52
M  V30 52 1 52 53
M  V30 53 1 53 54
M  V30 54 1 52 55
M  V30 55 2 55 56
M  V30 56 1 55 57
M  V30 57 1 57 58
M  V30 58 1 58 59
M  V30 59 1 59 60
M  V30 60 2 59 61
M  V30 61 1 58 62
M  V30 62 1 62 63
M  V30 63 1 62 64
M  V30 64 1 64 65
M  V30 65 2 65 66
M  V30 66 1 65 67
M  V30 67 1 65 68
M  V30 68 2 13 69
M  V30 69 1 69 70
M  V30 70 1 10 5
M  V30 71 1 70 11
M  V30 72 1 27 23
M  V30 73 1 45 41
M  V30 74 1 1 71
M  V30 75 1 1 72
M  V30 76 1 1 73
M  V30 77 1 6 74
M  V30 78 1 7 75
M  V30 79 1 8 76
M  V30 80 1 9 77
M  V30 81 1 10 78
M  V30 82 1 14 79
M  V30 83 1 17 80
M  V30 84 1 17 81
M  V30 85 1 18 82
M  V30 86 1 18 83
M  V30 87 1 19 84
M  V30 88 1 19 85
M  V30 89 1 20 86
M  V30 90 1 20 87
M  V30 91 1 21 88
M  V30 92 1 21 89
M  V30 93 1 22 90
M  V30 94 1 22 91
M  V30 95 1 24 92
M  V30 96 1 26 93
M  V30 97 1 28 94
M  V30 98 1 28 95
M  V30 99 1 29 96 CFG=3
M  V30 100 1 30 97
M  V30 101 1 33 98 CFG=1
M  V30 102 1 34 99
M  V30 103 1 34 100
M  V30 104 1 35 101
M  V30 105 1 36 102
M  V30 106 1 36 103
M  V30 107 1 36 104
M  V30 108 1 37 105
M  V30 109 1 37 106
M  V30 110 1 37 107
M  V30 111 1 38 108
M  V30 112 1 41 109 CFG=1
M  V30 113 1 42 110
M  V30 114 1 42 111
M  V30 115 1 43 112
M  V30 116 1 43 113
M  V30 117 1 44 114
M  V30 118 1 44 115
M  V30 119 1 47 116
M  V30 120 1 47 117
M  V30 121 1 47 118
M  V30 122 1 51 119
M  V30 123 1 52 120 CFG=1
M  V30 124 1 53 121
M  V30 125 1 53 122
M  V30 126 1 54 123
M  V30 127 1 57 124
M  V30 128 1 58 125 CFG=3
M  V30 129 1 60 126
M  V30 130 1 60 127
M  V30 131 1 62 128 CFG=1
M  V30 132 1 63 129
M  V30 133 1 63 130
M  V30 134 1 63 131
M  V30 135 1 67 132
M  V30 136 1 68 133
M  V30 137 1 69 134
M  V30 END BOND
M  V30 END CTAB
M  END
>  <Dataset>  (358) 
ChEMBL_Kinases

>  <Ligand_Instance>  (358) 
nan

>  <PDB_ID>  (358) 
nan

>  <Standardized_SMILES>  (358) 
CC(=O)N(c1ccccc1)c1nc(/C=N/OCCCCCCn2cncc2C[C@H](NC(=O)[C@H](CC(C)C)NC(=O)[C@@H]2CCCN2C(C)=O)C(=O)N[C@@H](CO)C(=O)N[C@H](C(N)=O)[C@@H](C)OP(=O)(O)O)cs1

>  <Name>  (358) 
nan

>  <Pocket>  (358) 
nan

>  <ATP_Site>  (358) 
nan

>  <Peripheral>  (358) 
nan

>  <Num_H_Atoms_ProtBoundConf>  (358) 
nan

>  <Num_Resolved_Atoms>  (358) 
nan

>  <Num_Not_Resolved_Atoms>  (358) 
nan

$$$$
CHEMBL3891573
     RDKit          3D

  0  0  0  0  0  0  0  0  0  0999 V3000
M  V30 BEGIN CTAB
M  V30 COUNTS 43 46 0 0 0
M  V30 BEGIN ATOM
M  V30 1 C -1.559862 -8.318498 0.463498 0
M  V30 2 C -1.116174 -7.024535 -0.115985 0
M  V30 3 C 0.211385 -6.716294 -0.312425 0
M  V30 4 C 0.573719 -5.481282 -0.862571 0
M  V30 5 C -0.379546 -4.528540 -1.228080 0
M  V30 6 O 0.269500 -3.436537 -1.730246 0
M  V30 7 C 0.234764 -2.140659 -1.254657 0
M  V30 8 C -0.523304 -1.031319 -1.565137 0
M  V30 9 C -0.321262 0.158011 -0.895821 0
M  V30 10 C 0.630048 0.288640 0.094839 0
M  V30 11 C 0.782872 1.581377 0.756058 0
M  V30 12 N 1.644413 1.904185 1.733815 0
M  V30 13 C 1.479731 3.203557 2.084129 0
M  V30 14 C 2.106397 4.003945 3.018418 0
M  V30 15 C 1.722094 5.325388 3.160523 0
M  V30 16 C 2.319054 6.268993 4.121930 0
M  V30 17 N 3.356135 5.723027 4.929557 0
M  V30 18 O 1.911834 7.462909 4.191421 0
M  V30 19 C 0.707705 5.763891 2.332380 0
M  V30 20 C 0.057400 4.987616 1.384264 0
M  V30 21 C 0.463998 3.671286 1.266168 0
M  V30 22 N 0.043484 2.663439 0.453323 0
M  V30 23 C 1.403759 -0.804867 0.426638 0
M  V30 24 C 1.204271 -2.016390 -0.248716 0
M  V30 25 C -1.687484 -4.868463 -1.018981 0
M  V30 26 Cl -2.800084 -3.611563 -1.509908 0
M  V30 27 C -2.053384 -6.081791 -0.477988 0
M  V30 28 H -0.847005 -9.123584 0.175677 0
M  V30 29 H -2.585154 -8.575621 0.132361 0
M  V30 30 H -1.530898 -8.274537 1.573297 0
M  V30 31 H 0.897072 -7.492832 -0.010116 0
M  V30 32 H 1.664138 -5.427614 -0.937769 0
M  V30 33 H -1.221190 -1.250356 -2.348868 0
M  V30 34 H -0.965246 0.966209 -1.212186 0
M  V30 35 H 2.898351 3.643922 3.658036 0
M  V30 36 H 2.741791 5.253974 5.656091 0
M  V30 37 H 4.382729 5.621877 5.061335 0
M  V30 38 H 0.399667 6.797160 2.436042 0
M  V30 39 H -0.729999 5.392683 0.766983 0
M  V30 40 H -0.712344 2.804382 -0.237031 0
M  V30 41 H 2.120806 -0.639170 1.199699 0
M  V30 42 H 1.896443 -2.774561 0.134977 0
M  V30 43 H -3.115655 -6.246838 -0.356183 0
M  V30 END ATOM
M  V30 BEGIN BOND
M  V30 1 1 1 2
M  V30 2 2 2 3
M  V30 3 1 3 4
M  V30 4 2 4 5
M  V30 5 1 5 6
M  V30 6 1 6 7
M  V30 7 2 7 8
M  V30 8 1 8 9
M  V30 9 2 9 10
M  V30 10 1 10 11
M  V30 11 2 11 12
M  V30 12 1 12 13
M  V30 13 2 13 14
M  V30 14 1 14 15
M  V30 15 1 15 16
M  V30 16 1 16 17
M  V30 17 2 16 18
M  V30 18 2 15 19
M  V30 19 1 19 20
M  V30 20 2 20 21
M  V30 21 1 21 22
M  V30 22 1 10 23
M  V30 23 2 23 24
M  V30 24 1 5 25
M  V30 25 1 25 26
M  V30 26 2 25 27
M  V30 27 1 27 2
M  V30 28 1 24 7
M  V30 29 1 22 11
M  V30 30 1 21 13
M  V30 31 1 1 28
M  V30 32 1 1 29
M  V30 33 1 1 30
M  V30 34 1 3 31
M  V30 35 1 4 32
M  V30 36 1 8 33
M  V30 37 1 9 34
M  V30 38 1 14 35
M  V30 39 1 17 36
M  V30 40 1 17 37
M  V30 41 1 19 38
M  V30 42 1 20 39
M  V30 43 1 22 40
M  V30 44 1 23 41
M  V30 45 1 24 42
M  V30 46 1 27 43
M  V30 END BOND
M  V30 END CTAB
M  END
>  <Dataset>  (359) 
ChEMBL_Kinases

>  <Ligand_Instance>  (359) 
nan

>  <PDB_ID>  (359) 
nan

>  <Standardized_SMILES>  (359) 
Cc1ccc(Oc2ccc(-c3nc4cc(C(N)=O)ccc4[nH]3)cc2)c(Cl)c1

>  <Name>  (359) 
nan

>  <Pocket>  (359) 
nan

>  <ATP_Site>  (359) 
nan

>  <Peripheral>  (359) 
nan

>  <Num_H_Atoms_ProtBoundConf>  (359) 
nan

>  <Num_Resolved_Atoms>  (359) 
nan

>  <Num_Not_Resolved_Atoms>  (359) 
nan

$$$$
CHEMBL3891484
     RDKit          3D

  0  0  0  0  0  0  0  0  0  0999 V3000
M  V30 BEGIN CTAB
M  V30 COUNTS 63 66 0 0 0
M  V30 BEGIN ATOM
M  V30 1 C -0.709831 -0.335753 4.926679 0
M  V30 2 C 0.450589 -0.421188 4.014009 0
M  V30 3 C 1.589366 -1.141143 4.334027 0
M  V30 4 C 2.601497 -1.163073 3.403582 0
M  V30 5 C 2.634127 -0.556088 2.179600 0
M  V30 6 N 3.766806 -0.618253 1.330832 0
M  V30 7 C 4.915749 -1.205381 1.936878 0
M  V30 8 C 3.702564 -0.177087 -0.031150 0
M  V30 9 N 2.641218 0.415507 -0.572646 0
M  V30 10 C 2.418648 0.809271 -1.807182 0
M  V30 11 N 1.082707 1.356370 -1.900403 0
M  V30 12 C 0.064745 0.409271 -1.509198 0
M  V30 13 C -1.231142 0.751492 -1.335891 0
M  V30 14 C -2.192389 -0.142244 -0.926523 0
M  V30 15 N -3.582909 0.054653 -0.713299 0
M  V30 16 C -4.379501 -0.170511 0.510711 0
M  V30 17 C -5.508377 -1.112528 0.161009 0
M  V30 18 O -5.444293 -1.656042 -1.087824 0
M  V30 19 C -5.255096 -0.787763 -2.134510 0
M  V30 20 C -4.538400 0.499026 -1.748644 0
M  V30 21 C -1.862318 -1.473267 -0.666468 0
M  V30 22 C -0.543457 -1.892312 -0.825264 0
M  V30 23 S -0.010141 -3.534515 -0.512990 0
M  V30 24 C -0.242430 -4.456257 -2.041180 0
M  V30 25 O -0.765290 -4.139769 0.612430 0
M  V30 26 O 1.472085 -3.472617 -0.242663 0
M  V30 27 C 0.347800 -0.924870 -1.240234 0
M  V30 28 N 3.399027 0.599376 -2.696730 0
M  V30 29 C 4.563570 -0.000752 -2.300994 0
M  V30 30 C 4.682033 -0.374096 -0.970695 0
M  V30 31 F 5.840286 -0.973526 -0.632096 0
M  V30 32 C 1.463515 0.132627 1.951383 0
M  V30 33 C 0.395609 0.223111 2.804380 0
M  V30 34 C -0.836431 1.006535 2.474504 0
M  V30 35 O -0.517093 2.014542 1.544294 0
M  V30 36 H -1.621485 -0.611608 4.326023 0
M  V30 37 H -0.601868 -1.006044 5.784897 0
M  V30 38 H -0.841598 0.687566 5.274298 0
M  V30 39 H 1.584927 -1.627888 5.287681 0
M  V30 40 H 3.416891 -1.782478 3.794979 0
M  V30 41 H 4.888870 -2.308039 1.920820 0
M  V30 42 H 5.852238 -0.787256 1.513163 0
M  V30 43 H 4.953737 -0.884217 3.014671 0
M  V30 44 H 0.729376 2.303077 -2.201651 0
M  V30 45 H -1.553107 1.753557 -1.515128 0
M  V30 46 H -3.777378 -0.462728 1.365700 0
M  V30 47 H -4.858839 0.822252 0.746450 0
M  V30 48 H -6.517705 -0.685722 0.412620 0
M  V30 49 H -5.416314 -1.978086 0.887230 0
M  V30 50 H -4.519668 -1.305622 -2.820588 0
M  V30 51 H -6.139501 -0.524865 -2.713500 0
M  V30 52 H -3.945390 0.836140 -2.609521 0
M  V30 53 H -5.203869 1.286543 -1.398979 0
M  V30 54 H -2.530475 -2.268206 -0.344386 0
M  V30 55 H 0.292697 -3.891615 -2.836793 0
M  V30 56 H -1.341115 -4.508862 -2.219812 0
M  V30 57 H 0.197854 -5.463840 -1.930800 0
M  V30 58 H 1.369138 -1.308433 -1.361927 0
M  V30 59 H 5.289251 -0.134682 -3.060444 0
M  V30 60 H 1.282855 0.692514 1.054320 0
M  V30 61 H -1.585802 0.342325 2.035737 0
M  V30 62 H -1.259807 1.504866 3.377669 0
M  V30 63 H -0.212221 2.836037 1.949832 0
M  V30 END ATOM
M  V30 BEGIN BOND
M  V30 1 1 1 2
M  V30 2 2 2 3
M  V30 3 1 3 4
M  V30 4 2 4 5
M  V30 5 1 5 6
M  V30 6 1 6 7
M  V30 7 1 6 8
M  V30 8 2 8 9
M  V30 9 1 9 10
M  V30 10 1 10 11
M  V30 11 1 11 12
M  V30 12 2 12 13
M  V30 13 1 13 14
M  V30 14 1 14 15
M  V30 15 1 15 16
M  V30 16 1 16 17
M  V30 17 1 17 18
M  V30 18 1 18 19
M  V30 19 1 19 20
M  V30 20 2 14 21
M  V30 21 1 21 22
M  V30 22 1 22 23
M  V30 23 1 23 24
M  V30 24 2 23 25
M  V30 25 2 23 26
M  V30 26 2 22 27
M  V30 27 2 10 28
M  V30 28 1 28 29
M  V30 29 2 29 30
M  V30 30 1 30 31
M  V30 31 1 5 32
M  V30 32 2 32 33
M  V30 33 1 33 34
M  V30 34 1 34 35
M  V30 35 1 33 2
M  V30 36 1 30 8
M  V30 37 1 27 12
M  V30 38 1 20 15
M  V30 39 1 1 36
M  V30 40 1 1 37
M  V30 41 1 1 38
M  V30 42 1 3 39
M  V30 43 1 4 40
M  V30 44 1 7 41
M  V30 45 1 7 42
M  V30 46 1 7 43
M  V30 47 1 11 44
M  V30 48 1 13 45
M  V30 49 1 16 46
M  V30 50 1 16 47
M  V30 51 1 17 48
M  V30 52 1 17 49
M  V30 53 1 19 50
M  V30 54 1 19 51
M  V30 55 1 20 52
M  V30 56 1 20 53
M  V30 57 1 21 54
M  V30 58 1 24 55
M  V30 59 1 24 56
M  V30 60 1 24 57
M  V30 61 1 27 58
M  V30 62 1 29 59
M  V30 63 1 32 60
M  V30 64 1 34 61
M  V30 65 1 34 62
M  V30 66 1 35 63
M  V30 END BOND
M  V30 END CTAB
M  END
>  <Dataset>  (360) 
ChEMBL_Kinases

>  <Ligand_Instance>  (360) 
nan

>  <PDB_ID>  (360) 
nan

>  <Standardized_SMILES>  (360) 
Cc1ccc(N(C)c2nc(Nc3cc(N4CCOCC4)cc(S(C)(=O)=O)c3)ncc2F)cc1CO

>  <Name>  (360) 
nan

>  <Pocket>  (360) 
nan

>  <ATP_Site>  (360) 
nan

>  <Peripheral>  (360) 
nan

>  <Num_H_Atoms_ProtBoundConf>  (360) 
nan

>  <Num_Resolved_Atoms>  (360) 
nan

>  <Num_Not_Resolved_Atoms>  (360) 
nan

$$$$
CHEMBL3891392
     RDKit          3D

  0  0  0  0  0  0  0  0  0  0999 V3000
M  V30 BEGIN CTAB
M  V30 COUNTS 44 48 0 0 0
M  V30 BEGIN ATOM
M  V30 1 C -1.943133 -6.355996 -0.176397 0
M  V30 2 O -0.621199 -6.712504 -0.534436 0
M  V30 3 C 0.363101 -5.735317 -0.571130 0
M  V30 4 C 0.270482 -4.368570 -0.298040 0
M  V30 5 C 1.405701 -3.598658 -0.406516 0
M  V30 6 C 1.255208 -2.177737 -0.110533 0
M  V30 7 C 0.353758 -1.690753 0.813697 0
M  V30 8 C 0.270077 -0.334426 1.040269 0
M  V30 9 C 1.041423 0.601682 0.394586 0
M  V30 10 C 1.101157 1.971068 0.484281 0
M  V30 11 C 0.367715 2.915561 1.297088 0
M  V30 12 C 0.619641 4.285813 1.205057 0
M  V30 13 C -0.177100 5.012266 2.056735 0
M  V30 14 C -0.318071 6.348401 2.341999 0
M  V30 15 C -1.256233 6.699972 3.289553 0
M  V30 16 C -2.049483 5.790149 3.956383 0
M  V30 17 C -1.882912 4.455399 3.646605 0
M  V30 18 C -0.947126 4.099484 2.700708 0
M  V30 19 N -0.590548 2.898805 2.222481 0
M  V30 20 N 2.066793 2.268536 -0.417996 0
M  V30 21 N 2.544607 1.191816 -0.996222 0
M  V30 22 C 1.934911 0.088737 -0.525060 0
M  V30 23 C 2.046141 -1.264779 -0.777961 0
M  V30 24 C 2.647605 -4.075157 -0.768817 0
M  V30 25 C 2.725071 -5.427598 -1.035857 0
M  V30 26 C 1.614390 -6.239779 -0.940666 0
M  V30 27 O 1.854502 -7.576118 -1.240589 0
M  V30 28 H -2.395216 -7.277745 0.285360 0
M  V30 29 H -2.522307 -6.065590 -1.083454 0
M  V30 30 H -1.976215 -5.559291 0.565431 0
M  V30 31 H -0.713165 -4.069515 -0.025912 0
M  V30 32 H -0.276600 -2.381028 1.349137 0
M  V30 33 H -0.449042 -0.019234 1.770430 0
M  V30 34 H 1.340278 4.813034 0.565974 0
M  V30 35 H 0.302773 7.062556 1.819715 0
M  V30 36 H -1.354111 7.754056 3.501316 0
M  V30 37 H -2.788590 6.068635 4.703355 0
M  V30 38 H -2.479967 3.704831 4.141359 0
M  V30 39 H -1.028773 2.018519 2.548687 0
M  V30 40 H 3.290823 1.242073 -1.712699 0
M  V30 41 H 2.769019 -1.546121 -1.508211 0
M  V30 42 H 3.466071 -3.372037 -0.819270 0
M  V30 43 H 3.706048 -5.796832 -1.320906 0
M  V30 44 H 1.810382 -8.317426 -0.551948 0
M  V30 END ATOM
M  V30 BEGIN BOND
M  V30 1 1 1 2
M  V30 2 1 2 3
M  V30 3 2 3 4
M  V30 4 1 4 5
M  V30 5 1 5 6
M  V30 6 2 6 7
M  V30 7 1 7 8
M  V30 8 2 8 9
M  V30 9 1 9 10
M  V30 10 1 10 11
M  V30 11 2 11 12
M  V30 12 1 12 13
M  V30 13 2 13 14
M  V30 14 1 14 15
M  V30 15 2 15 16
M  V30 16 1 16 17
M  V30 17 2 17 18
M  V30 18 1 18 19
M  V30 19 2 10 20
M  V30 20 1 20 21
M  V30 21 1 21 22
M  V30 22 2 22 23
M  V30 23 2 5 24
M  V30 24 1 24 25
M  V30 25 2 25 26
M  V30 26 1 26 27
M  V30 27 1 26 3
M  V30 28 1 23 6
M  V30 29 1 22 9
M  V30 30 1 19 11
M  V30 31 1 18 13
M  V30 32 1 1 28
M  V30 33 1 1 29
M  V30 34 1 1 30
M  V30 35 1 4 31
M  V30 36 1 7 32
M  V30 37 1 8 33
M  V30 38 1 12 34
M  V30 39 1 14 35
M  V30 40 1 15 36
M  V30 41 1 16 37
M  V30 42 1 17 38
M  V30 43 1 19 39
M  V30 44 1 21 40
M  V30 45 1 23 41
M  V30 46 1 24 42
M  V30 47 1 25 43
M  V30 48 1 27 44
M  V30 END BOND
M  V30 END CTAB
M  END
>  <Dataset>  (361) 
ChEMBL_Kinases

>  <Ligand_Instance>  (361) 
nan

>  <PDB_ID>  (361) 
nan

>  <Standardized_SMILES>  (361) 
COc1cc(-c2ccc3c(-c4cc5ccccc5[nH]4)n[nH]c3c2)ccc1O

>  <Name>  (361) 
nan

>  <Pocket>  (361) 
nan

>  <ATP_Site>  (361) 
nan

>  <Peripheral>  (361) 
nan

>  <Num_H_Atoms_ProtBoundConf>  (361) 
nan

>  <Num_Resolved_Atoms>  (361) 
nan

>  <Num_Not_Resolved_Atoms>  (361) 
nan

$$$$
CHEMBL3909532
     RDKit          3D

  0  0  0  0  0  0  0  0  0  0999 V3000
M  V30 BEGIN CTAB
M  V30 COUNTS 46 49 0 0 0
M  V30 BEGIN ATOM
M  V30 1 C -0.226885 -7.644639 0.452230 0
M  V30 2 C -0.269080 -7.611807 -1.047788 0
M  V30 3 C -0.034306 -6.248007 -1.598974 0
M  V30 4 C 1.242260 -5.838690 -1.889406 0
M  V30 5 C 1.491399 -4.571009 -2.405190 0
M  V30 6 C 0.410405 -3.730621 -2.618069 0
M  V30 7 S 0.447090 -2.063629 -3.266268 0
M  V30 8 C 0.620229 -0.841800 -1.971755 0
M  V30 9 C 1.794579 -0.328739 -1.457354 0
M  V30 10 C 1.723287 0.620240 -0.446110 0
M  V30 11 C 0.497299 1.036665 0.029519 0
M  V30 12 C 0.449009 2.038254 1.096374 0
M  V30 13 N -0.659897 2.546018 1.666698 0
M  V30 14 C -0.332681 3.446173 2.615602 0
M  V30 15 C -1.051442 4.258463 3.499295 0
M  V30 16 C -0.312583 5.066456 4.338890 0
M  V30 17 C -1.106445 5.893891 5.240796 0
M  V30 18 N -0.650741 6.820224 6.212692 0
M  V30 19 O -2.363122 5.838318 5.217094 0
M  V30 20 C 1.065257 5.139782 4.379559 0
M  V30 21 C 1.723008 4.304389 3.472943 0
M  V30 22 C 1.054599 3.467706 2.600891 0
M  V30 23 N 1.515665 2.616728 1.682937 0
M  V30 24 C -0.688216 0.533113 -0.474427 0
M  V30 25 C -0.606060 -0.418208 -1.488498 0
M  V30 26 C -0.874039 -4.167753 -2.316088 0
M  V30 27 C -1.135270 -5.435027 -1.799191 0
M  V30 28 H -0.402978 -8.693214 0.756127 0
M  V30 29 H -1.037418 -7.049959 0.884014 0
M  V30 30 H 0.766502 -7.273777 0.823722 0
M  V30 31 H -1.306770 -7.949082 -1.336986 0
M  V30 32 H 0.471981 -8.339655 -1.431409 0
M  V30 33 H 2.128228 -6.466525 -1.738509 0
M  V30 34 H 2.434132 -4.143843 -2.667935 0
M  V30 35 H 2.685091 -0.729723 -1.907743 0
M  V30 36 H 2.669070 0.995903 -0.071832 0
M  V30 37 H -2.110998 4.214585 3.481466 0
M  V30 38 H -0.349210 6.485612 7.174829 0
M  V30 39 H -0.553078 7.862461 6.137101 0
M  V30 40 H 1.585928 5.795498 5.063089 0
M  V30 41 H 2.822505 4.343406 3.484637 0
M  V30 42 H 2.510410 2.388687 1.413306 0
M  V30 43 H -1.641725 0.891194 -0.068150 0
M  V30 44 H -1.586296 -0.753930 -1.819389 0
M  V30 45 H -1.788498 -3.573445 -2.451048 0
M  V30 46 H -2.131900 -5.777156 -1.563791 0
M  V30 END ATOM
M  V30 BEGIN BOND
M  V30 1 1 1 2
M  V30 2 1 2 3
M  V30 3 2 3 4
M  V30 4 1 4 5
M  V30 5 2 5 6
M  V30 6 1 6 7
M  V30 7 1 7 8
M  V30 8 2 8 9
M  V30 9 1 9 10
M  V30 10 2 10 11
M  V30 11 1 11 12
M  V30 12 2 12 13
M  V30 13 1 13 14
M  V30 14 2 14 15
M  V30 15 1 15 16
M  V30 16 1 16 17
M  V30 17 1 17 18
M  V30 18 2 17 19
M  V30 19 2 16 20
M  V30 20 1 20 21
M  V30 21 2 21 22
M  V30 22 1 22 23
M  V30 23 1 11 24
M  V30 24 2 24 25
M  V30 25 1 6 26
M  V30 26 2 26 27
M  V30 27 1 27 3
M  V30 28 1 25 8
M  V30 29 1 23 12
M  V30 30 1 22 14
M  V30 31 1 1 28
M  V30 32 1 1 29
M  V30 33 1 1 30
M  V30 34 1 2 31
M  V30 35 1 2 32
M  V30 36 1 4 33
M  V30 37 1 5 34
M  V30 38 1 9 35
M  V30 39 1 10 36
M  V30 40 1 15 37
M  V30 41 1 18 38
M  V30 42 1 18 39
M  V30 43 1 20 40
M  V30 44 1 21 41
M  V30 45 1 23 42
M  V30 46 1 24 43
M  V30 47 1 25 44
M  V30 48 1 26 45
M  V30 49 1 27 46
M  V30 END BOND
M  V30 END CTAB
M  END
>  <Dataset>  (362) 
ChEMBL_Kinases

>  <Ligand_Instance>  (362) 
nan

>  <PDB_ID>  (362) 
nan

>  <Standardized_SMILES>  (362) 
CCc1ccc(Sc2ccc(-c3nc4cc(C(N)=O)ccc4[nH]3)cc2)cc1

>  <Name>  (362) 
nan

>  <Pocket>  (362) 
nan

>  <ATP_Site>  (362) 
nan

>  <Peripheral>  (362) 
nan

>  <Num_H_Atoms_ProtBoundConf>  (362) 
nan

>  <Num_Resolved_Atoms>  (362) 
nan

>  <Num_Not_Resolved_Atoms>  (362) 
nan

$$$$
CHEMBL3891301
     RDKit          3D

  0  0  0  0  0  0  0  0  0  0999 V3000
M  V30 BEGIN CTAB
M  V30 COUNTS 51 55 0 0 0
M  V30 BEGIN ATOM
M  V30 1 O -1.360492 -1.501488 1.708473 0
M  V30 2 C -1.274902 -2.775572 1.653026 0
M  V30 3 N -0.096595 -3.177596 0.984849 0
M  V30 4 C 0.670143 -2.057092 0.557598 0
M  V30 5 C 1.642522 -1.476135 1.350023 0
M  V30 6 C 2.342954 -0.391345 0.861699 0
M  V30 7 C 2.155763 0.170329 -0.361276 0
M  V30 8 C 2.878941 1.313860 -0.889721 0
M  V30 9 N 3.294845 1.094824 -2.171609 0
M  V30 10 N 3.974839 1.993253 -2.865590 0
M  V30 11 C 4.285980 3.180716 -2.316834 0
M  V30 12 O 4.931862 4.094113 -2.908548 0
M  V30 13 C 3.886097 3.445124 -1.024696 0
M  V30 14 C 3.177897 2.520137 -0.290782 0
M  V30 15 C 2.687549 2.668254 1.077511 0
M  V30 16 C 2.345568 4.094263 1.337585 0
M  V30 17 C 2.925716 5.098679 0.415529 0
M  V30 18 C 4.169881 4.715883 -0.306020 0
M  V30 19 C 1.165258 -0.437419 -1.143427 0
M  V30 20 C 0.441560 -1.523335 -0.694389 0
M  V30 21 N -2.223520 -3.713839 2.183946 0
M  V30 22 C -2.492381 -5.121874 2.328078 0
M  V30 23 C -3.910382 -5.251250 1.878094 0
M  V30 24 C -4.702159 -6.191989 1.254171 0
M  V30 25 C -6.035695 -5.986415 0.970726 0
M  V30 26 C -6.577640 -4.772620 1.340109 0
M  V30 27 C -5.833847 -3.785573 1.970505 0
M  V30 28 C -4.504586 -4.046861 2.228868 0
M  V30 29 C -3.430437 -3.252212 2.868566 0
M  V30 30 H 0.113214 -4.208892 0.860482 0
M  V30 31 H 1.802460 -1.907890 2.318179 0
M  V30 32 H 3.083296 0.014209 1.514157 0
M  V30 33 H 4.284575 1.801440 -3.852675 0
M  V30 34 H 3.529341 2.371075 1.766248 0
M  V30 35 H 1.822417 2.022922 1.315066 0
M  V30 36 H 2.621258 4.323013 2.409421 0
M  V30 37 H 1.216007 4.167840 1.361102 0
M  V30 38 H 2.157099 5.312227 -0.384477 0
M  V30 39 H 3.021093 6.066137 0.971533 0
M  V30 40 H 4.363695 5.510893 -1.067969 0
M  V30 41 H 5.066548 4.656476 0.339360 0
M  V30 42 H 0.932805 -0.062187 -2.150489 0
M  V30 43 H -0.316119 -1.965092 -1.329485 0
M  V30 44 H -2.457683 -5.449627 3.389402 0
M  V30 45 H -1.806634 -5.778138 1.762241 0
M  V30 46 H -4.225665 -7.133984 0.983228 0
M  V30 47 H -6.608508 -6.760660 0.479154 0
M  V30 48 H -7.615245 -4.547572 1.147698 0
M  V30 49 H -6.259721 -2.840056 2.257318 0
M  V30 50 H -3.663317 -2.194442 2.672684 0
M  V30 51 H -3.347954 -3.451220 3.966016 0
M  V30 END ATOM
M  V30 BEGIN BOND
M  V30 1 2 1 2
M  V30 2 1 2 3
M  V30 3 1 3 4
M  V30 4 2 4 5
M  V30 5 1 5 6
M  V30 6 2 6 7
M  V30 7 1 7 8
M  V30 8 2 8 9
M  V30 9 1 9 10
M  V30 10 1 10 11
M  V30 11 2 11 12
M  V30 12 1 11 13
M  V30 13 2 13 14
M  V30 14 1 14 15
M  V30 15 1 15 16
M  V30 16 1 16 17
M  V30 17 1 17 18
M  V30 18 1 7 19
M  V30 19 2 19 20
M  V30 20 1 2 21
M  V30 21 1 21 22
M  V30 22 1 22 23
M  V30 23 2 23 24
M  V30 24 1 24 25
M  V30 25 2 25 26
M  V30 26 1 26 27
M  V30 27 2 27 28
M  V30 28 1 28 29
M  V30 29 1 20 4
M  V30 30 1 29 21
M  V30 31 1 14 8
M  V30 32 1 28 23
M  V30 33 1 18 13
M  V30 34 1 3 30
M  V30 35 1 5 31
M  V30 36 1 6 32
M  V30 37 1 10 33
M  V30 38 1 15 34
M  V30 39 1 15 35
M  V30 40 1 16 36
M  V30 41 1 16 37
M  V30 42 1 17 38
M  V30 43 1 17 39
M  V30 44 1 18 40
M  V30 45 1 18 41
M  V30 46 1 19 42
M  V30 47 1 20 43
M  V30 48 1 22 44
M  V30 49 1 22 45
M  V30 50 1 24 46
M  V30 51 1 25 47
M  V30 52 1 26 48
M  V30 53 1 27 49
M  V30 54 1 29 50
M  V30 55 1 29 51
M  V30 END BOND
M  V30 END CTAB
M  END
>  <Dataset>  (363) 
ChEMBL_Kinases

>  <Ligand_Instance>  (363) 
nan

>  <PDB_ID>  (363) 
nan

>  <Standardized_SMILES>  (363) 
O=C(Nc1ccc(-c2n[nH]c(=O)c3c2CCCC3)cc1)N1Cc2ccccc2C1

>  <Name>  (363) 
nan

>  <Pocket>  (363) 
nan

>  <ATP_Site>  (363) 
nan

>  <Peripheral>  (363) 
nan

>  <Num_H_Atoms_ProtBoundConf>  (363) 
nan

>  <Num_Resolved_Atoms>  (363) 
nan

>  <Num_Not_Resolved_Atoms>  (363) 
nan

$$$$
CHEMBL3909553
     RDKit          3D

  0  0  0  0  0  0  0  0  0  0999 V3000
M  V30 BEGIN CTAB
M  V30 COUNTS 54 58 0 0 0
M  V30 BEGIN ATOM
M  V30 1 C 3.130445 -5.027021 2.577682 0
M  V30 2 C 3.027054 -3.850212 2.894478 0
M  V30 3 C 2.889682 -2.470746 3.285523 0
M  V30 4 C 3.296755 -2.001000 4.516406 0
M  V30 5 C 3.123655 -0.654434 4.803097 0
M  V30 6 Cl 3.657678 -0.133445 6.367715 0
M  V30 7 C 2.550839 0.172773 3.850978 0
M  V30 8 C 2.140322 -0.313108 2.603488 0
M  V30 9 N 1.592897 0.737061 1.823345 0
M  V30 10 C 2.580805 1.392835 0.999707 0
M  V30 11 O 3.814200 1.264473 0.787021 0
M  V30 12 C 1.922831 2.467296 0.246921 0
M  V30 13 C 2.251493 3.446480 -0.679190 0
M  V30 14 C 1.349367 4.325245 -1.196884 0
M  V30 15 C 0.028921 4.269413 -0.803186 0
M  V30 16 C -0.373837 3.326746 0.110903 0
M  V30 17 C 0.581468 2.447140 0.615265 0
M  V30 18 C 0.314945 1.378834 1.597079 0
M  V30 19 O -0.026927 2.008201 2.802465 0
M  V30 20 C -0.762298 0.477114 1.193695 0
M  V30 21 C -1.872177 0.289108 2.019834 0
M  V30 22 C -2.967975 -0.515853 1.788719 0
M  V30 23 C -2.953133 -1.206694 0.605838 0
M  V30 24 N -3.839703 -2.063297 0.072649 0
M  V30 25 C -3.374714 -2.492721 -1.131862 0
M  V30 26 N -4.019939 -3.410074 -2.015204 0
M  V30 27 C -3.397088 -3.754204 -3.237639 0
M  V30 28 O -2.302520 -3.306893 -3.611615 0
M  V30 29 O -4.103349 -4.656524 -4.031100 0
M  V30 30 C -3.606561 -5.101446 -5.293092 0
M  V30 31 N -2.189190 -1.884686 -1.326601 0
M  V30 32 C -1.893827 -1.087381 -0.284341 0
M  V30 33 C -0.836994 -0.255967 0.031572 0
M  V30 34 C 2.321134 -1.652706 2.338775 0
M  V30 35 C 1.860000 -2.056030 1.002291 0
M  V30 36 H 3.211459 -6.041359 2.287931 0
M  V30 37 H 3.722347 -2.748821 5.154229 0
M  V30 38 H 2.478172 1.196895 4.211936 0
M  V30 39 H 3.285217 3.484021 -0.982085 0
M  V30 40 H 1.685436 5.062319 -1.917186 0
M  V30 41 H -0.700384 4.968910 -1.212279 0
M  V30 42 H -1.398253 3.318765 0.386122 0
M  V30 43 H 0.078707 1.343014 3.528156 0
M  V30 44 H -1.883562 0.844734 2.970644 0
M  V30 45 H -3.756088 -0.578189 2.495323 0
M  V30 46 H -4.730633 -2.350944 0.505072 0
M  V30 47 H -4.945276 -3.805905 -1.729101 0
M  V30 48 H -4.386262 -5.159643 -6.053888 0
M  V30 49 H -2.856673 -4.351403 -5.632565 0
M  V30 50 H -3.034007 -6.046495 -5.166781 0
M  V30 51 H 0.010155 -0.150519 -0.664404 0
M  V30 52 H 0.805029 -2.431456 1.015872 0
M  V30 53 H 2.469685 -2.918293 0.630867 0
M  V30 54 H 1.921631 -1.267362 0.256105 0
M  V30 END ATOM
M  V30 BEGIN BOND
M  V30 1 3 1 2
M  V30 2 1 2 3
M  V30 3 2 3 4
M  V30 4 1 4 5
M  V30 5 1 5 6
M  V30 6 2 5 7
M  V30 7 1 7 8
M  V30 8 1 8 9
M  V30 9 1 9 10
M  V30 10 2 10 11
M  V30 11 1 10 12
M  V30 12 2 12 13
M  V30 13 1 13 14
M  V30 14 2 14 15
M  V30 15 1 15 16
M  V30 16 2 16 17
M  V30 17 1 17 18
M  V30 18 1 18 19
M  V30 19 1 18 20
M  V30 20 2 20 21
M  V30 21 1 21 22
M  V30 22 2 22 23
M  V30 23 1 23 24
M  V30 24 1 24 25
M  V30 25 1 25 26
M  V30 26 1 26 27
M  V30 27 2 27 28
M  V30 28 1 27 29
M  V30 29 1 29 30
M  V30 30 2 25 31
M  V30 31 1 31 32
M  V30 32 2 32 33
M  V30 33 2 8 34
M  V30 34 1 34 35
M  V30 35 1 34 3
M  V30 36 1 18 9
M  V30 37 1 33 20
M  V30 38 1 17 12
M  V30 39 1 32 23
M  V30 40 1 1 36
M  V30 41 1 4 37
M  V30 42 1 7 38
M  V30 43 1 13 39
M  V30 44 1 14 40
M  V30 45 1 15 41
M  V30 46 1 16 42
M  V30 47 1 19 43
M  V30 48 1 21 44
M  V30 49 1 22 45
M  V30 50 1 24 46
M  V30 51 1 26 47
M  V30 52 1 30 48
M  V30 53 1 30 49
M  V30 54 1 30 50
M  V30 55 1 33 51
M  V30 56 1 35 52
M  V30 57 1 35 53
M  V30 58 1 35 54
M  V30 END BOND
M  V30 END CTAB
M  END
>  <Dataset>  (364) 
ChEMBL_Kinases

>  <Ligand_Instance>  (364) 
nan

>  <PDB_ID>  (364) 
nan

>  <Standardized_SMILES>  (364) 
C#Cc1cc(Cl)cc(N2C(=O)c3ccccc3C2(O)c2ccc3[nH]c(NC(=O)OC)nc3c2)c1C

>  <Name>  (364) 
nan

>  <Pocket>  (364) 
nan

>  <ATP_Site>  (364) 
nan

>  <Peripheral>  (364) 
nan

>  <Num_H_Atoms_ProtBoundConf>  (364) 
nan

>  <Num_Resolved_Atoms>  (364) 
nan

>  <Num_Not_Resolved_Atoms>  (364) 
nan

$$$$
CHEMBL3909653
     RDKit          3D

  0  0  0  0  0  0  0  0  0  0999 V3000
M  V30 BEGIN CTAB
M  V30 COUNTS 51 55 0 0 0
M  V30 BEGIN ATOM
M  V30 1 C 6.339258 -3.733331 5.192161 0
M  V30 2 O 5.686370 -2.475103 5.018972 0
M  V30 3 C 4.764107 -2.230067 4.022966 0
M  V30 4 O 4.362298 -3.037858 3.140576 0
M  V30 5 N 4.218355 -0.893571 4.017832 0
M  V30 6 C 3.251324 -0.565072 3.008554 0
M  V30 7 N 3.438961 -0.055330 1.764847 0
M  V30 8 C 2.239156 0.095425 1.157315 0
M  V30 9 C 1.833602 0.557578 -0.080172 0
M  V30 10 C 0.495176 0.608443 -0.463415 0
M  V30 11 C -0.449505 0.173286 0.448490 0
M  V30 12 C -1.881485 0.221404 0.054240 0
M  V30 13 O -2.718377 0.060321 1.161637 0
M  V30 14 C -2.152780 1.513092 -0.582550 0
M  V30 15 C -2.081902 2.738093 -0.149218 0
M  V30 16 C -2.406285 3.906806 -0.974814 0
M  V30 17 Cl -0.945615 4.947489 -1.026243 0
M  V30 18 Cl -3.631097 4.865027 -0.077252 0
M  V30 19 C -2.830964 3.625856 -2.365023 0
M  V30 20 C -2.873464 2.214396 -2.740481 0
M  V30 21 C -2.565961 1.224600 -1.937719 0
M  V30 22 C -2.562091 -0.221815 -2.172730 0
M  V30 23 O -2.867410 -0.790388 -3.234928 0
M  V30 24 N -2.138904 -0.799576 -0.934000 0
M  V30 25 C -1.977360 -2.186644 -0.660771 0
M  V30 26 C -3.031986 -2.928379 -0.168113 0
M  V30 27 C -2.950843 -4.284016 0.122283 0
M  V30 28 C -1.719771 -4.859025 -0.117960 0
M  V30 29 C -0.624560 -4.180038 -0.608365 0
M  V30 30 Br 1.042776 -5.078227 -0.905982 0
M  V30 31 C -0.762473 -2.842953 -0.877209 0
M  V30 32 C -0.032884 -0.285890 1.680632 0
M  V30 33 C 1.288147 -0.344974 2.081184 0
M  V30 34 N 1.943362 -0.735605 3.186843 0
M  V30 35 H 7.429671 -3.549794 5.180574 0
M  V30 36 H 6.145409 -4.401127 4.321496 0
M  V30 37 H 5.968283 -4.252684 6.095472 0
M  V30 38 H 4.469605 -0.137640 4.692577 0
M  V30 39 H 2.620874 0.890012 -0.764321 0
M  V30 40 H 0.275200 0.985123 -1.450941 0
M  V30 41 H -2.667182 -0.869692 1.470228 0
M  V30 42 H -1.773487 2.957928 0.863202 0
M  V30 43 H -3.881369 4.016431 -2.494801 0
M  V30 44 H -2.204752 4.163932 -3.112975 0
M  V30 45 H -3.189439 2.047199 -3.767710 0
M  V30 46 H -3.988818 -2.429482 0.006507 0
M  V30 47 H -3.798930 -4.838684 0.508750 0
M  V30 48 H -1.567830 -5.926279 0.083926 0
M  V30 49 H 0.099988 -2.283036 -1.269259 0
M  V30 50 H -0.805115 -0.622245 2.377497 0
M  V30 51 H 1.418417 -1.100627 4.002851 0
M  V30 END ATOM
M  V30 BEGIN BOND
M  V30 1 1 1 2
M  V30 2 1 2 3
M  V30 3 2 3 4
M  V30 4 1 3 5
M  V30 5 1 5 6
M  V30 6 2 6 7
M  V30 7 1 7 8
M  V30 8 2 8 9
M  V30 9 1 9 10
M  V30 10 2 10 11
M  V30 11 1 11 12
M  V30 12 1 12 13
M  V30 13 1 12 14
M  V30 14 2 14 15
M  V30 15 1 15 16
M  V30 16 1 16 17
M  V30 17 1 16 18
M  V30 18 1 16 19
M  V30 19 1 19 20
M  V30 20 2 20 21
M  V30 21 1 21 22
M  V30 22 2 22 23
M  V30 23 1 22 24
M  V30 24 1 24 25
M  V30 25 2 25 26
M  V30 26 1 26 27
M  V30 27 2 27 28
M  V30 28 1 28 29
M  V30 29 1 29 30
M  V30 30 2 29 31
M  V30 31 1 11 32
M  V30 32 2 32 33
M  V30 33 1 33 34
M  V30 34 1 34 6
M  V30 35 1 33 8
M  V30 36 1 24 12
M  V30 37 1 31 25
M  V30 38 1 21 14
M  V30 39 1 1 35
M  V30 40 1 1 36
M  V30 41 1 1 37
M  V30 42 1 5 38
M  V30 43 1 9 39
M  V30 44 1 10 40
M  V30 45 1 13 41
M  V30 46 1 15 42
M  V30 47 1 19 43
M  V30 48 1 19 44
M  V30 49 1 20 45
M  V30 50 1 26 46
M  V30 51 1 27 47
M  V30 52 1 28 48
M  V30 53 1 31 49
M  V30 54 1 32 50
M  V30 55 1 34 51
M  V30 END BOND
M  V30 END CTAB
M  END
>  <Dataset>  (365) 
ChEMBL_Kinases

>  <Ligand_Instance>  (365) 
nan

>  <PDB_ID>  (365) 
nan

>  <Standardized_SMILES>  (365) 
COC(=O)Nc1nc2ccc(C3(O)C4=CC(Cl)(Cl)CC=C4C(=O)N3c3cccc(Br)c3)cc2[nH]1

>  <Name>  (365) 
nan

>  <Pocket>  (365) 
nan

>  <ATP_Site>  (365) 
nan

>  <Peripheral>  (365) 
nan

>  <Num_H_Atoms_ProtBoundConf>  (365) 
nan

>  <Num_Resolved_Atoms>  (365) 
nan

>  <Num_Not_Resolved_Atoms>  (365) 
nan

$$$$
CHEMBL3891219
     RDKit          3D

  0  0  0  0  0  0  0  0  0  0999 V3000
M  V30 BEGIN CTAB
M  V30 COUNTS 44 47 0 0 0
M  V30 BEGIN ATOM
M  V30 1 C 5.129034 -6.245896 -0.082717 0
M  V30 2 O 4.221781 -5.708296 -1.027544 0
M  V30 3 C 3.682375 -4.450060 -0.942445 0
M  V30 4 O 4.033896 -3.755444 0.045886 0
M  V30 5 N 2.769136 -3.890973 -1.881144 0
M  V30 6 C 2.293230 -2.555818 -1.650975 0
M  V30 7 N 2.817456 -1.369308 -2.071435 0
M  V30 8 C 2.045115 -0.364134 -1.624935 0
M  V30 9 C 2.091773 1.008930 -1.742047 0
M  V30 10 C 1.095547 1.738939 -1.130476 0
M  V30 11 C 0.039442 1.236019 -0.401883 0
M  V30 12 C -1.014627 2.021338 0.235344 0
M  V30 13 C -0.767952 3.482369 0.360283 0
M  V30 14 C 0.004515 3.685528 1.656824 0
M  V30 15 C -0.392051 2.463434 2.421137 0
M  V30 16 O 0.117343 2.414101 3.585389 0
M  V30 17 N -1.265502 1.636533 1.632550 0
M  V30 18 C -2.043234 0.769342 2.479561 0
M  V30 19 C -3.294523 1.237843 2.899667 0
M  V30 20 C -4.170555 0.551399 3.712273 0
M  V30 21 C -3.706397 -0.687496 4.100838 0
M  V30 22 C -2.493920 -1.235755 3.742045 0
M  V30 23 Br -1.916554 -2.954138 4.316046 0
M  V30 24 C -1.680622 -0.481945 2.928117 0
M  V30 25 C 0.029610 -0.139251 -0.309154 0
M  V30 26 C 0.995308 -0.934387 -0.896372 0
M  V30 27 N 1.186506 -2.287175 -0.937552 0
M  V30 28 H 5.926044 -6.838363 -0.546790 0
M  V30 29 H 5.632310 -5.416168 0.473808 0
M  V30 30 H 4.539584 -6.789259 0.683080 0
M  V30 31 H 2.555571 -4.573146 -2.660894 0
M  V30 32 H 2.891372 1.468250 -2.298625 0
M  V30 33 H 1.189689 2.802286 -1.259361 0
M  V30 34 H -1.999409 1.898503 -0.306789 0
M  V30 35 H -0.216662 3.971847 -0.434393 0
M  V30 36 H -1.737991 4.054751 0.448022 0
M  V30 37 H 1.100697 3.652409 1.505140 0
M  V30 38 H -0.362115 4.555517 2.215706 0
M  V30 39 H -3.605129 2.228079 2.557276 0
M  V30 40 H -5.115388 0.965545 3.998616 0
M  V30 41 H -4.324331 -1.308883 4.744079 0
M  V30 42 H -0.725012 -0.836700 2.607576 0
M  V30 43 H -0.728684 -0.692778 0.220708 0
M  V30 44 H 0.571211 -2.998408 -0.486851 0
M  V30 END ATOM
M  V30 BEGIN BOND
M  V30 1 1 1 2
M  V30 2 1 2 3
M  V30 3 2 3 4
M  V30 4 1 3 5
M  V30 5 1 5 6
M  V30 6 2 6 7
M  V30 7 1 7 8
M  V30 8 2 8 9
M  V30 9 1 9 10
M  V30 10 2 10 11
M  V30 11 1 11 12
M  V30 12 1 12 13
M  V30 13 1 13 14
M  V30 14 1 14 15
M  V30 15 2 15 16
M  V30 16 1 15 17
M  V30 17 1 17 18
M  V30 18 2 18 19
M  V30 19 1 19 20
M  V30 20 2 20 21
M  V30 21 1 21 22
M  V30 22 1 22 23
M  V30 23 2 22 24
M  V30 24 1 11 25
M  V30 25 2 25 26
M  V30 26 1 26 27
M  V30 27 1 27 6
M  V30 28 1 26 8
M  V30 29 1 17 12
M  V30 30 1 24 18
M  V30 31 1 1 28
M  V30 32 1 1 29
M  V30 33 1 1 30
M  V30 34 1 5 31
M  V30 35 1 9 32
M  V30 36 1 10 33
M  V30 37 1 12 34
M  V30 38 1 13 35
M  V30 39 1 13 36
M  V30 40 1 14 37
M  V30 41 1 14 38
M  V30 42 1 19 39
M  V30 43 1 20 40
M  V30 44 1 21 41
M  V30 45 1 24 42
M  V30 46 1 25 43
M  V30 47 1 27 44
M  V30 END BOND
M  V30 END CTAB
M  END
>  <Dataset>  (366) 
ChEMBL_Kinases

>  <Ligand_Instance>  (366) 
nan

>  <PDB_ID>  (366) 
nan

>  <Standardized_SMILES>  (366) 
COC(=O)Nc1nc2ccc(C3CCC(=O)N3c3cccc(Br)c3)cc2[nH]1

>  <Name>  (366) 
nan

>  <Pocket>  (366) 
nan

>  <ATP_Site>  (366) 
nan

>  <Peripheral>  (366) 
nan

>  <Num_H_Atoms_ProtBoundConf>  (366) 
nan

>  <Num_Resolved_Atoms>  (366) 
nan

>  <Num_Not_Resolved_Atoms>  (366) 
nan

$$$$
CHEMBL3909679
     RDKit          3D

  0  0  0  0  0  0  0  0  0  0999 V3000
M  V30 BEGIN CTAB
M  V30 COUNTS 44 47 0 0 0
M  V30 BEGIN ATOM
M  V30 1 N 2.408121 -2.289578 7.751247 0
M  V30 2 C 3.508369 -1.478929 7.346158 0
M  V30 3 O 4.426161 -1.272093 8.160013 0
M  V30 4 C 3.535348 -0.920848 6.015611 0
M  V30 5 C 4.584120 -0.132899 5.588915 0
M  V30 6 C 4.647580 0.423041 4.316091 0
M  V30 7 C 3.635470 0.196511 3.418093 0
M  V30 8 N 3.332130 0.536211 2.149039 0
M  V30 9 C 2.153757 -0.001155 1.774914 0
M  V30 10 C 1.497698 0.143084 0.478861 0
M  V30 11 C 2.127555 0.903631 -0.484401 0
M  V30 12 C 1.450891 0.996276 -1.682181 0
M  V30 13 C 0.219580 0.399072 -1.982313 0
M  V30 14 N -0.313286 0.620688 -3.275576 0
M  V30 15 S -1.910479 1.057170 -3.761750 0
M  V30 16 O -2.233694 2.333576 -3.008732 0
M  V30 17 O -1.966613 1.406473 -5.210097 0
M  V30 18 C -3.110804 -0.112370 -3.324042 0
M  V30 19 C -3.261442 -1.088554 -4.316025 0
M  V30 20 C -4.182620 -2.130398 -4.171690 0
M  V30 21 C -4.943977 -2.180250 -3.029952 0
M  V30 22 Cl -6.132530 -3.428893 -2.723232 0
M  V30 23 C -4.805643 -1.213537 -2.030429 0
M  V30 24 Cl -5.743806 -1.218161 -0.551985 0
M  V30 25 C -3.895764 -0.207955 -2.202592 0
M  V30 26 C -0.329434 -0.340193 -0.955693 0
M  V30 27 C 0.285176 -0.480602 0.270426 0
M  V30 28 N 1.711994 -0.694052 2.840263 0
M  V30 29 C 2.587782 -0.598346 3.863303 0
M  V30 30 C 2.507221 -1.159054 5.123214 0
M  V30 31 H 2.430870 -3.344614 7.869994 0
M  V30 32 H 1.429888 -2.034313 7.995595 0
M  V30 33 H 5.401892 0.055660 6.300987 0
M  V30 34 H 5.484719 1.043866 3.995357 0
M  V30 35 H 3.972210 1.137862 1.592231 0
M  V30 36 H 3.075348 1.407540 -0.361838 0
M  V30 37 H 1.938119 1.599697 -2.464564 0
M  V30 38 H 0.389090 0.493069 -4.040999 0
M  V30 39 H -2.716286 -1.155369 -5.262825 0
M  V30 40 H -4.325763 -2.900851 -4.916297 0
M  V30 41 H -3.696170 0.596336 -1.504681 0
M  V30 42 H -1.271548 -0.805302 -1.170841 0
M  V30 43 H -0.168430 -1.061937 1.046644 0
M  V30 44 H 1.665089 -1.770331 5.413368 0
M  V30 END ATOM
M  V30 BEGIN BOND
M  V30 1 1 1 2
M  V30 2 2 2 3
M  V30 3 1 2 4
M  V30 4 2 4 5
M  V30 5 1 5 6
M  V30 6 2 6 7
M  V30 7 1 7 8
M  V30 8 1 8 9
M  V30 9 1 9 10
M  V30 10 2 10 11
M  V30 11 1 11 12
M  V30 12 2 12 13
M  V30 13 1 13 14
M  V30 14 1 14 15
M  V30 15 2 15 16
M  V30 16 2 15 17
M  V30 17 1 15 18
M  V30 18 2 18 19
M  V30 19 1 19 20
M  V30 20 2 20 21
M  V30 21 1 21 22
M  V30 22 1 21 23
M  V30 23 1 23 24
M  V30 24 2 23 25
M  V30 25 1 13 26
M  V30 26 2 26 27
M  V30 27 2 9 28
M  V30 28 1 28 29
M  V30 29 2 29 30
M  V30 30 1 30 4
M  V30 31 1 29 7
M  V30 32 1 27 10
M  V30 33 1 25 18
M  V30 34 1 1 31
M  V30 35 1 1 32
M  V30 36 1 5 33
M  V30 37 1 6 34
M  V30 38 1 8 35
M  V30 39 1 11 36
M  V30 40 1 12 37
M  V30 41 1 14 38
M  V30 42 1 19 39
M  V30 43 1 20 40
M  V30 44 1 25 41
M  V30 45 1 26 42
M  V30 46 1 27 43
M  V30 47 1 30 44
M  V30 END BOND
M  V30 END CTAB
M  END
>  <Dataset>  (367) 
ChEMBL_Kinases

>  <Ligand_Instance>  (367) 
nan

>  <PDB_ID>  (367) 
nan

>  <Standardized_SMILES>  (367) 
NC(=O)c1ccc2[nH]c(-c3ccc(NS(=O)(=O)c4ccc(Cl)c(Cl)c4)cc3)nc2c1

>  <Name>  (367) 
nan

>  <Pocket>  (367) 
nan

>  <ATP_Site>  (367) 
nan

>  <Peripheral>  (367) 
nan

>  <Num_H_Atoms_ProtBoundConf>  (367) 
nan

>  <Num_Resolved_Atoms>  (367) 
nan

>  <Num_Not_Resolved_Atoms>  (367) 
nan

$$$$
CHEMBL3891605
     RDKit          3D

  0  0  0  0  0  0  0  0  0  0999 V3000
M  V30 BEGIN CTAB
M  V30 COUNTS 57 60 0 0 0
M  V30 BEGIN ATOM
M  V30 1 C 3.062491 -2.810488 2.856941 0
M  V30 2 N 1.927109 -1.948919 2.642386 0
M  V30 3 C 1.352994 -1.593751 1.389720 0
M  V30 4 O 2.021182 -2.174033 0.474830 0
M  V30 5 C 0.181972 -0.683791 1.477105 0 CFG=2
M  V30 6 C 0.660226 0.589430 2.142513 0
M  V30 7 C 1.743808 1.270533 1.388167 0
M  V30 8 C 3.109468 1.115830 1.490192 0
M  V30 9 C 3.941176 1.861919 0.681465 0
M  V30 10 C 3.449870 2.766976 -0.235476 0
M  V30 11 C 2.077071 2.897545 -0.312134 0
M  V30 12 N 1.533053 3.824281 -1.249200 0
M  V30 13 C 0.180452 4.157303 -1.536372 0
M  V30 14 C -0.401781 5.192874 -0.815266 0
M  V30 15 C -1.720100 5.364890 -1.239652 0
M  V30 16 N -1.882374 4.423238 -2.203482 0
M  V30 17 N -0.790272 3.724763 -2.378309 0
M  V30 18 N 1.285115 2.166756 0.479007 0
M  V30 19 C -0.917464 -1.250900 2.329308 0
M  V30 20 C -2.061499 -1.804574 1.538568 0
M  V30 21 C -1.478363 -2.503552 0.300245 0 CFG=1
M  V30 22 O -2.453889 -3.255620 -0.326882 0
M  V30 23 C -2.482958 -4.607381 -0.583920 0
M  V30 24 C -3.686179 -4.899894 -1.243530 0
M  V30 25 C -3.997581 -6.208623 -1.635323 0
M  V30 26 C -3.117305 -7.238388 -1.375761 0
M  V30 27 C -1.949502 -6.932581 -0.731641 0
M  V30 28 Cl -0.734580 -8.135846 -0.334287 0
M  V30 29 C -1.620599 -5.654095 -0.336436 0
M  V30 30 F -0.509090 -5.249492 0.296983 0
M  V30 31 C -1.087112 -1.329998 -0.611085 0
M  V30 32 C -0.283231 -0.298140 0.098847 0
M  V30 33 H 3.891159 -2.216295 3.323184 0
M  V30 34 H 2.829105 -3.669722 3.516724 0
M  V30 35 H 3.393517 -3.192415 1.876725 0
M  V30 36 H 1.617447 -1.642538 3.598787 0
M  V30 37 H -0.178259 1.293035 2.350985 0
M  V30 38 H 1.053202 0.300719 3.158999 0
M  V30 39 H 3.402720 0.387468 2.233445 0
M  V30 40 H 4.998084 1.707375 0.796469 0
M  V30 41 H 4.142057 3.334840 -0.853550 0
M  V30 42 H 2.129707 4.389842 -1.860839 0
M  V30 43 H 0.000432 5.834978 -0.028155 0
M  V30 44 H -2.486368 6.041421 -0.940453 0
M  V30 45 H -2.763471 4.255669 -2.754624 0
M  V30 46 H -0.538561 -2.077133 2.985115 0
M  V30 47 H -1.333264 -0.475974 3.005514 0
M  V30 48 H -2.744047 -1.005976 1.168973 0
M  V30 49 H -2.641547 -2.550585 2.085098 0
M  V30 50 H -0.589380 -3.018417 0.656189 0
M  V30 51 H -4.490443 -4.228690 -1.529018 0
M  V30 52 H -4.902607 -6.501983 -2.144611 0
M  V30 53 H -3.222710 -8.275847 -1.614974 0
M  V30 54 H -2.066649 -0.857278 -0.884941 0
M  V30 55 H -0.640939 -1.671299 -1.555766 0
M  V30 56 H 0.649589 -0.136974 -0.511675 0
M  V30 57 H -0.798867 0.685757 0.175965 0
M  V30 END ATOM
M  V30 BEGIN BOND
M  V30 1 1 1 2
M  V30 2 1 2 3
M  V30 3 2 3 4
M  V30 4 1 3 5
M  V30 5 1 5 6 CFG=1
M  V30 6 1 6 7
M  V30 7 2 7 8
M  V30 8 1 8 9
M  V30 9 2 9 10
M  V30 10 1 10 11
M  V30 11 1 11 12
M  V30 12 1 12 13
M  V30 13 1 13 14
M  V30 14 2 14 15
M  V30 15 1 15 16
M  V30 16 1 16 17
M  V30 17 2 11 18
M  V30 18 1 5 19
M  V30 19 1 19 20
M  V30 20 1 20 21
M  V30 21 1 21 22
M  V30 22 1 22 23
M  V30 23 2 23 24
M  V30 24 1 24 25
M  V30 25 2 25 26
M  V30 26 1 26 27
M  V30 27 1 27 28
M  V30 28 2 27 29
M  V30 29 1 29 30
M  V30 30 1 21 31
M  V30 31 1 31 32
M  V30 32 1 32 5
M  V30 33 1 18 7
M  V30 34 1 29 23
M  V30 35 2 17 13
M  V30 36 1 1 33
M  V30 37 1 1 34
M  V30 38 1 1 35
M  V30 39 1 2 36
M  V30 40 1 6 37
M  V30 41 1 6 38
M  V30 42 1 8 39
M  V30 43 1 9 40
M  V30 44 1 10 41
M  V30 45 1 12 42
M  V30 46 1 14 43
M  V30 47 1 15 44
M  V30 48 1 16 45
M  V30 49 1 19 46
M  V30 50 1 19 47
M  V30 51 1 20 48
M  V30 52 1 20 49
M  V30 53 1 21 50 CFG=1
M  V30 54 1 24 51
M  V30 55 1 25 52
M  V30 56 1 26 53
M  V30 57 1 31 54
M  V30 58 1 31 55
M  V30 59 1 32 56
M  V30 60 1 32 57
M  V30 END BOND
M  V30 END CTAB
M  END
>  <Dataset>  (368) 
ChEMBL_Kinases

>  <Ligand_Instance>  (368) 
nan

>  <PDB_ID>  (368) 
nan

>  <Standardized_SMILES>  (368) 
CNC(=O)[C@]1(Cc2cccc(Nc3cc[nH]n3)n2)CC[C@@H](Oc2cccc(Cl)c2F)CC1

>  <Name>  (368) 
nan

>  <Pocket>  (368) 
nan

>  <ATP_Site>  (368) 
nan

>  <Peripheral>  (368) 
nan

>  <Num_H_Atoms_ProtBoundConf>  (368) 
nan

>  <Num_Resolved_Atoms>  (368) 
nan

>  <Num_Not_Resolved_Atoms>  (368) 
nan

$$$$
CHEMBL3808911
     RDKit          3D

  0  0  0  0  0  0  0  0  0  0999 V3000
M  V30 BEGIN CTAB
M  V30 COUNTS 63 67 0 0 0
M  V30 BEGIN ATOM
M  V30 1 C 2.485637 -6.215268 2.628417 0
M  V30 2 C 2.224983 -5.261054 1.512810 0
M  V30 3 O 2.672657 -5.489826 0.368245 0
M  V30 4 N 1.462219 -4.114438 1.821867 0
M  V30 5 C 0.938433 -2.945697 1.207185 0
M  V30 6 C 1.757746 -1.836705 1.237752 0
M  V30 7 C 1.311823 -0.665822 0.658273 0
M  V30 8 N 2.126106 0.492181 0.650172 0
M  V30 9 C 1.814699 1.827914 0.291460 0
M  V30 10 C 1.599574 2.742543 1.278636 0
M  V30 11 C 1.274879 4.081047 1.056075 0
M  V30 12 N 1.090981 5.023359 2.083136 0
M  V30 13 C 0.743671 6.327224 2.518485 0
M  V30 14 C 1.320282 7.530220 1.774415 0
M  V30 15 C -0.130321 7.210651 1.700491 0
M  V30 16 N 1.171600 4.480018 -0.248625 0
M  V30 17 N 0.911532 5.573358 -0.926073 0
M  V30 18 C 0.942611 5.429977 -2.235726 0
M  V30 19 C 1.251490 4.124269 -2.482705 0
M  V30 20 C 1.404628 3.456303 -3.756644 0
M  V30 21 N 1.536680 2.930694 -4.778950 0
M  V30 22 C 1.381470 3.587930 -1.218641 0
M  V30 23 N 1.690537 2.313400 -0.947181 0
M  V30 24 C 0.071081 -0.665524 0.079560 0
M  V30 25 C -0.792311 -1.740124 0.017106 0
M  V30 26 C -0.307929 -2.901637 0.611300 0
M  V30 27 N -1.037280 -4.122487 0.665789 0
M  V30 28 C -0.848100 -5.527975 0.277236 0
M  V30 29 C -2.225033 -6.011781 -0.147449 0
M  V30 30 C -3.195316 -4.908739 0.248999 0 CFG=2
M  V30 31 N -3.623462 -4.255404 -0.901313 0
M  V30 32 C -4.518666 -3.177241 -0.861347 0
M  V30 33 C -4.028138 -5.195557 -1.928752 0
M  V30 34 C -2.384013 -4.148561 1.236757 0
M  V30 35 H 1.815908 -6.015679 3.492675 0
M  V30 36 H 3.544024 -6.072759 2.929298 0
M  V30 37 H 2.336820 -7.273548 2.342347 0
M  V30 38 H 1.101271 -3.959390 2.812271 0
M  V30 39 H 2.749423 -1.791801 1.685714 0
M  V30 40 H 3.124672 0.459803 0.938724 0
M  V30 41 H 1.691069 2.384199 2.301860 0
M  V30 42 H 1.331482 4.533885 3.005056 0
M  V30 43 H 0.746802 6.533229 3.644098 0
M  V30 44 H 1.618606 8.422570 2.353508 0
M  V30 45 H 2.006463 7.302563 0.949731 0
M  V30 46 H -0.651781 6.847627 0.811280 0
M  V30 47 H -0.799355 7.953688 2.253927 0
M  V30 48 H 0.756475 6.208665 -2.972042 0
M  V30 49 H -0.295321 0.250713 -0.381636 0
M  V30 50 H -1.760971 -1.758730 -0.430268 0
M  V30 51 H -0.555776 -6.050185 1.236898 0
M  V30 52 H -0.087253 -5.673763 -0.484732 0
M  V30 53 H -2.427178 -6.964603 0.384968 0
M  V30 54 H -2.192817 -6.179979 -1.249040 0
M  V30 55 H -4.032743 -5.400210 0.789633 0
M  V30 56 H -5.544691 -3.425822 -1.265826 0
M  V30 57 H -4.644851 -2.624700 0.075538 0
M  V30 58 H -4.146804 -2.418207 -1.615308 0
M  V30 59 H -4.928851 -4.834536 -2.476264 0
M  V30 60 H -4.200905 -6.212221 -1.587520 0
M  V30 61 H -3.221676 -5.205352 -2.707127 0
M  V30 62 H -2.311607 -4.746434 2.168113 0
M  V30 63 H -2.770650 -3.168843 1.523662 0
M  V30 END ATOM
M  V30 BEGIN BOND
M  V30 1 1 1 2
M  V30 2 2 2 3
M  V30 3 1 2 4
M  V30 4 1 4 5
M  V30 5 2 5 6
M  V30 6 1 6 7
M  V30 7 1 7 8
M  V30 8 1 8 9
M  V30 9 1 9 10
M  V30 10 2 10 11
M  V30 11 1 11 12
M  V30 12 1 12 13
M  V30 13 1 13 14
M  V30 14 1 14 15
M  V30 15 1 11 16
M  V30 16 1 16 17
M  V30 17 2 17 18
M  V30 18 1 18 19
M  V30 19 1 19 20
M  V30 20 3 20 21
M  V30 21 2 19 22
M  V30 22 1 22 23
M  V30 23 2 7 24
M  V30 24 1 24 25
M  V30 25 2 25 26
M  V30 26 1 26 27
M  V30 27 1 27 28
M  V30 28 1 28 29
M  V30 29 1 29 30
M  V30 30 1 30 31
M  V30 31 1 31 32
M  V30 32 1 31 33
M  V30 33 1 30 34
M  V30 34 1 26 5
M  V30 35 1 34 27
M  V30 36 2 23 9
M  V30 37 1 15 13
M  V30 38 1 22 16
M  V30 39 1 1 35
M  V30 40 1 1 36
M  V30 41 1 1 37
M  V30 42 1 4 38
M  V30 43 1 6 39
M  V30 44 1 8 40
M  V30 45 1 10 41
M  V30 46 1 12 42
M  V30 47 1 13 43
M  V30 48 1 14 44
M  V30 49 1 14 45
M  V30 50 1 15 46
M  V30 51 1 15 47
M  V30 52 1 18 48
M  V30 53 1 24 49
M  V30 54 1 25 50
M  V30 55 1 28 51
M  V30 56 1 28 52
M  V30 57 1 29 53
M  V30 58 1 29 54
M  V30 59 1 30 55 CFG=1
M  V30 60 1 32 56
M  V30 61 1 32 57
M  V30 62 1 32 58
M  V30 63 1 33 59
M  V30 64 1 33 60
M  V30 65 1 33 61
M  V30 66 1 34 62
M  V30 67 1 34 63
M  V30 END BOND
M  V30 END CTAB
M  END
>  <Dataset>  (369) 
ChEMBL_Kinases

>  <Ligand_Instance>  (369) 
nan

>  <PDB_ID>  (369) 
nan

>  <Standardized_SMILES>  (369) 
CC(=O)Nc1cc(Nc2cc(NC3CC3)n3ncc(C#N)c3n2)ccc1N1CC[C@H](N(C)C)C1

>  <Name>  (369) 
nan

>  <Pocket>  (369) 
nan

>  <ATP_Site>  (369) 
nan

>  <Peripheral>  (369) 
nan

>  <Num_H_Atoms_ProtBoundConf>  (369) 
nan

>  <Num_Resolved_Atoms>  (369) 
nan

>  <Num_Not_Resolved_Atoms>  (369) 
nan

$$$$
CHEMBL497033
     RDKit          3D

  0  0  0  0  0  0  0  0  0  0999 V3000
M  V30 BEGIN CTAB
M  V30 COUNTS 68 72 0 0 0
M  V30 BEGIN ATOM
M  V30 1 C 3.319070 1.457282 3.003237 0
M  V30 2 C 3.627919 1.585178 1.548470 0
M  V30 3 C 4.990640 1.676444 1.269516 0
M  V30 4 C 5.385009 1.796663 -0.047912 0
M  V30 5 C 4.492544 1.830439 -1.097135 0
M  V30 6 C 3.149770 1.738960 -0.804048 0
M  V30 7 N 2.043230 1.745405 -1.701370 0
M  V30 8 N 1.228814 2.584938 -2.318522 0
M  V30 9 C 0.337799 1.913120 -3.067661 0
M  V30 10 C -0.715545 2.569569 -3.885772 0
M  V30 11 C -1.988289 2.771834 -3.052473 0
M  V30 12 C -1.124695 1.764076 -5.077874 0
M  V30 13 C -0.224009 3.965065 -4.271282 0
M  V30 14 C 0.601948 0.565784 -2.917667 0
M  V30 15 C 1.695085 0.487576 -2.040885 0
M  V30 16 N 2.123774 -0.861952 -1.760630 0
M  V30 17 C 1.608679 -1.604535 -0.668752 0
M  V30 18 O 0.751229 -1.036168 0.076721 0
M  V30 19 N 1.958818 -2.932855 -0.321934 0
M  V30 20 C 1.238056 -3.363736 0.853020 0
M  V30 21 C 0.006787 -3.934340 0.539432 0
M  V30 22 C -0.772156 -4.383878 1.609845 0
M  V30 23 C -0.399517 -4.297104 2.935124 0
M  V30 24 N -1.209104 -4.734697 4.004613 0
M  V30 25 C -2.526178 -5.065722 3.591060 0
M  V30 26 N -3.129273 -6.232929 3.256432 0
M  V30 27 C -4.423692 -6.267604 2.882710 0
M  V30 28 N -5.185720 -5.174614 2.817813 0
M  V30 29 C -4.648817 -3.987036 3.136254 0
M  V30 30 C -5.515872 -2.914349 3.034933 0
M  V30 31 C -5.009042 -1.669506 3.348222 0
M  V30 32 C -3.697363 -1.520506 3.742405 0
M  V30 33 N -3.090016 -0.256367 4.085011 0
M  V30 34 C -2.898614 -2.640421 3.818307 0
M  V30 35 C -3.325450 -3.919062 3.522823 0
M  V30 36 C 0.831777 -3.721215 3.158439 0
M  V30 37 C 1.658993 -3.253311 2.159192 0
M  V30 38 C 2.717435 1.616081 0.523422 0
M  V30 39 H 2.211573 1.645173 3.108761 0
M  V30 40 H 3.932962 2.121270 3.612144 0
M  V30 41 H 3.451268 0.401286 3.306244 0
M  V30 42 H 5.776806 1.661452 1.987579 0
M  V30 43 H 6.418318 1.873008 -0.359256 0
M  V30 44 H 4.712238 1.921562 -2.143407 0
M  V30 45 H -1.754244 3.439212 -2.184138 0
M  V30 46 H -2.313789 1.805420 -2.623520 0
M  V30 47 H -2.740956 3.237350 -3.721397 0
M  V30 48 H -1.113796 0.690579 -4.884415 0
M  V30 49 H -0.508051 2.046610 -5.957327 0
M  V30 50 H -2.191740 2.028781 -5.340951 0
M  V30 51 H -1.069441 4.448413 -4.805426 0
M  V30 52 H -0.021844 4.490430 -3.300567 0
M  V30 53 H 0.684254 3.827497 -4.871183 0
M  V30 54 H 0.004004 -0.172057 -3.434055 0
M  V30 55 H 2.835009 -1.381269 -2.346602 0
M  V30 56 H 2.656098 -3.404546 -0.924153 0
M  V30 57 H -0.388219 -4.055507 -0.462495 0
M  V30 58 H -1.737658 -4.832678 1.362631 0
M  V30 59 H -0.795463 -4.777177 4.958973 0
M  V30 60 H -4.775872 -7.270710 2.643679 0
M  V30 61 H -6.535659 -2.982901 2.735527 0
M  V30 62 H -5.578562 -0.735877 3.311705 0
M  V30 63 H -2.406813 0.417520 3.730301 0
M  V30 64 H -3.067344 0.487065 4.790361 0
M  V30 65 H -1.861683 -2.518821 4.129774 0
M  V30 66 H 1.173708 -3.629182 4.185566 0
M  V30 67 H 2.626220 -2.797608 2.300736 0
M  V30 68 H 1.677427 1.538339 0.846595 0
M  V30 END ATOM
M  V30 BEGIN BOND
M  V30 1 1 1 2
M  V30 2 2 2 3
M  V30 3 1 3 4
M  V30 4 2 4 5
M  V30 5 1 5 6
M  V30 6 1 6 7
M  V30 7 1 7 8
M  V30 8 2 8 9
M  V30 9 1 9 10
M  V30 10 1 10 11
M  V30 11 1 10 12
M  V30 12 1 10 13
M  V30 13 1 9 14
M  V30 14 2 14 15
M  V30 15 1 15 16
M  V30 16 1 16 17
M  V30 17 2 17 18
M  V30 18 1 17 19
M  V30 19 1 19 20
M  V30 20 2 20 21
M  V30 21 1 21 22
M  V30 22 2 22 23
M  V30 23 1 23 24
M  V30 24 1 24 25
M  V30 25 2 25 26
M  V30 26 1 26 27
M  V30 27 2 27 28
M  V30 28 1 28 29
M  V30 29 2 29 30
M  V30 30 1 30 31
M  V30 31 2 31 32
M  V30 32 1 32 33
M  V30 33 1 32 34
M  V30 34 2 34 35
M  V30 35 1 23 36
M  V30 36 2 36 37
M  V30 37 2 6 38
M  V30 38 1 38 2
M  V30 39 1 15 7
M  V30 40 1 37 20
M  V30 41 1 35 25
M  V30 42 1 35 29
M  V30 43 1 1 39
M  V30 44 1 1 40
M  V30 45 1 1 41
M  V30 46 1 3 42
M  V30 47 1 4 43
M  V30 48 1 5 44
M  V30 49 1 11 45
M  V30 50 1 11 46
M  V30 51 1 11 47
M  V30 52 1 12 48
M  V30 53 1 12 49
M  V30 54 1 12 50
M  V30 55 1 13 51
M  V30 56 1 13 52
M  V30 57 1 13 53
M  V30 58 1 14 54
M  V30 59 1 16 55
M  V30 60 1 19 56
M  V30 61 1 21 57
M  V30 62 1 22 58
M  V30 63 1 24 59
M  V30 64 1 27 60
M  V30 65 1 30 61
M  V30 66 1 31 62
M  V30 67 1 33 63
M  V30 68 1 33 64
M  V30 69 1 34 65
M  V30 70 1 36 66
M  V30 71 1 37 67
M  V30 72 1 38 68
M  V30 END BOND
M  V30 END CTAB
M  END
>  <Dataset>  (370) 
ChEMBL_Kinases

>  <Ligand_Instance>  (370) 
nan

>  <PDB_ID>  (370) 
nan

>  <Standardized_SMILES>  (370) 
Cc1cccc(-n2nc(C(C)(C)C)cc2NC(=O)Nc2ccc(Nc3ncnc4ccc(N)cc34)cc2)c1

>  <Name>  (370) 
nan

>  <Pocket>  (370) 
nan

>  <ATP_Site>  (370) 
nan

>  <Peripheral>  (370) 
nan

>  <Num_H_Atoms_ProtBoundConf>  (370) 
nan

>  <Num_Resolved_Atoms>  (370) 
nan

>  <Num_Not_Resolved_Atoms>  (370) 
nan

$$$$
CHEMBL3808838
     RDKit          3D

  0  0  0  0  0  0  0  0  0  0999 V3000
M  V30 BEGIN CTAB
M  V30 COUNTS 50 54 0 0 0
M  V30 BEGIN ATOM
M  V30 1 C 1.901567 0.012334 -2.784880 0
M  V30 2 C 2.048868 -0.013143 -1.299006 0
M  V30 3 C 3.190832 -0.592466 -0.787306 0
M  V30 4 C 3.300051 -0.593459 0.609676 0
M  V30 5 C 4.450558 -1.187632 1.282302 0
M  V30 6 C 5.171369 -0.974547 2.438862 0
M  V30 7 N 6.157967 -1.882691 2.542182 0
M  V30 8 N 6.120764 -2.706555 1.479457 0
M  V30 9 C 7.014662 -3.824525 1.215094 0
M  V30 10 C 5.091957 -2.295092 0.710573 0
M  V30 11 C 2.297814 -0.035362 1.374704 0
M  V30 12 C 1.167056 0.536660 0.833273 0
M  V30 13 C 1.034123 0.549928 -0.554954 0
M  V30 14 N -0.139948 1.127638 -1.097648 0
M  V30 15 C -1.139080 1.703851 -0.259276 0
M  V30 16 N -1.252267 2.992133 0.064331 0
M  V30 17 C -2.205835 3.479484 0.865016 0
M  V30 18 C -3.136909 2.576359 1.391469 0
M  V30 19 C -4.158133 2.984124 2.230882 0
M  V30 20 C -5.060639 2.074628 2.737748 0
M  V30 21 N -4.942699 0.766937 2.407519 0
M  V30 22 C -3.953405 0.355782 1.590973 0
M  V30 23 C -3.775740 -1.033153 1.207950 0
M  V30 24 C -2.550099 -1.692138 1.194337 0
M  V30 25 N -2.737811 -2.959974 0.795297 0
M  V30 26 N -4.036752 -3.187355 0.538401 0
M  V30 27 C -4.636446 -4.426815 0.088394 0
M  V30 28 C -4.641871 -2.016002 0.793026 0
M  V30 29 C -3.006975 1.229623 1.044539 0
M  V30 30 N -2.023656 0.805005 0.232737 0
M  V30 31 H 1.286581 -0.791221 -3.183071 0
M  V30 32 H 2.919963 0.005286 -3.243865 0
M  V30 33 H 1.462980 0.986554 -3.077167 0
M  V30 34 H 3.962223 -1.022626 -1.399445 0
M  V30 35 H 4.864209 -0.145185 3.079160 0
M  V30 36 H 7.267737 -4.364338 2.158585 0
M  V30 37 H 7.902663 -3.545211 0.652341 0
M  V30 38 H 6.401319 -4.554647 0.616056 0
M  V30 39 H 4.852868 -2.804035 -0.215827 0
M  V30 40 H 2.401335 -0.045414 2.446236 0
M  V30 41 H 0.384373 0.971674 1.430051 0
M  V30 42 H -0.335381 1.163844 -2.121508 0
M  V30 43 H -2.275447 4.528843 1.112781 0
M  V30 44 H -4.147773 4.067490 2.423551 0
M  V30 45 H -5.825098 2.478120 3.383237 0
M  V30 46 H -1.565430 -1.280129 1.459641 0
M  V30 47 H -4.260367 -4.762001 -0.891904 0
M  V30 48 H -5.749384 -4.262426 0.099544 0
M  V30 49 H -4.474069 -5.209575 0.865928 0
M  V30 50 H -5.721108 -1.830017 0.689271 0
M  V30 END ATOM
M  V30 BEGIN BOND
M  V30 1 1 1 2
M  V30 2 2 2 3
M  V30 3 1 3 4
M  V30 4 1 4 5
M  V30 5 1 5 6
M  V30 6 2 6 7
M  V30 7 1 7 8
M  V30 8 1 8 9
M  V30 9 1 8 10
M  V30 10 2 4 11
M  V30 11 1 11 12
M  V30 12 2 12 13
M  V30 13 1 13 14
M  V30 14 1 14 15
M  V30 15 2 15 16
M  V30 16 1 16 17
M  V30 17 2 17 18
M  V30 18 1 18 19
M  V30 19 2 19 20
M  V30 20 1 20 21
M  V30 21 2 21 22
M  V30 22 1 22 23
M  V30 23 1 23 24
M  V30 24 2 24 25
M  V30 25 1 25 26
M  V30 26 1 26 27
M  V30 27 1 26 28
M  V30 28 1 22 29
M  V30 29 2 29 30
M  V30 30 1 13 2
M  V30 31 1 30 15
M  V30 32 2 10 5
M  V30 33 1 29 18
M  V30 34 2 28 23
M  V30 35 1 1 31
M  V30 36 1 1 32
M  V30 37 1 1 33
M  V30 38 1 3 34
M  V30 39 1 6 35
M  V30 40 1 9 36
M  V30 41 1 9 37
M  V30 42 1 9 38
M  V30 43 1 10 39
M  V30 44 1 11 40
M  V30 45 1 12 41
M  V30 46 1 14 42
M  V30 47 1 17 43
M  V30 48 1 19 44
M  V30 49 1 20 45
M  V30 50 1 24 46
M  V30 51 1 27 47
M  V30 52 1 27 48
M  V30 53 1 27 49
M  V30 54 1 28 50
M  V30 END BOND
M  V30 END CTAB
M  END
>  <Dataset>  (371) 
ChEMBL_Kinases

>  <Ligand_Instance>  (371) 
nan

>  <PDB_ID>  (371) 
nan

>  <Standardized_SMILES>  (371) 
Cc1cc(-c2cnn(C)c2)ccc1Nc1ncc2ccnc(-c3cnn(C)c3)c2n1

>  <Name>  (371) 
nan

>  <Pocket>  (371) 
nan

>  <ATP_Site>  (371) 
nan

>  <Peripheral>  (371) 
nan

>  <Num_H_Atoms_ProtBoundConf>  (371) 
nan

>  <Num_Resolved_Atoms>  (371) 
nan

>  <Num_Not_Resolved_Atoms>  (371) 
nan

$$$$
CHEMBL3808817
     RDKit          3D

  0  0  0  0  0  0  0  0  0  0999 V3000
M  V30 BEGIN CTAB
M  V30 COUNTS 60 64 0 0 0
M  V30 BEGIN ATOM
M  V30 1 C 0.949779 -4.325206 4.061490 0
M  V30 2 C 1.100702 -3.487163 2.851000 0
M  V30 3 O 1.848195 -2.568842 3.203537 0
M  V30 4 N 0.587027 -3.577139 1.542061 0
M  V30 5 C 0.814248 -2.707882 0.481859 0
M  V30 6 C 1.574782 -1.562500 0.455146 0
M  V30 7 C 1.778112 -0.732510 -0.635026 0
M  V30 8 N 2.599009 0.422206 -0.426133 0
M  V30 9 C 1.685447 1.391561 0.095073 0
M  V30 10 C 2.067143 2.120384 1.187958 0
M  V30 11 C 1.296581 3.107909 1.816072 0
M  V30 12 N 1.740429 3.852548 2.932988 0
M  V30 13 C 1.478789 4.795677 3.945682 0
M  V30 14 C 0.747760 6.061495 3.658235 0
M  V30 15 C 0.086189 4.967225 4.467215 0
M  V30 16 N 0.075722 3.320541 1.248596 0
M  V30 17 N -0.935073 4.122741 1.474291 0
M  V30 18 C -1.944727 3.975584 0.618426 0
M  V30 19 C -1.583065 2.983707 -0.267442 0
M  V30 20 C -2.352355 2.496331 -1.352532 0
M  V30 21 N -2.964655 2.118757 -2.237241 0
M  V30 22 C -0.331687 2.627526 0.178377 0
M  V30 23 N 0.463714 1.698624 -0.362945 0
M  V30 24 C 1.152316 -1.083808 -1.836610 0
M  V30 25 C 0.389004 -2.226990 -1.822106 0
M  V30 26 C 0.205307 -3.028914 -0.724448 0
M  V30 27 N -0.643802 -4.165933 -0.980088 0
M  V30 28 C -1.884263 -4.407395 -0.253897 0
M  V30 29 C -3.049807 -4.370593 -1.204084 0
M  V30 30 C -2.603680 -4.286154 -2.628791 0
M  V30 31 C -1.556066 -5.327872 -2.952402 0 CFG=1
M  V30 32 N -1.173011 -5.142709 -4.317168 0
M  V30 33 C -0.456920 -5.244421 -1.953589 0
M  V30 34 H 0.345024 -3.847081 4.861042 0
M  V30 35 H 0.419499 -5.256251 3.752120 0
M  V30 36 H 1.937138 -4.684818 4.472383 0
M  V30 37 H -0.011984 -4.425757 1.472793 0
M  V30 38 H 2.060895 -1.282604 1.374012 0
M  V30 39 H 3.611139 0.631659 -0.574485 0
M  V30 40 H 3.058663 1.894229 1.585661 0
M  V30 41 H 2.766904 3.579091 3.091257 0
M  V30 42 H 2.324623 4.948955 4.695416 0
M  V30 43 H 0.995536 6.954302 4.254610 0
M  V30 44 H 0.312728 6.304001 2.688003 0
M  V30 45 H 0.052884 5.107868 5.584708 0
M  V30 46 H -0.773473 4.434058 4.080436 0
M  V30 47 H -2.879215 4.530453 0.613493 0
M  V30 48 H 1.325503 -0.426306 -2.666049 0
M  V30 49 H -0.046305 -2.407391 -2.797588 0
M  V30 50 H -1.855075 -5.374530 0.299739 0
M  V30 51 H -2.048913 -3.616703 0.509867 0
M  V30 52 H -3.668611 -5.297588 -1.045240 0
M  V30 53 H -3.697813 -3.488730 -1.015124 0
M  V30 54 H -3.471227 -4.532198 -3.297054 0
M  V30 55 H -2.260312 -3.262505 -2.856923 0
M  V30 56 H -2.027429 -6.349908 -2.900243 0
M  V30 57 H -1.433673 -4.263640 -4.764039 0
M  V30 58 H -0.355941 -5.650279 -4.650267 0
M  V30 59 H -0.441313 -6.186324 -1.358373 0
M  V30 60 H 0.556280 -5.193748 -2.408790 0
M  V30 END ATOM
M  V30 BEGIN BOND
M  V30 1 1 1 2
M  V30 2 2 2 3
M  V30 3 1 2 4
M  V30 4 1 4 5
M  V30 5 2 5 6
M  V30 6 1 6 7
M  V30 7 1 7 8
M  V30 8 1 8 9
M  V30 9 1 9 10
M  V30 10 2 10 11
M  V30 11 1 11 12
M  V30 12 1 12 13
M  V30 13 1 13 14
M  V30 14 1 14 15
M  V30 15 1 11 16
M  V30 16 1 16 17
M  V30 17 2 17 18
M  V30 18 1 18 19
M  V30 19 1 19 20
M  V30 20 3 20 21
M  V30 21 2 19 22
M  V30 22 1 22 23
M  V30 23 2 7 24
M  V30 24 1 24 25
M  V30 25 2 25 26
M  V30 26 1 26 27
M  V30 27 1 27 28
M  V30 28 1 28 29
M  V30 29 1 29 30
M  V30 30 1 30 31
M  V30 31 1 31 32
M  V30 32 1 31 33
M  V30 33 1 26 5
M  V30 34 1 33 27
M  V30 35 2 23 9
M  V30 36 1 15 13
M  V30 37 1 22 16
M  V30 38 1 1 34
M  V30 39 1 1 35
M  V30 40 1 1 36
M  V30 41 1 4 37
M  V30 42 1 6 38
M  V30 43 1 8 39
M  V30 44 1 10 40
M  V30 45 1 12 41
M  V30 46 1 13 42
M  V30 47 1 14 43
M  V30 48 1 14 44
M  V30 49 1 15 45
M  V30 50 1 15 46
M  V30 51 1 18 47
M  V30 52 1 24 48
M  V30 53 1 25 49
M  V30 54 1 28 50
M  V30 55 1 28 51
M  V30 56 1 29 52
M  V30 57 1 29 53
M  V30 58 1 30 54
M  V30 59 1 30 55
M  V30 60 1 31 56 CFG=3
M  V30 61 1 32 57
M  V30 62 1 32 58
M  V30 63 1 33 59
M  V30 64 1 33 60
M  V30 END BOND
M  V30 END CTAB
M  END
>  <Dataset>  (372) 
ChEMBL_Kinases

>  <Ligand_Instance>  (372) 
nan

>  <PDB_ID>  (372) 
nan

>  <Standardized_SMILES>  (372) 
CC(=O)Nc1cc(Nc2cc(NC3CC3)n3ncc(C#N)c3n2)ccc1N1CCC[C@@H](N)C1

>  <Name>  (372) 
nan

>  <Pocket>  (372) 
nan

>  <ATP_Site>  (372) 
nan

>  <Peripheral>  (372) 
nan

>  <Num_H_Atoms_ProtBoundConf>  (372) 
nan

>  <Num_Resolved_Atoms>  (372) 
nan

>  <Num_Not_Resolved_Atoms>  (372) 
nan

$$$$
CHEMBL3808793
     RDKit          3D

  0  0  0  0  0  0  0  0  0  0999 V3000
M  V30 BEGIN CTAB
M  V30 COUNTS 65 69 0 0 0
M  V30 BEGIN ATOM
M  V30 1 O 0.874055 0.043149 3.150536 0
M  V30 2 C 1.660214 0.393992 4.066014 0
M  V30 3 N 3.075998 0.337716 4.209845 0
M  V30 4 C 3.605501 -0.253242 2.995531 0
M  V30 5 C 3.819004 0.757678 2.038198 0
M  V30 6 C 4.339635 0.295072 0.818290 0
M  V30 7 C 4.630064 -1.051880 0.551976 0
M  V30 8 C 5.161185 -1.274432 -0.799513 0
M  V30 9 N 4.159040 -1.582871 -1.792559 0
M  V30 10 C 3.015573 -0.704961 -1.894908 0
M  V30 11 N 2.616709 0.494068 -2.380287 0
M  V30 12 C 1.312234 0.624438 -2.059595 0
M  V30 13 C 0.338672 1.585171 -2.252717 0
M  V30 14 C -0.968900 1.413808 -1.778353 0
M  V30 15 C -1.345608 0.255027 -1.085268 0
M  V30 16 O -2.649931 0.213366 -0.673904 0
M  V30 17 C -3.250828 -0.860159 -0.001399 0
M  V30 18 C -3.373264 -2.128152 -0.759099 0
M  V30 19 N -4.171144 -2.057163 -1.945410 0
M  V30 20 C -3.691007 -1.289810 -3.031410 0
M  V30 21 C -2.495508 -1.902369 -3.729301 0
M  V30 22 O -2.946472 -3.092288 -4.307036 0
M  V30 23 C -3.207472 -3.944202 -3.221801 0
M  V30 24 C -4.371817 -3.421689 -2.430957 0
M  V30 25 C -0.335229 -0.655144 -0.927286 0
M  V30 26 C 0.974160 -0.522011 -1.382768 0
M  V30 27 O 2.017941 -1.309432 -1.295624 0
M  V30 28 C 4.390197 -1.966427 1.542631 0
M  V30 29 C 3.882441 -1.574376 2.754446 0
M  V30 30 N 0.888885 0.956802 5.143766 0
M  V30 31 C -0.547666 1.056737 5.056993 0
M  V30 32 C -1.567057 0.211655 5.429889 0
M  V30 33 C -2.878337 0.591236 5.206774 0
M  V30 34 C -3.182152 1.800828 4.616821 0
M  V30 35 Cl -4.888844 2.180339 4.380543 0
M  V30 36 C -2.159694 2.676956 4.228270 0
M  V30 37 Cl -2.624111 4.203062 3.480860 0
M  V30 38 C -0.863964 2.283774 4.458483 0
M  V30 39 H 3.483555 0.700729 5.090658 0
M  V30 40 H 3.621699 1.811162 2.162864 0
M  V30 41 H 4.508841 1.083474 0.064790 0
M  V30 42 H 5.768561 -0.415574 -1.156843 0
M  V30 43 H 5.823570 -2.180200 -0.727088 0
M  V30 44 H 4.231065 -2.408753 -2.428912 0
M  V30 45 H 0.704243 2.442429 -2.790660 0
M  V30 46 H -1.643756 2.254643 -1.999663 0
M  V30 47 H -2.547467 -1.053008 0.874202 0
M  V30 48 H -4.186954 -0.551309 0.509962 0
M  V30 49 H -2.435665 -2.623908 -1.021716 0
M  V30 50 H -3.906856 -2.873907 -0.091822 0
M  V30 51 H -3.517849 -0.229298 -2.884594 0
M  V30 52 H -4.509978 -1.329442 -3.818325 0
M  V30 53 H -2.214330 -1.227423 -4.560391 0
M  V30 54 H -1.617435 -2.044829 -3.106125 0
M  V30 55 H -2.283735 -4.066443 -2.651721 0
M  V30 56 H -3.500235 -4.959795 -3.577651 0
M  V30 57 H -5.245998 -3.429289 -3.142174 0
M  V30 58 H -4.596657 -4.054168 -1.569074 0
M  V30 59 H -0.541752 -1.546700 -0.396072 0
M  V30 60 H 4.617385 -2.996170 1.332845 0
M  V30 61 H 3.674058 -2.247312 3.569423 0
M  V30 62 H 1.310964 1.316938 6.027696 0
M  V30 63 H -1.152362 -0.680990 5.872473 0
M  V30 64 H -3.602399 -0.142165 5.533287 0
M  V30 65 H -0.164081 3.059236 4.108749 0
M  V30 END ATOM
M  V30 BEGIN BOND
M  V30 1 2 1 2
M  V30 2 1 2 3
M  V30 3 1 3 4
M  V30 4 2 4 5
M  V30 5 1 5 6
M  V30 6 2 6 7
M  V30 7 1 7 8
M  V30 8 1 8 9
M  V30 9 1 9 10
M  V30 10 2 10 11
M  V30 11 1 11 12
M  V30 12 2 12 13
M  V30 13 1 13 14
M  V30 14 2 14 15
M  V30 15 1 15 16
M  V30 16 1 16 17
M  V30 17 1 17 18
M  V30 18 1 18 19
M  V30 19 1 19 20
M  V30 20 1 20 21
M  V30 21 1 21 22
M  V30 22 1 22 23
M  V30 23 1 23 24
M  V30 24 1 15 25
M  V30 25 2 25 26
M  V30 26 1 26 27
M  V30 27 1 7 28
M  V30 28 2 28 29
M  V30 29 1 2 30
M  V30 30 1 30 31
M  V30 31 2 31 32
M  V30 32 1 32 33
M  V30 33 2 33 34
M  V30 34 1 34 35
M  V30 35 1 34 36
M  V30 36 1 36 37
M  V30 37 2 36 38
M  V30 38 1 29 4
M  V30 39 1 38 31
M  V30 40 1 27 10
M  V30 41 1 26 12
M  V30 42 1 24 19
M  V30 43 1 3 39
M  V30 44 1 5 40
M  V30 45 1 6 41
M  V30 46 1 8 42
M  V30 47 1 8 43
M  V30 48 1 9 44
M  V30 49 1 13 45
M  V30 50 1 14 46
M  V30 51 1 17 47
M  V30 52 1 17 48
M  V30 53 1 18 49
M  V30 54 1 18 50
M  V30 55 1 20 51
M  V30 56 1 20 52
M  V30 57 1 21 53
M  V30 58 1 21 54
M  V30 59 1 23 55
M  V30 60 1 23 56
M  V30 61 1 24 57
M  V30 62 1 24 58
M  V30 63 1 25 59
M  V30 64 1 28 60
M  V30 65 1 29 61
M  V30 66 1 30 62
M  V30 67 1 32 63
M  V30 68 1 33 64
M  V30 69 1 38 65
M  V30 END BOND
M  V30 END CTAB
M  END
>  <Dataset>  (373) 
ChEMBL_Kinases

>  <Ligand_Instance>  (373) 
nan

>  <PDB_ID>  (373) 
nan

>  <Standardized_SMILES>  (373) 
O=C(Nc1ccc(CNc2nc3ccc(OCCN4CCOCC4)cc3o2)cc1)Nc1ccc(Cl)c(Cl)c1

>  <Name>  (373) 
nan

>  <Pocket>  (373) 
nan

>  <ATP_Site>  (373) 
nan

>  <Peripheral>  (373) 
nan

>  <Num_H_Atoms_ProtBoundConf>  (373) 
nan

>  <Num_Resolved_Atoms>  (373) 
nan

>  <Num_Not_Resolved_Atoms>  (373) 
nan

$$$$
CHEMBL3808764
     RDKit          3D

  0  0  0  0  0  0  0  0  0  0999 V3000
M  V30 BEGIN CTAB
M  V30 COUNTS 43 46 0 0 0
M  V30 BEGIN ATOM
M  V30 1 C -3.109804 -3.752658 3.545957 0
M  V30 2 C -3.026944 -2.349731 3.070169 0
M  V30 3 O -3.000031 -1.466495 3.988797 0
M  V30 4 N -2.982669 -2.059840 1.704029 0
M  V30 5 C -2.905547 -0.950155 0.822167 0
M  V30 6 C -4.088544 -0.348342 0.385594 0
M  V30 7 C -4.024034 0.740947 -0.474529 0
M  V30 8 C -2.794015 1.209516 -0.882750 0
M  V30 9 C -1.598364 0.637433 -0.470276 0
M  V30 10 N -0.310315 1.102099 -0.866209 0
M  V30 11 C 0.901901 0.429551 -0.540216 0
M  V30 12 C 1.676350 0.501984 0.596943 0
M  V30 13 C 2.810823 -0.252575 0.653531 0
M  V30 14 N 3.582156 -0.158535 1.841894 0
M  V30 15 C 3.245473 0.664038 2.978475 0
M  V30 16 C 3.111285 2.141033 2.873342 0
M  V30 17 C 4.306996 1.513029 3.571431 0
M  V30 18 N 3.229387 -1.067483 -0.328638 0
M  V30 19 N 4.277254 -1.857586 -0.452385 0
M  V30 20 C 4.246325 -2.480525 -1.658100 0
M  V30 21 C 3.087386 -2.017157 -2.287477 0
M  V30 22 C 2.612469 -2.394423 -3.602230 0
M  V30 23 N 2.214483 -2.714387 -4.663328 0
M  V30 24 C 2.446832 -1.120077 -1.438725 0
M  V30 25 N 1.321085 -0.395733 -1.540973 0
M  V30 26 C -1.693747 -0.457115 0.395167 0
M  V30 27 H -3.334978 -4.399585 2.683002 0
M  V30 28 H -2.124753 -4.071642 3.995050 0
M  V30 29 H -3.921740 -3.831816 4.321590 0
M  V30 30 H -3.006928 -2.832502 0.975650 0
M  V30 31 H -5.057243 -0.729123 0.717738 0
M  V30 32 H -4.938288 1.220746 -0.823005 0
M  V30 33 H -2.679876 2.052347 -1.550666 0
M  V30 34 H -0.310492 1.984011 -1.421971 0
M  V30 35 H 1.275616 1.174925 1.335652 0
M  V30 36 H 4.465608 -0.698782 1.959436 0
M  V30 37 H 2.536887 0.180385 3.697365 0
M  V30 38 H 3.338574 2.624772 1.898093 0
M  V30 39 H 2.376472 2.677328 3.514857 0
M  V30 40 H 4.373399 1.715891 4.654597 0
M  V30 41 H 5.304531 1.579397 3.068331 0
M  V30 42 H 4.932140 -3.189544 -2.100802 0
M  V30 43 H -0.790150 -0.933006 0.742214 0
M  V30 END ATOM
M  V30 BEGIN BOND
M  V30 1 1 1 2
M  V30 2 2 2 3
M  V30 3 1 2 4
M  V30 4 1 4 5
M  V30 5 2 5 6
M  V30 6 1 6 7
M  V30 7 2 7 8
M  V30 8 1 8 9
M  V30 9 1 9 10
M  V30 10 1 10 11
M  V30 11 1 11 12
M  V30 12 2 12 13
M  V30 13 1 13 14
M  V30 14 1 14 15
M  V30 15 1 15 16
M  V30 16 1 16 17
M  V30 17 1 13 18
M  V30 18 1 18 19
M  V30 19 2 19 20
M  V30 20 1 20 21
M  V30 21 1 21 22
M  V30 22 3 22 23
M  V30 23 2 21 24
M  V30 24 1 24 25
M  V30 25 2 9 26
M  V30 26 1 26 5
M  V30 27 2 25 11
M  V30 28 1 17 15
M  V30 29 1 24 18
M  V30 30 1 1 27
M  V30 31 1 1 28
M  V30 32 1 1 29
M  V30 33 1 4 30
M  V30 34 1 6 31
M  V30 35 1 7 32
M  V30 36 1 8 33
M  V30 37 1 10 34
M  V30 38 1 12 35
M  V30 39 1 14 36
M  V30 40 1 15 37
M  V30 41 1 16 38
M  V30 42 1 16 39
M  V30 43 1 17 40
M  V30 44 1 17 41
M  V30 45 1 20 42
M  V30 46 1 26 43
M  V30 END BOND
M  V30 END CTAB
M  END
>  <Dataset>  (374) 
ChEMBL_Kinases

>  <Ligand_Instance>  (374) 
nan

>  <PDB_ID>  (374) 
nan

>  <Standardized_SMILES>  (374) 
CC(=O)Nc1cccc(Nc2cc(NC3CC3)n3ncc(C#N)c3n2)c1

>  <Name>  (374) 
nan

>  <Pocket>  (374) 
nan

>  <ATP_Site>  (374) 
nan

>  <Peripheral>  (374) 
nan

>  <Num_H_Atoms_ProtBoundConf>  (374) 
nan

>  <Num_Resolved_Atoms>  (374) 
nan

>  <Num_Not_Resolved_Atoms>  (374) 
nan

$$$$
CHEMBL3808695
     RDKit          3D

  0  0  0  0  0  0  0  0  0  0999 V3000
M  V30 BEGIN CTAB
M  V30 COUNTS 46 48 0 0 0
M  V30 BEGIN ATOM
M  V30 1 C -1.388791 -3.464728 0.748497 0
M  V30 2 C 0.056431 -3.894068 0.570796 0
M  V30 3 C 0.393614 -4.528622 1.928446 0
M  V30 4 C -0.014815 -5.052484 -0.397387 0
M  V30 5 O 0.762616 -2.853442 0.228766 0
M  V30 6 C 0.959549 -1.707647 0.893974 0
M  V30 7 C 2.373739 -1.516329 1.407158 0
M  V30 8 C 2.451936 -0.112602 1.955748 0
M  V30 9 O 1.388353 0.103951 2.791274 0
M  V30 10 C 2.465623 0.810309 0.763400 0
M  V30 11 C 1.488131 0.435188 -0.309136 0
M  V30 12 C 0.925127 1.681824 -0.869750 0
M  V30 13 O 1.382684 2.216976 -1.934624 0
M  V30 14 C -0.167807 2.291299 -0.179988 0
M  V30 15 C -0.406536 3.647552 -0.405881 0
M  V30 16 O 0.359306 4.409678 -1.254792 0
M  V30 17 C -1.454239 4.261374 0.245672 0
M  V30 18 C -2.251773 3.545279 1.105837 0
M  V30 19 C -1.978353 2.214569 1.296028 0
M  V30 20 O -2.788162 1.522881 2.158518 0
M  V30 21 C -0.935123 1.522693 0.672071 0
M  V30 22 C -0.653247 0.087133 0.887037 0
M  V30 23 O -1.446538 -0.388881 1.737636 0
M  V30 24 C 0.449376 -0.548236 0.122445 0
M  V30 25 H -1.552063 -3.113476 1.801890 0
M  V30 26 H -1.550799 -2.585470 0.094530 0
M  V30 27 H -2.105971 -4.286160 0.510086 0
M  V30 28 H -0.409738 -5.289872 2.080895 0
M  V30 29 H 0.307921 -3.815362 2.757529 0
M  V30 30 H 1.339589 -5.084326 1.909100 0
M  V30 31 H -0.457321 -4.750365 -1.369527 0
M  V30 32 H -0.796348 -5.731082 0.057639 0
M  V30 33 H 0.894948 -5.642783 -0.449160 0
M  V30 34 H 0.374376 -1.770578 1.831574 0
M  V30 35 H 2.535718 -2.211193 2.225693 0
M  V30 36 H 3.126147 -1.548918 0.601219 0
M  V30 37 H 3.439802 0.061474 2.465570 0
M  V30 38 H 1.181718 1.056809 2.928861 0
M  V30 39 H 3.495547 0.886251 0.370595 0
M  V30 40 H 2.241641 1.839881 1.155108 0
M  V30 41 H 2.081357 -0.027754 -1.127756 0
M  V30 42 H 1.083465 5.028278 -0.884680 0
M  V30 43 H -1.668916 5.306868 0.096136 0
M  V30 44 H -3.068876 4.016684 1.616249 0
M  V30 45 H -3.510547 0.866670 1.858455 0
M  V30 46 H -0.064453 -0.935711 -0.803849 0
M  V30 END ATOM
M  V30 BEGIN BOND
M  V30 1 1 1 2
M  V30 2 1 2 3
M  V30 3 1 2 4
M  V30 4 1 2 5
M  V30 5 1 5 6
M  V30 6 1 6 7
M  V30 7 1 7 8
M  V30 8 1 8 9
M  V30 9 1 8 10
M  V30 10 1 10 11
M  V30 11 1 11 12
M  V30 12 2 12 13
M  V30 13 1 12 14
M  V30 14 2 14 15
M  V30 15 1 15 16
M  V30 16 1 15 17
M  V30 17 2 17 18
M  V30 18 1 18 19
M  V30 19 1 19 20
M  V30 20 2 19 21
M  V30 21 1 21 22
M  V30 22 2 22 23
M  V30 23 1 22 24
M  V30 24 1 24 6
M  V30 25 1 24 11
M  V30 26 1 21 14
M  V30 27 1 1 25
M  V30 28 1 1 26
M  V30 29 1 1 27
M  V30 30 1 3 28
M  V30 31 1 3 29
M  V30 32 1 3 30
M  V30 33 1 4 31
M  V30 34 1 4 32
M  V30 35 1 4 33
M  V30 36 1 6 34
M  V30 37 1 7 35
M  V30 38 1 7 36
M  V30 39 1 8 37
M  V30 40 1 9 38
M  V30 41 1 10 39
M  V30 42 1 10 40
M  V30 43 1 11 41
M  V30 44 1 16 42
M  V30 45 1 17 43
M  V30 46 1 18 44
M  V30 47 1 20 45
M  V30 48 1 24 46
M  V30 END BOND
M  V30 END CTAB
M  END
>  <Dataset>  (375) 
ChEMBL_Kinases

>  <Ligand_Instance>  (375) 
nan

>  <PDB_ID>  (375) 
nan

>  <Standardized_SMILES>  (375) 
CC(C)(C)OC1CC(O)CC2C(=O)c3c(O)ccc(O)c3C(=O)C12

>  <Name>  (375) 
nan

>  <Pocket>  (375) 
nan

>  <ATP_Site>  (375) 
nan

>  <Peripheral>  (375) 
nan

>  <Num_H_Atoms_ProtBoundConf>  (375) 
nan

>  <Num_Resolved_Atoms>  (375) 
nan

>  <Num_Not_Resolved_Atoms>  (375) 
nan

$$$$
CHEMBL497187
     RDKit          3D

  0  0  0  0  0  0  0  0  0  0999 V3000
M  V30 BEGIN CTAB
M  V30 COUNTS 57 61 0 0 0
M  V30 BEGIN ATOM
M  V30 1 N 1.014986 -1.307345 5.485772 0
M  V30 2 C 1.843711 -0.979242 4.392704 0
M  V30 3 N 3.152551 -1.241135 4.499417 0
M  V30 4 C 3.994780 -0.946429 3.476096 0
M  V30 5 C 3.408965 -0.376343 2.361001 0
M  V30 6 C 2.066000 -0.093892 2.219594 0
M  V30 7 C 1.624399 0.508390 0.954751 0
M  V30 8 C 1.909666 1.723405 0.320640 0
M  V30 9 C 2.810252 2.694324 0.935642 0
M  V30 10 C 2.045087 3.700761 1.537829 0
M  V30 11 C 2.664516 4.765381 2.203923 0
M  V30 12 C 4.047105 4.778310 2.239767 0
M  V30 13 F 4.684580 5.786734 2.872259 0
M  V30 14 C 4.805867 3.780069 1.642397 0
M  V30 15 C 4.166054 2.746699 0.995028 0
M  V30 16 N 1.209986 1.733388 -0.849572 0
M  V30 17 C 0.512204 0.581775 -0.955715 0
M  V30 18 C -0.343497 0.144553 -1.966931 0
M  V30 19 C -0.972093 -1.079437 -1.881357 0
M  V30 20 C -1.888248 -1.650077 -2.906446 0
M  V30 21 C -3.257088 -1.037320 -2.693314 0
M  V30 22 C -4.114359 -1.745373 -1.716545 0
M  V30 23 N -3.766367 -3.071715 -1.381982 0
M  V30 24 C -3.877347 -3.447318 -0.032993 0
M  V30 25 C -3.482541 -4.855422 0.293715 0
M  V30 26 O -4.251267 -5.815955 -0.394939 0
M  V30 27 C -2.990808 -3.824765 -2.270885 0
M  V30 28 C -1.888247 -3.120840 -3.008457 0
M  V30 29 C -0.709980 -1.835333 -0.755873 0
M  V30 30 C 0.148294 -1.398981 0.259088 0
M  V30 31 N 0.759558 -0.181876 0.151561 0
M  V30 32 N 1.326524 -0.425872 3.291494 0
M  V30 33 H 0.400123 -0.525560 5.796796 0
M  V30 34 H 1.059113 -2.266903 5.902947 0
M  V30 35 H 5.054285 -1.148636 3.538139 0
M  V30 36 H 4.126977 -0.159055 1.564100 0
M  V30 37 H 0.952613 3.797683 1.575633 0
M  V30 38 H 2.128143 5.568903 2.686463 0
M  V30 39 H 5.898074 3.762742 1.654518 0
M  V30 40 H 4.630920 1.914904 0.490692 0
M  V30 41 H -0.541340 0.741320 -2.842788 0
M  V30 42 H -1.550863 -1.211661 -3.873026 0
M  V30 43 H -3.128094 0.021351 -2.360275 0
M  V30 44 H -3.829612 -0.956724 -3.667060 0
M  V30 45 H -5.178934 -1.737604 -2.069877 0
M  V30 46 H -4.154723 -1.162418 -0.756938 0
M  V30 47 H -3.341669 -2.794365 0.688619 0
M  V30 48 H -4.957435 -3.344754 0.258957 0
M  V30 49 H -3.727153 -5.035967 1.381222 0
M  V30 50 H -2.418701 -5.079184 0.201240 0
M  V30 51 H -4.122573 -6.658689 0.102604 0
M  V30 52 H -3.702561 -4.227544 -3.056294 0
M  V30 53 H -2.628004 -4.748101 -1.777374 0
M  V30 54 H -0.926398 -3.501466 -2.571275 0
M  V30 55 H -1.855106 -3.460464 -4.075581 0
M  V30 56 H -1.120359 -2.790566 -0.565454 0
M  V30 57 H 0.342052 -2.020115 1.147432 0
M  V30 END ATOM
M  V30 BEGIN BOND
M  V30 1 1 1 2
M  V30 2 2 2 3
M  V30 3 1 3 4
M  V30 4 2 4 5
M  V30 5 1 5 6
M  V30 6 1 6 7
M  V30 7 2 7 8
M  V30 8 1 8 9
M  V30 9 2 9 10
M  V30 10 1 10 11
M  V30 11 2 11 12
M  V30 12 1 12 13
M  V30 13 1 12 14
M  V30 14 2 14 15
M  V30 15 1 8 16
M  V30 16 2 16 17
M  V30 17 1 17 18
M  V30 18 2 18 19
M  V30 19 1 19 20
M  V30 20 1 20 21
M  V30 21 1 21 22
M  V30 22 1 22 23
M  V30 23 1 23 24
M  V30 24 1 24 25
M  V30 25 1 25 26
M  V30 26 1 23 27
M  V30 27 1 27 28
M  V30 28 1 19 29
M  V30 29 2 29 30
M  V30 30 1 30 31
M  V30 31 2 6 32
M  V30 32 1 32 2
M  V30 33 1 31 7
M  V30 34 1 15 9
M  V30 35 1 31 17
M  V30 36 1 28 20
M  V30 37 1 1 33
M  V30 38 1 1 34
M  V30 39 1 4 35
M  V30 40 1 5 36
M  V30 41 1 10 37
M  V30 42 1 11 38
M  V30 43 1 14 39
M  V30 44 1 15 40
M  V30 45 1 18 41
M  V30 46 1 20 42
M  V30 47 1 21 43
M  V30 48 1 21 44
M  V30 49 1 22 45
M  V30 50 1 22 46
M  V30 51 1 24 47
M  V30 52 1 24 48
M  V30 53 1 25 49
M  V30 54 1 25 50
M  V30 55 1 26 51
M  V30 56 1 27 52
M  V30 57 1 27 53
M  V30 58 1 28 54
M  V30 59 1 28 55
M  V30 60 1 29 56
M  V30 61 1 30 57
M  V30 END BOND
M  V30 END CTAB
M  END
>  <Dataset>  (376) 
ChEMBL_Kinases

>  <Ligand_Instance>  (376) 
nan

>  <PDB_ID>  (376) 
nan

>  <Standardized_SMILES>  (376) 
Nc1nccc(-c2c(-c3ccc(F)cc3)nc3cc(C4CCN(CCO)CC4)ccn23)n1

>  <Name>  (376) 
nan

>  <Pocket>  (376) 
nan

>  <ATP_Site>  (376) 
nan

>  <Peripheral>  (376) 
nan

>  <Num_H_Atoms_ProtBoundConf>  (376) 
nan

>  <Num_Resolved_Atoms>  (376) 
nan

>  <Num_Not_Resolved_Atoms>  (376) 
nan

$$$$
CHEMBL592002
     RDKit          3D

  0  0  0  0  0  0  0  0  0  0999 V3000
M  V30 BEGIN CTAB
M  V30 COUNTS 63 68 0 0 0
M  V30 BEGIN ATOM
M  V30 1 N 1.834475 2.225117 8.022182 0
M  V30 2 C 0.564483 2.220026 7.390337 0
M  V30 3 O -0.425083 2.709551 7.993958 0
M  V30 4 C 0.441377 1.637292 6.036066 0
M  V30 5 N 1.467363 1.091434 5.324938 0
M  V30 6 N 1.020759 0.665278 4.160642 0
M  V30 7 C 1.904071 0.055684 3.238434 0
M  V30 8 C 2.229110 -1.303220 3.120505 0
M  V30 9 C 3.132490 -1.696691 2.154869 0
M  V30 10 C 3.707071 -0.767392 1.318301 0
M  V30 11 F 4.595592 -1.202214 0.377623 0
M  V30 12 C 3.411043 0.579462 1.405099 0
M  V30 13 C 2.499735 0.987024 2.377208 0
M  V30 14 C -0.284942 0.927003 4.104320 0
M  V30 15 C -0.717494 1.540535 5.255442 0
M  V30 16 C -2.058144 2.017916 5.661036 0
M  V30 17 C -3.081283 1.760470 4.589360 0
M  V30 18 C -2.559250 1.106769 3.393149 0
M  V30 19 C -3.522743 0.884056 2.428684 0
M  V30 20 C -3.220551 0.273974 1.221933 0
M  V30 21 C -1.924646 -0.141009 0.933118 0
M  V30 22 N -1.646187 -0.764152 -0.314289 0
M  V30 23 C -1.742272 -2.173956 -0.467696 0
M  V30 24 O -2.083705 -2.824162 0.553532 0
M  V30 25 C -1.480719 -2.915652 -1.695518 0
M  V30 26 C -1.624021 -4.267104 -1.657288 0
M  V30 27 C -1.385399 -5.023859 -2.806104 0
M  V30 28 N -1.010872 -4.381400 -3.948670 0
M  V30 29 C -0.868494 -3.048868 -3.990348 0
M  V30 30 N -0.474160 -2.490445 -5.235894 0
M  V30 31 C -0.254436 -3.373816 -6.364025 0
M  V30 32 C 0.781791 -2.812846 -7.282917 0
M  V30 33 O 1.711017 -2.072900 -6.562540 0
M  V30 34 C 1.137951 -0.872785 -6.093319 0
M  V30 35 C -0.253265 -1.107230 -5.544098 0
M  V30 36 C -1.100355 -2.290396 -2.865799 0
M  V30 37 C -0.959456 0.080346 1.895445 0
M  V30 38 C -1.286128 0.687108 3.082875 0
M  V30 39 H 2.453369 1.610433 8.611417 0
M  V30 40 H 2.343275 1.520719 8.597360 0
M  V30 41 H 1.703796 -1.924059 3.842160 0
M  V30 42 H 3.338712 -2.755590 2.117079 0
M  V30 43 H 3.890822 1.260452 0.724435 0
M  V30 44 H 2.317546 2.041197 2.388186 0
M  V30 45 H -2.341174 1.444152 6.575312 0
M  V30 46 H -2.047711 3.113751 5.886204 0
M  V30 47 H -3.901173 1.102989 5.011246 0
M  V30 48 H -3.596572 2.733955 4.320959 0
M  V30 49 H -4.576611 1.154881 2.515586 0
M  V30 50 H -3.967879 0.090139 0.449166 0
M  V30 51 H -1.361464 -0.213012 -1.162676 0
M  V30 52 H -1.914631 -4.862244 -0.805523 0
M  V30 53 H -1.479828 -6.105873 -2.849922 0
M  V30 54 H -0.062477 -4.409058 -6.044646 0
M  V30 55 H -1.236513 -3.419467 -6.913769 0
M  V30 56 H 1.326757 -3.663272 -7.741530 0
M  V30 57 H 0.317717 -2.200590 -8.078231 0
M  V30 58 H 1.838050 -0.455204 -5.343371 0
M  V30 59 H 1.144967 -0.180943 -6.961180 0
M  V30 60 H -0.948080 -0.837363 -6.387925 0
M  V30 61 H -0.415629 -0.432203 -4.688762 0
M  V30 62 H -0.985845 -1.215941 -2.898394 0
M  V30 63 H 0.030395 -0.249365 1.646561 0
M  V30 END ATOM
M  V30 BEGIN BOND
M  V30 1 1 1 2
M  V30 2 2 2 3
M  V30 3 1 2 4
M  V30 4 2 4 5
M  V30 5 1 5 6
M  V30 6 1 6 7
M  V30 7 2 7 8
M  V30 8 1 8 9
M  V30 9 2 9 10
M  V30 10 1 10 11
M  V30 11 1 10 12
M  V30 12 2 12 13
M  V30 13 1 6 14
M  V30 14 2 14 15
M  V30 15 1 15 16
M  V30 16 1 16 17
M  V30 17 1 17 18
M  V30 18 2 18 19
M  V30 19 1 19 20
M  V30 20 2 20 21
M  V30 21 1 21 22
M  V30 22 1 22 23
M  V30 23 2 23 24
M  V30 24 1 23 25
M  V30 25 2 25 26
M  V30 26 1 26 27
M  V30 27 2 27 28
M  V30 28 1 28 29
M  V30 29 1 29 30
M  V30 30 1 30 31
M  V30 31 1 31 32
M  V30 32 1 32 33
M  V30 33 1 33 34
M  V30 34 1 34 35
M  V30 35 2 29 36
M  V30 36 1 21 37
M  V30 37 2 37 38
M  V30 38 1 15 4
M  V30 39 1 38 18
M  V30 40 1 13 7
M  V30 41 1 38 14
M  V30 42 1 36 25
M  V30 43 1 35 30
M  V30 44 1 1 39
M  V30 45 1 1 40
M  V30 46 1 8 41
M  V30 47 1 9 42
M  V30 48 1 12 43
M  V30 49 1 13 44
M  V30 50 1 16 45
M  V30 51 1 16 46
M  V30 52 1 17 47
M  V30 53 1 17 48
M  V30 54 1 19 49
M  V30 55 1 20 50
M  V30 56 1 22 51
M  V30 57 1 26 52
M  V30 58 1 27 53
M  V30 59 1 31 54
M  V30 60 1 31 55
M  V30 61 1 32 56
M  V30 62 1 32 57
M  V30 63 1 34 58
M  V30 64 1 34 59
M  V30 65 1 35 60
M  V30 66 1 35 61
M  V30 67 1 36 62
M  V30 68 1 37 63
M  V30 END BOND
M  V30 END CTAB
M  END
>  <Dataset>  (377) 
ChEMBL_Kinases

>  <Ligand_Instance>  (377) 
nan

>  <PDB_ID>  (377) 
nan

>  <Standardized_SMILES>  (377) 
NC(=O)c1nn(-c2ccc(F)cc2)c2c1CCc1ccc(NC(=O)c3ccnc(N4CCOCC4)c3)cc1-2

>  <Name>  (377) 
nan

>  <Pocket>  (377) 
nan

>  <ATP_Site>  (377) 
nan

>  <Peripheral>  (377) 
nan

>  <Num_H_Atoms_ProtBoundConf>  (377) 
nan

>  <Num_Resolved_Atoms>  (377) 
nan

>  <Num_Not_Resolved_Atoms>  (377) 
nan

$$$$
CHEMBL497188
     RDKit          3D

  0  0  0  0  0  0  0  0  0  0999 V3000
M  V30 BEGIN CTAB
M  V30 COUNTS 62 66 0 0 0
M  V30 BEGIN ATOM
M  V30 1 C 3.083056 -0.758809 4.430901 0
M  V30 2 C 2.326538 -1.446252 5.531161 0
M  V30 3 C 2.742223 -0.901989 6.887762 0
M  V30 4 C 0.866998 -1.576254 5.373375 0
M  V30 5 N 0.056738 -0.422780 5.264687 0
M  V30 6 C -1.330754 -0.859403 5.225805 0
M  V30 7 C -1.781068 -1.038608 3.801528 0
M  V30 8 C -1.827954 0.289707 3.072054 0
M  V30 9 C -1.675945 0.174847 1.613057 0
M  V30 10 C -2.565899 0.742088 0.697571 0
M  V30 11 C -2.440766 0.638907 -0.682033 0
M  V30 12 N -1.397491 -0.050316 -1.170902 0
M  V30 13 C -1.034256 -0.306624 -2.440028 0
M  V30 14 C -1.640106 0.066430 -3.709691 0
M  V30 15 C -1.180663 0.866319 -4.734925 0
M  V30 16 C -1.952433 1.064006 -5.850702 0
M  V30 17 N -3.143284 0.473018 -5.922555 0
M  V30 18 C -3.629269 -0.318870 -4.937208 0
M  V30 19 N -4.914117 -0.904122 -5.109999 0
M  V30 20 N -2.858940 -0.508616 -3.837833 0
M  V30 21 C 0.118116 -1.058557 -2.435633 0
M  V30 22 C 1.023300 -1.659988 -3.404364 0
M  V30 23 C 1.834121 -1.039986 -4.313268 0
M  V30 24 C 2.636841 -1.767600 -5.166810 0
M  V30 25 C 2.664533 -3.146886 -5.149225 0
M  V30 26 F 3.465568 -3.843306 -6.001361 0
M  V30 27 C 1.849364 -3.794817 -4.234407 0
M  V30 28 C 1.040643 -3.059764 -3.374790 0
M  V30 29 N 0.434935 -1.246131 -1.144221 0
M  V30 30 C -0.494758 -0.627560 -0.358172 0
M  V30 31 C -0.642890 -0.509791 1.007596 0
M  V30 32 C -0.861443 1.253043 3.722592 0
M  V30 33 C 0.363264 0.541185 4.271489 0
M  V30 34 H 3.063095 0.347569 4.474851 0
M  V30 35 H 4.201439 -0.982152 4.531102 0
M  V30 36 H 2.846114 -1.170167 3.427678 0
M  V30 37 H 2.733776 -2.509406 5.537998 0
M  V30 38 H 2.883212 0.185628 6.804756 0
M  V30 39 H 3.734580 -1.325462 7.169463 0
M  V30 40 H 2.043354 -1.226907 7.662012 0
M  V30 41 H 0.421932 -2.178725 6.230623 0
M  V30 42 H 0.702570 -2.280144 4.500386 0
M  V30 43 H -1.995301 -0.172477 5.785808 0
M  V30 44 H -1.389877 -1.840202 5.732532 0
M  V30 45 H -2.824162 -1.464607 3.877128 0
M  V30 46 H -1.186743 -1.791400 3.287572 0
M  V30 47 H -2.835528 0.727501 3.268082 0
M  V30 48 H -3.407814 1.299196 1.092198 0
M  V30 49 H -3.140800 1.085699 -1.349969 0
M  V30 50 H -0.219353 1.268523 -4.534423 0
M  V30 51 H -1.497138 1.704704 -6.588256 0
M  V30 52 H -4.784231 -1.708400 -5.749103 0
M  V30 53 H -5.832766 -0.605326 -4.688858 0
M  V30 54 H 1.799759 0.021823 -4.308922 0
M  V30 55 H 3.268000 -1.247836 -5.875792 0
M  V30 56 H 1.871407 -4.882962 -4.220609 0
M  V30 57 H 0.441839 -3.688764 -2.697700 0
M  V30 58 H 0.106575 -0.996342 1.575492 0
M  V30 59 H -1.337505 1.739124 4.597228 0
M  V30 60 H -0.507869 2.030320 3.033130 0
M  V30 61 H 0.944445 1.371726 4.765760 0
M  V30 62 H 0.961607 0.204706 3.422084 0
M  V30 END ATOM
M  V30 BEGIN BOND
M  V30 1 1 1 2
M  V30 2 1 2 3
M  V30 3 1 2 4
M  V30 4 1 4 5
M  V30 5 1 5 6
M  V30 6 1 6 7
M  V30 7 1 7 8
M  V30 8 1 8 9
M  V30 9 1 9 10
M  V30 10 2 10 11
M  V30 11 1 11 12
M  V30 12 1 12 13
M  V30 13 1 13 14
M  V30 14 2 14 15
M  V30 15 1 15 16
M  V30 16 2 16 17
M  V30 17 1 17 18
M  V30 18 1 18 19
M  V30 19 2 18 20
M  V30 20 2 13 21
M  V30 21 1 21 22
M  V30 22 2 22 23
M  V30 23 1 23 24
M  V30 24 2 24 25
M  V30 25 1 25 26
M  V30 26 1 25 27
M  V30 27 2 27 28
M  V30 28 1 21 29
M  V30 29 2 29 30
M  V30 30 1 30 31
M  V30 31 1 8 32
M  V30 32 1 32 33
M  V30 33 1 33 5
M  V30 34 2 31 9
M  V30 35 1 30 12
M  V30 36 1 20 14
M  V30 37 1 28 22
M  V30 38 1 1 34
M  V30 39 1 1 35
M  V30 40 1 1 36
M  V30 41 1 2 37
M  V30 42 1 3 38
M  V30 43 1 3 39
M  V30 44 1 3 40
M  V30 45 1 4 41
M  V30 46 1 4 42
M  V30 47 1 6 43
M  V30 48 1 6 44
M  V30 49 1 7 45
M  V30 50 1 7 46
M  V30 51 1 8 47
M  V30 52 1 10 48
M  V30 53 1 11 49
M  V30 54 1 15 50
M  V30 55 1 16 51
M  V30 56 1 19 52
M  V30 57 1 19 53
M  V30 58 1 23 54
M  V30 59 1 24 55
M  V30 60 1 27 56
M  V30 61 1 28 57
M  V30 62 1 31 58
M  V30 63 1 32 59
M  V30 64 1 32 60
M  V30 65 1 33 61
M  V30 66 1 33 62
M  V30 END BOND
M  V30 END CTAB
M  END
>  <Dataset>  (378) 
ChEMBL_Kinases

>  <Ligand_Instance>  (378) 
nan

>  <PDB_ID>  (378) 
nan

>  <Standardized_SMILES>  (378) 
CC(C)CN1CCC(c2ccn3c(-c4ccnc(N)n4)c(-c4ccc(F)cc4)nc3c2)CC1

>  <Name>  (378) 
nan

>  <Pocket>  (378) 
nan

>  <ATP_Site>  (378) 
nan

>  <Peripheral>  (378) 
nan

>  <Num_H_Atoms_ProtBoundConf>  (378) 
nan

>  <Num_Resolved_Atoms>  (378) 
nan

>  <Num_Not_Resolved_Atoms>  (378) 
nan

$$$$
CHEMBL3916750
     RDKit          3D

  0  0  0  0  0  0  0  0  0  0999 V3000
M  V30 BEGIN CTAB
M  V30 COUNTS 41 44 0 0 0
M  V30 BEGIN ATOM
M  V30 1 C -0.563413 -4.997363 1.257765 0
M  V30 2 C 0.699871 -4.379736 1.726494 0
M  V30 3 N 1.477689 -4.818120 2.716202 0
M  V30 4 N 2.531289 -3.998168 2.845589 0
M  V30 5 C 2.448108 -2.999005 1.924182 0
M  V30 6 C 3.229278 -1.903299 1.603218 0
M  V30 7 N 2.815544 -1.105232 0.593285 0
M  V30 8 C 1.681014 -1.348274 -0.094455 0
M  V30 9 C 1.413758 -0.353505 -1.154891 0
M  V30 10 O 1.468602 -0.428365 -2.415673 0
M  V30 11 N 1.011198 0.973206 -0.813081 0
M  V30 12 C 0.732085 2.000158 -1.784107 0
M  V30 13 C 0.517972 3.267329 -1.002440 0
M  V30 14 C 0.938495 2.928649 0.390941 0
M  V30 15 C 0.833836 1.449597 0.567452 0 CFG=1
M  V30 16 C -0.424764 0.989995 1.155415 0
M  V30 17 C -0.442849 0.479437 2.437443 0
M  V30 18 C -1.611201 0.037599 3.023786 0
M  V30 19 C -2.823987 0.081997 2.360587 0
M  V30 20 Cl -4.328204 -0.463069 3.054024 0
M  V30 21 C -2.825941 0.596521 1.058773 0
M  V30 22 C -1.635753 1.027515 0.510077 0
M  V30 23 C 0.858510 -2.421912 0.175291 0
M  V30 24 C 1.290970 -3.231236 1.209372 0
M  V30 25 H -1.166811 -5.413161 2.089522 0
M  V30 26 H -1.207183 -4.271425 0.703299 0
M  V30 27 H -0.311707 -5.818281 0.567546 0
M  V30 28 H 3.339186 -4.029632 3.510204 0
M  V30 29 H 4.130773 -1.751800 2.186245 0
M  V30 30 H 1.585842 2.165244 -2.483935 0
M  V30 31 H -0.165011 1.685361 -2.356806 0
M  V30 32 H -0.550546 3.533238 -1.095182 0
M  V30 33 H 1.076367 4.128740 -1.413731 0
M  V30 34 H 0.421453 3.515417 1.174682 0
M  V30 35 H 2.032995 3.186775 0.485117 0
M  V30 36 H 1.696844 1.038631 1.162561 0
M  V30 37 H 0.470851 0.406445 3.037051 0
M  V30 38 H -1.597965 -0.357390 4.028860 0
M  V30 39 H -3.779499 0.632728 0.535112 0
M  V30 40 H -1.690927 1.420868 -0.510079 0
M  V30 41 H -0.023938 -2.552527 -0.410635 0
M  V30 END ATOM
M  V30 BEGIN BOND
M  V30 1 1 1 2
M  V30 2 2 2 3
M  V30 3 1 3 4
M  V30 4 1 4 5
M  V30 5 2 5 6
M  V30 6 1 6 7
M  V30 7 2 7 8
M  V30 8 1 8 9
M  V30 9 2 9 10
M  V30 10 1 9 11
M  V30 11 1 11 12
M  V30 12 1 12 13
M  V30 13 1 13 14
M  V30 14 1 14 15
M  V30 15 1 15 16
M  V30 16 2 16 17
M  V30 17 1 17 18
M  V30 18 2 18 19
M  V30 19 1 19 20
M  V30 20 1 19 21
M  V30 21 2 21 22
M  V30 22 1 8 23
M  V30 23 2 23 24
M  V30 24 1 24 2
M  V30 25 1 24 5
M  V30 26 1 15 11
M  V30 27 1 22 16
M  V30 28 1 1 25
M  V30 29 1 1 26
M  V30 30 1 1 27
M  V30 31 1 4 28
M  V30 32 1 6 29
M  V30 33 1 12 30
M  V30 34 1 12 31
M  V30 35 1 13 32
M  V30 36 1 13 33
M  V30 37 1 14 34
M  V30 38 1 14 35
M  V30 39 1 15 36 CFG=1
M  V30 40 1 17 37
M  V30 41 1 18 38
M  V30 42 1 21 39
M  V30 43 1 22 40
M  V30 44 1 23 41
M  V30 END BOND
M  V30 END CTAB
M  END
>  <Dataset>  (379) 
ChEMBL_Kinases

>  <Ligand_Instance>  (379) 
nan

>  <PDB_ID>  (379) 
nan

>  <Standardized_SMILES>  (379) 
Cc1n[nH]c2cnc(C(=O)N3CCC[C@H]3c3ccc(Cl)cc3)cc12

>  <Name>  (379) 
nan

>  <Pocket>  (379) 
nan

>  <ATP_Site>  (379) 
nan

>  <Peripheral>  (379) 
nan

>  <Num_H_Atoms_ProtBoundConf>  (379) 
nan

>  <Num_Resolved_Atoms>  (379) 
nan

>  <Num_Not_Resolved_Atoms>  (379) 
nan

$$$$
CHEMBL497559
     RDKit          3D

  0  0  0  0  0  0  0  0  0  0999 V3000
M  V30 BEGIN CTAB
M  V30 COUNTS 53 57 0 0 0
M  V30 BEGIN ATOM
M  V30 1 N -3.173129 -3.305852 5.749377 0
M  V30 2 C -2.550661 -2.414447 5.312079 0
M  V30 3 C -1.777604 -1.309522 4.779210 0
M  V30 4 C -1.578254 -1.253303 3.410332 0
M  V30 5 C -0.841107 -0.198847 2.910228 0
M  V30 6 C -0.300473 0.788979 3.700309 0
M  V30 7 C 0.486336 1.908016 3.177983 0
M  V30 8 C 0.183297 3.173176 3.655687 0
M  V30 9 N 1.037766 4.005864 3.029418 0
M  V30 10 C 1.834148 3.280576 2.199915 0
M  V30 11 C 2.861289 3.589962 1.337180 0
M  V30 12 C 3.443789 2.552146 0.651022 0
M  V30 13 C 3.084642 1.203033 0.751259 0
M  V30 14 N 3.757684 0.223334 0.001558 0
M  V30 15 C 3.524432 -1.179848 -0.018033 0
M  V30 16 C 2.180121 -1.593986 -0.477975 0
M  V30 17 C 1.084080 -1.797255 0.330837 0
M  V30 18 C -0.124071 -2.180948 -0.203867 0
M  V30 19 C -0.335919 -2.388056 -1.546203 0
M  V30 20 N -1.578069 -2.786358 -2.110754 0
M  V30 21 C -1.866805 -2.964182 -3.495816 0
M  V30 22 C -3.177442 -2.376478 -3.957057 0
M  V30 23 O -4.223227 -2.554571 -3.064987 0
M  V30 24 C -3.839655 -2.089197 -1.790089 0
M  V30 25 C -2.756027 -3.078356 -1.337232 0
M  V30 26 C 0.762863 -2.183774 -2.351106 0
M  V30 27 C 2.010576 -1.793569 -1.853480 0
M  V30 28 N 2.074447 1.001628 1.615927 0
M  V30 29 N 1.494460 1.982003 2.290526 0
M  V30 30 C -0.532136 0.684260 5.077690 0
M  V30 31 C -1.264769 -0.351111 5.642503 0
M  V30 32 H -1.965303 -1.985033 2.712652 0
M  V30 33 H -0.623148 -0.049549 1.861871 0
M  V30 34 H -0.541322 3.532615 4.361376 0
M  V30 35 H 3.190519 4.605278 1.209395 0
M  V30 36 H 4.260111 2.833995 -0.028386 0
M  V30 37 H 4.535385 0.580711 -0.627170 0
M  V30 38 H 3.592531 -1.515634 1.062438 0
M  V30 39 H 4.306872 -1.704199 -0.590657 0
M  V30 40 H 1.213878 -1.645044 1.393947 0
M  V30 41 H -0.907630 -2.311719 0.500965 0
M  V30 42 H -1.091600 -2.542638 -4.161721 0
M  V30 43 H -1.951900 -4.065441 -3.697273 0
M  V30 44 H -3.108748 -1.287970 -4.161838 0
M  V30 45 H -3.497971 -2.862155 -4.901621 0
M  V30 46 H -3.365550 -1.095961 -1.890060 0
M  V30 47 H -4.688321 -2.087978 -1.097268 0
M  V30 48 H -2.641411 -2.988765 -0.249616 0
M  V30 49 H -3.095523 -4.101642 -1.605932 0
M  V30 50 H 0.761290 -2.305605 -3.424566 0
M  V30 51 H 2.865732 -1.637643 -2.508300 0
M  V30 52 H -0.137202 1.429324 5.780188 0
M  V30 53 H -1.425205 -0.402247 6.712739 0
M  V30 END ATOM
M  V30 BEGIN BOND
M  V30 1 3 1 2
M  V30 2 1 2 3
M  V30 3 2 3 4
M  V30 4 1 4 5
M  V30 5 2 5 6
M  V30 6 1 6 7
M  V30 7 2 7 8
M  V30 8 1 8 9
M  V30 9 2 9 10
M  V30 10 1 10 11
M  V30 11 2 11 12
M  V30 12 1 12 13
M  V30 13 1 13 14
M  V30 14 1 14 15
M  V30 15 1 15 16
M  V30 16 2 16 17
M  V30 17 1 17 18
M  V30 18 2 18 19
M  V30 19 1 19 20
M  V30 20 1 20 21
M  V30 21 1 21 22
M  V30 22 1 22 23
M  V30 23 1 23 24
M  V30 24 1 24 25
M  V30 25 1 19 26
M  V30 26 2 26 27
M  V30 27 2 13 28
M  V30 28 1 28 29
M  V30 29 1 6 30
M  V30 30 2 30 31
M  V30 31 1 31 3
M  V30 32 1 29 7
M  V30 33 1 29 10
M  V30 34 1 27 16
M  V30 35 1 25 20
M  V30 36 1 4 32
M  V30 37 1 5 33
M  V30 38 1 8 34
M  V30 39 1 11 35
M  V30 40 1 12 36
M  V30 41 1 14 37
M  V30 42 1 15 38
M  V30 43 1 15 39
M  V30 44 1 17 40
M  V30 45 1 18 41
M  V30 46 1 21 42
M  V30 47 1 21 43
M  V30 48 1 22 44
M  V30 49 1 22 45
M  V30 50 1 24 46
M  V30 51 1 24 47
M  V30 52 1 25 48
M  V30 53 1 25 49
M  V30 54 1 26 50
M  V30 55 1 27 51
M  V30 56 1 30 52
M  V30 57 1 31 53
M  V30 END BOND
M  V30 END CTAB
M  END
>  <Dataset>  (380) 
ChEMBL_Kinases

>  <Ligand_Instance>  (380) 
nan

>  <PDB_ID>  (380) 
nan

>  <Standardized_SMILES>  (380) 
N#Cc1ccc(-c2cnc3ccc(NCc4ccc(N5CCOCC5)cc4)nn23)cc1

>  <Name>  (380) 
nan

>  <Pocket>  (380) 
nan

>  <ATP_Site>  (380) 
nan

>  <Peripheral>  (380) 
nan

>  <Num_H_Atoms_ProtBoundConf>  (380) 
nan

>  <Num_Resolved_Atoms>  (380) 
nan

>  <Num_Not_Resolved_Atoms>  (380) 
nan

$$$$
CHEMBL3808583
     RDKit          3D

  0  0  0  0  0  0  0  0  0  0999 V3000
M  V30 BEGIN CTAB
M  V30 COUNTS 66 70 0 0 0
M  V30 BEGIN ATOM
M  V30 1 C 1.677622 -5.712135 4.016345 0
M  V30 2 C 1.739267 -4.998388 2.725247 0
M  V30 3 O 2.378112 -5.435028 1.729588 0
M  V30 4 N 1.017896 -3.770858 2.687654 0
M  V30 5 C 0.768719 -2.749208 1.729201 0
M  V30 6 C 1.761786 -1.776128 1.802007 0
M  V30 7 C 1.721492 -0.666746 0.945900 0
M  V30 8 N 2.713696 0.355851 0.976698 0
M  V30 9 C 2.684258 1.516754 0.153327 0
M  V30 10 C 2.061728 2.625189 0.688553 0
M  V30 11 C 1.993912 3.787766 -0.056409 0
M  V30 12 N 1.349461 4.956925 0.487320 0
M  V30 13 C 1.197784 6.237831 -0.169453 0
M  V30 14 C 0.473679 7.363391 0.612059 0
M  V30 15 C 1.978542 7.368836 0.407513 0
M  V30 16 N 2.519584 3.890633 -1.309439 0
M  V30 17 N 2.612621 4.825683 -2.239377 0
M  V30 18 C 3.254727 4.373060 -3.325074 0
M  V30 19 C 3.591759 3.060783 -3.065018 0
M  V30 20 C 4.295384 2.256658 -4.017445 0
M  V30 21 N 4.868128 1.593090 -4.775700 0
M  V30 22 C 3.126284 2.768586 -1.799091 0
M  V30 23 N 3.214620 1.603784 -1.098027 0
M  V30 24 C 0.683356 -0.570517 0.042745 0
M  V30 25 C -0.273820 -1.561879 0.012215 0
M  V30 26 C -0.276073 -2.669012 0.832910 0
M  V30 27 N -1.215459 -3.707809 0.860873 0
M  V30 28 C -1.056859 -5.122646 0.659351 0
M  V30 29 C -2.243069 -5.821291 0.102565 0
M  V30 30 C -3.260692 -4.990680 -0.581653 0
M  V30 31 C -3.397556 -3.597292 -0.110052 0 CFG=1
M  V30 32 N -4.730472 -3.145276 0.101624 0
M  V30 33 C -5.507555 -3.839673 1.068350 0
M  V30 34 C -4.924275 -1.736442 0.152690 0
M  V30 35 C -2.569550 -3.303708 1.137155 0
M  V30 36 H 1.854203 -5.008677 4.878354 0
M  V30 37 H 2.503283 -6.433199 4.031959 0
M  V30 38 H 0.683402 -6.156239 4.132261 0
M  V30 39 H 0.483730 -3.397889 3.506737 0
M  V30 40 H 2.612450 -1.753498 2.466898 0
M  V30 41 H 3.523969 0.254893 1.648739 0
M  V30 42 H 1.618517 2.619819 1.683052 0
M  V30 43 H 0.942875 4.883571 1.464299 0
M  V30 44 H 1.017994 6.291370 -1.261269 0
M  V30 45 H -0.055746 8.130400 0.017796 0
M  V30 46 H 0.077128 7.076072 1.616526 0
M  V30 47 H 2.548656 7.177358 1.348046 0
M  V30 48 H 2.426626 8.132467 -0.238298 0
M  V30 49 H 3.416687 5.016110 -4.183593 0
M  V30 50 H 0.564996 0.260278 -0.669081 0
M  V30 51 H -1.084537 -1.481903 -0.697907 0
M  V30 52 H -0.096006 -5.363511 0.121367 0
M  V30 53 H -0.895522 -5.548623 1.694737 0
M  V30 54 H -1.837543 -6.551849 -0.661172 0
M  V30 55 H -2.735257 -6.508628 0.852262 0
M  V30 56 H -4.260116 -5.492031 -0.443608 0
M  V30 57 H -3.120913 -5.028461 -1.701667 0
M  V30 58 H -2.967754 -2.929486 -0.907609 0
M  V30 59 H -5.985591 -3.064625 1.737983 0
M  V30 60 H -6.401956 -4.364814 0.620640 0
M  V30 61 H -4.939156 -4.503596 1.739751 0
M  V30 62 H -5.945196 -1.443130 -0.228599 0
M  V30 63 H -4.166356 -1.250402 -0.525712 0
M  V30 64 H -4.810911 -1.336903 1.169428 0
M  V30 65 H -2.932373 -3.966444 1.963964 0
M  V30 66 H -2.711841 -2.242840 1.355800 0
M  V30 END ATOM
M  V30 BEGIN BOND
M  V30 1 1 1 2
M  V30 2 2 2 3
M  V30 3 1 2 4
M  V30 4 1 4 5
M  V30 5 2 5 6
M  V30 6 1 6 7
M  V30 7 1 7 8
M  V30 8 1 8 9
M  V30 9 1 9 10
M  V30 10 2 10 11
M  V30 11 1 11 12
M  V30 12 1 12 13
M  V30 13 1 13 14
M  V30 14 1 14 15
M  V30 15 1 11 16
M  V30 16 1 16 17
M  V30 17 2 17 18
M  V30 18 1 18 19
M  V30 19 1 19 20
M  V30 20 3 20 21
M  V30 21 2 19 22
M  V30 22 1 22 23
M  V30 23 2 7 24
M  V30 24 1 24 25
M  V30 25 2 25 26
M  V30 26 1 26 27
M  V30 27 1 27 28
M  V30 28 1 28 29
M  V30 29 1 29 30
M  V30 30 1 30 31
M  V30 31 1 31 32
M  V30 32 1 32 33
M  V30 33 1 32 34
M  V30 34 1 31 35
M  V30 35 1 26 5
M  V30 36 1 35 27
M  V30 37 2 23 9
M  V30 38 1 15 13
M  V30 39 1 22 16
M  V30 40 1 1 36
M  V30 41 1 1 37
M  V30 42 1 1 38
M  V30 43 1 4 39
M  V30 44 1 6 40
M  V30 45 1 8 41
M  V30 46 1 10 42
M  V30 47 1 12 43
M  V30 48 1 13 44
M  V30 49 1 14 45
M  V30 50 1 14 46
M  V30 51 1 15 47
M  V30 52 1 15 48
M  V30 53 1 18 49
M  V30 54 1 24 50
M  V30 55 1 25 51
M  V30 56 1 28 52
M  V30 57 1 28 53
M  V30 58 1 29 54
M  V30 59 1 29 55
M  V30 60 1 30 56
M  V30 61 1 30 57
M  V30 62 1 31 58 CFG=3
M  V30 63 1 33 59
M  V30 64 1 33 60
M  V30 65 1 33 61
M  V30 66 1 34 62
M  V30 67 1 34 63
M  V30 68 1 34 64
M  V30 69 1 35 65
M  V30 70 1 35 66
M  V30 END BOND
M  V30 END CTAB
M  END
>  <Dataset>  (381) 
ChEMBL_Kinases

>  <Ligand_Instance>  (381) 
nan

>  <PDB_ID>  (381) 
nan

>  <Standardized_SMILES>  (381) 
CC(=O)Nc1cc(Nc2cc(NC3CC3)n3ncc(C#N)c3n2)ccc1N1CCC[C@@H](N(C)C)C1

>  <Name>  (381) 
nan

>  <Pocket>  (381) 
nan

>  <ATP_Site>  (381) 
nan

>  <Peripheral>  (381) 
nan

>  <Num_H_Atoms_ProtBoundConf>  (381) 
nan

>  <Num_Resolved_Atoms>  (381) 
nan

>  <Num_Not_Resolved_Atoms>  (381) 
nan

$$$$
CHEMBL497560
     RDKit          3D

  0  0  0  0  0  0  0  0  0  0999 V3000
M  V30 BEGIN CTAB
M  V30 COUNTS 33 34 0 0 0
M  V30 BEGIN ATOM
M  V30 1 C -0.494060 -3.585720 3.071330 0
M  V30 2 C -1.468261 -2.517224 2.637248 0 CFG=1
M  V30 3 N -2.423108 -2.173902 3.678421 0
M  V30 4 C -0.662969 -1.332440 2.228167 0
M  V30 5 C -0.136543 -0.500693 3.195429 0
M  V30 6 C 0.609040 0.596235 2.820414 0
M  V30 7 C 0.812556 0.838155 1.480353 0
M  V30 8 C 0.316376 0.049215 0.460781 0
M  V30 9 N 0.536738 0.315480 -0.924359 0
M  V30 10 C -0.056077 -0.641899 -1.870845 0
M  V30 11 C 0.552807 -0.312065 -3.217725 0
M  V30 12 O 0.376763 1.044488 -3.415989 0
M  V30 13 C 1.278120 1.813388 -2.687859 0
M  V30 14 C 1.316813 1.496393 -1.226566 0
M  V30 15 C -0.422415 -1.034133 0.909979 0
M  V30 16 H -0.912596 -4.589326 2.855059 0
M  V30 17 H 0.456708 -3.485164 2.485541 0
M  V30 18 H -0.244838 -3.506189 4.148709 0
M  V30 19 H -2.006498 -2.871878 1.710914 0
M  V30 20 H -3.224739 -2.822393 3.581127 0
M  V30 21 H -2.767999 -1.215275 3.445457 0
M  V30 22 H -0.272655 -0.655198 4.248516 0
M  V30 23 H 1.030411 1.260608 3.564491 0
M  V30 24 H 1.403685 1.709698 1.231139 0
M  V30 25 H 0.136773 -1.692356 -1.574560 0
M  V30 26 H -1.124853 -0.372436 -1.935937 0
M  V30 27 H 1.638684 -0.582200 -3.114810 0
M  V30 28 H 0.077047 -0.852058 -4.049657 0
M  V30 29 H 2.295399 1.767000 -3.161241 0
M  V30 30 H 0.972685 2.873244 -2.807275 0
M  V30 31 H 2.360890 1.392723 -0.904404 0
M  V30 32 H 0.844196 2.320124 -0.630805 0
M  V30 33 H -0.857101 -1.716274 0.204064 0
M  V30 END ATOM
M  V30 BEGIN BOND
M  V30 1 1 1 2
M  V30 2 1 2 3
M  V30 3 1 2 4
M  V30 4 2 4 5
M  V30 5 1 5 6
M  V30 6 2 6 7
M  V30 7 1 7 8
M  V30 8 1 8 9
M  V30 9 1 9 10
M  V30 10 1 10 11
M  V30 11 1 11 12
M  V30 12 1 12 13
M  V30 13 1 13 14
M  V30 14 2 8 15
M  V30 15 1 15 4
M  V30 16 1 14 9
M  V30 17 1 1 16
M  V30 18 1 1 17
M  V30 19 1 1 18
M  V30 20 1 2 19 CFG=3
M  V30 21 1 3 20
M  V30 22 1 3 21
M  V30 23 1 5 22
M  V30 24 1 6 23
M  V30 25 1 7 24
M  V30 26 1 10 25
M  V30 27 1 10 26
M  V30 28 1 11 27
M  V30 29 1 11 28
M  V30 30 1 13 29
M  V30 31 1 13 30
M  V30 32 1 14 31
M  V30 33 1 14 32
M  V30 34 1 15 33
M  V30 END BOND
M  V30 END CTAB
M  END
>  <Dataset>  (382) 
ChEMBL_Kinases

>  <Ligand_Instance>  (382) 
nan

>  <PDB_ID>  (382) 
nan

>  <Standardized_SMILES>  (382) 
C[C@@H](N)c1cccc(N2CCOCC2)c1

>  <Name>  (382) 
nan

>  <Pocket>  (382) 
nan

>  <ATP_Site>  (382) 
nan

>  <Peripheral>  (382) 
nan

>  <Num_H_Atoms_ProtBoundConf>  (382) 
nan

>  <Num_Resolved_Atoms>  (382) 
nan

>  <Num_Not_Resolved_Atoms>  (382) 
nan

$$$$
CHEMBL3808564
     RDKit          3D

  0  0  0  0  0  0  0  0  0  0999 V3000
M  V30 BEGIN CTAB
M  V30 COUNTS 48 52 0 0 0
M  V30 BEGIN ATOM
M  V30 1 C -2.481493 1.701333 4.154149 0
M  V30 2 O -1.582797 0.851652 3.454646 0
M  V30 3 C -0.710847 1.361806 2.547787 0
M  V30 4 C -0.140576 2.369254 1.831724 0
M  V30 5 C 0.835843 2.442502 0.898983 0
M  V30 6 C 1.116240 3.770198 0.408476 0
M  V30 7 C 1.022213 4.974366 1.116145 0
M  V30 8 N 1.385380 5.916014 0.230732 0
M  V30 9 N 1.682491 5.387201 -0.924388 0
M  V30 10 C 2.106661 6.185944 -2.053770 0
M  V30 11 C 1.535973 4.050829 -0.883808 0
M  V30 12 C 1.396088 1.236193 0.585006 0
M  V30 13 C 0.980728 0.054443 1.185264 0
M  V30 14 C -0.062227 0.145338 2.152687 0
M  V30 15 N -0.271351 -1.221565 2.629077 0
M  V30 16 C 0.364273 -2.400578 2.160063 0
M  V30 17 N 1.650108 -2.837116 2.378886 0
M  V30 18 C 2.103506 -3.971595 1.849715 0
M  V30 19 C 1.269134 -4.731905 1.064775 0
M  V30 20 C 1.754374 -5.912040 0.520892 0
M  V30 21 C 0.911829 -6.695885 -0.277687 0
M  V30 22 N -0.369667 -6.265858 -0.493423 0
M  V30 23 C -0.844074 -5.143268 0.019108 0
M  V30 24 C -2.207603 -4.620507 -0.130476 0
M  V30 25 C -2.690426 -3.822585 -1.255064 0
M  V30 26 C -3.028260 -5.281516 -1.225260 0
M  V30 27 C -0.036998 -4.331020 0.819123 0
M  V30 28 N -0.405435 -3.182484 1.387380 0
M  V30 29 H -1.912242 2.617808 4.417316 0
M  V30 30 H -2.889205 1.219933 5.047275 0
M  V30 31 H -3.312244 1.966521 3.491468 0
M  V30 32 H -0.735944 3.212204 2.245788 0
M  V30 33 H 0.722105 5.030671 2.136701 0
M  V30 34 H 3.225208 6.238927 -2.099794 0
M  V30 35 H 1.745028 7.226568 -2.014328 0
M  V30 36 H 1.818498 5.711339 -3.024139 0
M  V30 37 H 1.702731 3.330751 -1.670591 0
M  V30 38 H 2.181006 1.293901 -0.164612 0
M  V30 39 H 1.524014 -0.792302 0.823763 0
M  V30 40 H -0.943951 -1.417783 3.382991 0
M  V30 41 H 3.138073 -4.234604 2.079944 0
M  V30 42 H 2.789564 -6.227651 0.716736 0
M  V30 43 H 1.256897 -7.630784 -0.724556 0
M  V30 44 H -2.810234 -4.556641 0.826838 0
M  V30 45 H -2.004699 -3.478110 -2.061471 0
M  V30 46 H -3.524717 -3.100251 -1.112859 0
M  V30 47 H -2.470185 -5.949754 -1.933983 0
M  V30 48 H -4.038764 -5.657107 -1.018502 0
M  V30 END ATOM
M  V30 BEGIN BOND
M  V30 1 1 1 2
M  V30 2 1 2 3
M  V30 3 2 3 4
M  V30 4 1 4 5
M  V30 5 1 5 6
M  V30 6 1 6 7
M  V30 7 2 7 8
M  V30 8 1 8 9
M  V30 9 1 9 10
M  V30 10 1 9 11
M  V30 11 2 5 12
M  V30 12 1 12 13
M  V30 13 2 13 14
M  V30 14 1 14 15
M  V30 15 1 15 16
M  V30 16 2 16 17
M  V30 17 1 17 18
M  V30 18 2 18 19
M  V30 19 1 19 20
M  V30 20 2 20 21
M  V30 21 1 21 22
M  V30 22 2 22 23
M  V30 23 1 23 24
M  V30 24 1 24 25
M  V30 25 1 25 26
M  V30 26 1 23 27
M  V30 27 2 27 28
M  V30 28 1 14 3
M  V30 29 1 28 16
M  V30 30 2 11 6
M  V30 31 1 27 19
M  V30 32 1 26 24
M  V30 33 1 1 29
M  V30 34 1 1 30
M  V30 35 1 1 31
M  V30 36 1 4 32
M  V30 37 1 7 33
M  V30 38 1 10 34
M  V30 39 1 10 35
M  V30 40 1 10 36
M  V30 41 1 11 37
M  V30 42 1 12 38
M  V30 43 1 13 39
M  V30 44 1 15 40
M  V30 45 1 18 41
M  V30 46 1 20 42
M  V30 47 1 21 43
M  V30 48 1 24 44
M  V30 49 1 25 45
M  V30 50 1 25 46
M  V30 51 1 26 47
M  V30 52 1 26 48
M  V30 END BOND
M  V30 END CTAB
M  END
>  <Dataset>  (383) 
ChEMBL_Kinases

>  <Ligand_Instance>  (383) 
nan

>  <PDB_ID>  (383) 
nan

>  <Standardized_SMILES>  (383) 
COc1cc(-c2cnn(C)c2)ccc1Nc1ncc2ccnc(C3CC3)c2n1

>  <Name>  (383) 
nan

>  <Pocket>  (383) 
nan

>  <ATP_Site>  (383) 
nan

>  <Peripheral>  (383) 
nan

>  <Num_H_Atoms_ProtBoundConf>  (383) 
nan

>  <Num_Resolved_Atoms>  (383) 
nan

>  <Num_Not_Resolved_Atoms>  (383) 
nan

$$$$
CHEMBL3808533
     RDKit          3D

  0  0  0  0  0  0  0  0  0  0999 V3000
M  V30 BEGIN CTAB
M  V30 COUNTS 47 49 0 0 0
M  V30 BEGIN ATOM
M  V30 1 C 1.616005 -4.871237 1.007885 0
M  V30 2 C 2.096158 -3.486857 1.479897 0
M  V30 3 C 2.105554 -3.581923 2.973596 0
M  V30 4 C 1.006921 -2.539380 1.014804 0
M  V30 5 C 0.859837 -2.597102 -0.498506 0
M  V30 6 O 1.097152 -1.282652 1.507714 0
M  V30 7 C 0.151241 -0.800914 2.350491 0
M  V30 8 C 0.720109 -0.332235 3.685510 0
M  V30 9 C 1.339437 1.019258 3.487941 0
M  V30 10 O 1.965482 1.494146 4.415216 0
M  V30 11 C 1.360991 1.973614 2.333884 0
M  V30 12 C 0.480847 1.431963 1.238862 0
M  V30 13 C -0.284987 2.517837 0.572353 0
M  V30 14 O -0.258924 3.736366 0.916080 0
M  V30 15 C -1.140931 2.165406 -0.573294 0
M  V30 16 C -1.391498 3.069772 -1.587415 0
M  V30 17 O -0.801767 4.346246 -1.496757 0
M  V30 18 C -2.203618 2.674147 -2.630602 0
M  V30 19 C -2.742187 1.403466 -2.642279 0
M  V30 20 C -2.478554 0.516537 -1.618696 0
M  V30 21 O -3.003274 -0.753684 -1.608109 0
M  V30 22 C -1.672249 0.868569 -0.555261 0
M  V30 23 C -1.337364 -0.002952 0.576835 0
M  V30 24 O -1.861850 -1.141431 0.440557 0
M  V30 25 C -0.498452 0.409377 1.717392 0
M  V30 26 H 1.860080 -5.659675 1.755697 0
M  V30 27 H 0.536256 -4.910024 0.848181 0
M  V30 28 H 2.167868 -5.193360 0.086035 0
M  V30 29 H 3.059932 -3.335115 0.998367 0
M  V30 30 H 1.063091 -3.468416 3.335283 0
M  V30 31 H 2.453941 -4.610506 3.283849 0
M  V30 32 H 2.765658 -2.891178 3.493001 0
M  V30 33 H 0.076653 -2.997521 1.416612 0
M  V30 34 H 1.677729 -3.159378 -0.981260 0
M  V30 35 H 0.788391 -1.550247 -0.856200 0
M  V30 36 H -0.077706 -3.093006 -0.823660 0
M  V30 37 H -0.684907 -1.477210 2.608237 0
M  V30 38 H -0.148675 -0.180859 4.356504 0
M  V30 39 H 1.397386 -1.036138 4.157323 0
M  V30 40 H 1.093510 2.993085 2.639138 0
M  V30 41 H 2.402131 1.994798 1.959498 0
M  V30 42 H 1.119564 0.955015 0.470030 0
M  V30 43 H -1.411514 5.119371 -1.743350 0
M  V30 44 H -2.399812 3.387663 -3.428191 0
M  V30 45 H -3.379578 1.094471 -3.462472 0
M  V30 46 H -3.729554 -1.059828 -0.964080 0
M  V30 47 H -1.164434 0.897449 2.464958 0
M  V30 END ATOM
M  V30 BEGIN BOND
M  V30 1 1 1 2
M  V30 2 1 2 3
M  V30 3 1 2 4
M  V30 4 1 4 5
M  V30 5 1 4 6
M  V30 6 1 6 7
M  V30 7 1 7 8
M  V30 8 1 8 9
M  V30 9 2 9 10
M  V30 10 1 9 11
M  V30 11 1 11 12
M  V30 12 1 12 13
M  V30 13 2 13 14
M  V30 14 1 13 15
M  V30 15 2 15 16
M  V30 16 1 16 17
M  V30 17 1 16 18
M  V30 18 2 18 19
M  V30 19 1 19 20
M  V30 20 1 20 21
M  V30 21 2 20 22
M  V30 22 1 22 23
M  V30 23 2 23 24
M  V30 24 1 23 25
M  V30 25 1 25 7
M  V30 26 1 25 12
M  V30 27 1 22 15
M  V30 28 1 1 26
M  V30 29 1 1 27
M  V30 30 1 1 28
M  V30 31 1 2 29
M  V30 32 1 3 30
M  V30 33 1 3 31
M  V30 34 1 3 32
M  V30 35 1 4 33
M  V30 36 1 5 34
M  V30 37 1 5 35
M  V30 38 1 5 36
M  V30 39 1 7 37
M  V30 40 1 8 38
M  V30 41 1 8 39
M  V30 42 1 11 40
M  V30 43 1 11 41
M  V30 44 1 12 42
M  V30 45 1 17 43
M  V30 46 1 18 44
M  V30 47 1 19 45
M  V30 48 1 21 46
M  V30 49 1 25 47
M  V30 END BOND
M  V30 END CTAB
M  END
>  <Dataset>  (384) 
ChEMBL_Kinases

>  <Ligand_Instance>  (384) 
nan

>  <PDB_ID>  (384) 
nan

>  <Standardized_SMILES>  (384) 
CC(C)C(C)OC1CC(=O)CC2C(=O)c3c(O)ccc(O)c3C(=O)C12

>  <Name>  (384) 
nan

>  <Pocket>  (384) 
nan

>  <ATP_Site>  (384) 
nan

>  <Peripheral>  (384) 
nan

>  <Num_H_Atoms_ProtBoundConf>  (384) 
nan

>  <Num_Resolved_Atoms>  (384) 
nan

>  <Num_Not_Resolved_Atoms>  (384) 
nan

$$$$
CHEMBL3808500
     RDKit          3D

  0  0  0  0  0  0  0  0  0  0999 V3000
M  V30 BEGIN CTAB
M  V30 COUNTS 59 63 0 0 0
M  V30 BEGIN ATOM
M  V30 1 C 2.266980 2.219884 5.840252 0
M  V30 2 O 1.228892 1.828324 4.960765 0
M  V30 3 C 1.491541 1.063141 3.833520 0
M  V30 4 C 2.781315 0.675212 3.560256 0
M  V30 5 C 3.111272 -0.084555 2.458956 0
M  V30 6 C 4.492137 -0.477168 2.200516 0
M  V30 7 C 5.673905 0.209899 2.500982 0
M  V30 8 N 6.708507 -0.542863 2.073724 0
M  V30 9 N 6.264075 -1.660105 1.522917 0
M  V30 10 C 7.119125 -2.695833 0.959075 0
M  V30 11 C 4.918359 -1.642104 1.588693 0
M  V30 12 C 2.102098 -0.468179 1.599878 0
M  V30 13 C 0.823981 -0.058436 1.910286 0
M  V30 14 C 0.435263 0.698154 2.991428 0
M  V30 15 N -0.900961 1.091436 3.259377 0
M  V30 16 C -2.088501 0.822081 2.539503 0
M  V30 17 N -3.234414 1.330617 3.023382 0
M  V30 18 C -4.435492 1.164971 2.461044 0
M  V30 19 C -4.477277 0.418214 1.307309 0
M  V30 20 C -5.696988 0.230858 0.707302 0
M  V30 21 C -5.792626 -0.510118 -0.451037 0
M  V30 22 N -4.648205 -1.009815 -0.921726 0
M  V30 23 C -3.442360 -0.853482 -0.372794 0
M  V30 24 N -2.286867 -1.434864 -0.964626 0
M  V30 25 C -2.339107 -2.217420 -2.182771 0
M  V30 26 C -2.841633 -1.389449 -3.320037 0
M  V30 27 C -2.743986 -2.170055 -4.614543 0
M  V30 28 C -1.303684 -2.449174 -4.891807 0
M  V30 29 C -0.805040 -3.385050 -3.812283 0
M  V30 30 C -0.985171 -2.825878 -2.441239 0
M  V30 31 C -3.311415 -0.109160 0.799778 0
M  V30 32 N -2.157510 0.098469 1.414179 0
M  V30 33 H 3.034021 2.744449 5.231061 0
M  V30 34 H 1.905334 2.926858 6.586162 0
M  V30 35 H 2.670640 1.277935 6.283845 0
M  V30 36 H 3.554088 0.999060 4.265253 0
M  V30 37 H 5.599733 1.170598 2.993848 0
M  V30 38 H 7.583619 -3.311638 1.734639 0
M  V30 39 H 6.459196 -3.294281 0.269480 0
M  V30 40 H 7.866387 -2.164723 0.312161 0
M  V30 41 H 4.275791 -2.420158 1.219254 0
M  V30 42 H 2.362972 -1.053822 0.752708 0
M  V30 43 H 0.097112 -0.399584 1.189772 0
M  V30 44 H -0.982849 1.676757 4.144585 0
M  V30 45 H -5.300935 1.620226 2.935070 0
M  V30 46 H -6.608324 0.654718 1.121975 0
M  V30 47 H -6.761450 -0.639153 -0.897478 0
M  V30 48 H -1.347763 -1.287398 -0.491930 0
M  V30 49 H -3.091240 -3.023355 -1.997633 0
M  V30 50 H -2.227931 -0.473954 -3.481842 0
M  V30 51 H -3.902074 -1.149197 -3.157178 0
M  V30 52 H -3.395807 -3.059474 -4.635296 0
M  V30 53 H -3.122606 -1.479539 -5.408824 0
M  V30 54 H -1.126220 -2.961978 -5.853807 0
M  V30 55 H -0.749935 -1.507317 -4.859566 0
M  V30 56 H -1.288695 -4.365479 -3.942990 0
M  V30 57 H 0.282826 -3.544138 -3.968113 0
M  V30 58 H -0.161373 -2.132632 -2.159631 0
M  V30 59 H -0.881858 -3.685271 -1.716236 0
M  V30 END ATOM
M  V30 BEGIN BOND
M  V30 1 1 1 2
M  V30 2 1 2 3
M  V30 3 2 3 4
M  V30 4 1 4 5
M  V30 5 1 5 6
M  V30 6 1 6 7
M  V30 7 2 7 8
M  V30 8 1 8 9
M  V30 9 1 9 10
M  V30 10 1 9 11
M  V30 11 2 5 12
M  V30 12 1 12 13
M  V30 13 2 13 14
M  V30 14 1 14 15
M  V30 15 1 15 16
M  V30 16 2 16 17
M  V30 17 1 17 18
M  V30 18 2 18 19
M  V30 19 1 19 20
M  V30 20 2 20 21
M  V30 21 1 21 22
M  V30 22 2 22 23
M  V30 23 1 23 24
M  V30 24 1 24 25
M  V30 25 1 25 26
M  V30 26 1 26 27
M  V30 27 1 27 28
M  V30 28 1 28 29
M  V30 29 1 29 30
M  V30 30 1 23 31
M  V30 31 2 31 32
M  V30 32 1 14 3
M  V30 33 1 32 16
M  V30 34 2 11 6
M  V30 35 1 31 19
M  V30 36 1 30 25
M  V30 37 1 1 33
M  V30 38 1 1 34
M  V30 39 1 1 35
M  V30 40 1 4 36
M  V30 41 1 7 37
M  V30 42 1 10 38
M  V30 43 1 10 39
M  V30 44 1 10 40
M  V30 45 1 11 41
M  V30 46 1 12 42
M  V30 47 1 13 43
M  V30 48 1 15 44
M  V30 49 1 18 45
M  V30 50 1 20 46
M  V30 51 1 21 47
M  V30 52 1 24 48
M  V30 53 1 25 49
M  V30 54 1 26 50
M  V30 55 1 26 51
M  V30 56 1 27 52
M  V30 57 1 27 53
M  V30 58 1 28 54
M  V30 59 1 28 55
M  V30 60 1 29 56
M  V30 61 1 29 57
M  V30 62 1 30 58
M  V30 63 1 30 59
M  V30 END BOND
M  V30 END CTAB
M  END
>  <Dataset>  (385) 
ChEMBL_Kinases

>  <Ligand_Instance>  (385) 
nan

>  <PDB_ID>  (385) 
nan

>  <Standardized_SMILES>  (385) 
COc1cc(-c2cnn(C)c2)ccc1Nc1ncc2ccnc(NC3CCCCC3)c2n1

>  <Name>  (385) 
nan

>  <Pocket>  (385) 
nan

>  <ATP_Site>  (385) 
nan

>  <Peripheral>  (385) 
nan

>  <Num_H_Atoms_ProtBoundConf>  (385) 
nan

>  <Num_Resolved_Atoms>  (385) 
nan

>  <Num_Not_Resolved_Atoms>  (385) 
nan

$$$$
CHEMBL380850
     RDKit          3D

  0  0  0  0  0  0  0  0  0  0999 V3000
M  V30 BEGIN CTAB
M  V30 COUNTS 44 46 0 0 0
M  V30 BEGIN ATOM
M  V30 1 N 0.510239 -3.148355 2.516052 0
M  V30 2 C -0.244989 -2.742335 1.389191 0
M  V30 3 C -0.192526 -1.603180 0.615281 0
M  V30 4 C 0.757694 -0.528137 0.819411 0
M  V30 5 O 1.621906 -0.777075 1.701467 0
M  V30 6 C 0.857553 0.761257 0.174720 0
M  V30 7 C -0.267758 1.400307 -0.351604 0
M  V30 8 C -0.087197 2.617145 -0.970230 0
M  V30 9 C 1.155067 3.191995 -1.072614 0
M  V30 10 C 2.305513 2.579335 -0.557271 0
M  V30 11 C 3.587268 3.285088 -0.732903 0
M  V30 12 C 3.948680 4.128029 0.455825 0
M  V30 13 S 2.770659 5.364252 0.828851 0
M  V30 14 N 1.232126 4.720766 1.211360 0
M  V30 15 O 2.587920 6.288622 -0.344721 0
M  V30 16 O 3.274738 6.166447 1.996857 0
M  V30 17 C 2.079808 1.367796 0.052299 0
M  V30 18 C -1.171555 -1.772637 -0.330967 0
M  V30 19 N -1.783355 -2.947062 -0.141076 0
M  V30 20 N -1.217825 -3.559178 0.922576 0
M  V30 21 C -1.743210 -4.834881 1.284809 0
M  V30 22 C -0.972706 -5.949646 1.636585 0
M  V30 23 C -1.517744 -7.174239 1.981314 0
M  V30 24 C -2.891871 -7.252348 1.963338 0
M  V30 25 F -3.508895 -8.421612 2.287252 0
M  V30 26 C -3.736311 -6.217988 1.633672 0
M  V30 27 C -3.139375 -4.997791 1.291087 0
M  V30 28 H 1.525741 -3.237063 2.272893 0
M  V30 29 H -0.002428 -3.302811 3.400276 0
M  V30 30 H -1.273100 1.020512 -0.298638 0
M  V30 31 H -0.952588 3.147507 -1.393047 0
M  V30 32 H 1.223459 4.162172 -1.576111 0
M  V30 33 H 4.369625 2.516739 -0.934802 0
M  V30 34 H 3.480160 3.972909 -1.606297 0
M  V30 35 H 4.989484 4.512687 0.393055 0
M  V30 36 H 3.968369 3.408293 1.332584 0
M  V30 37 H 1.209519 4.132059 2.080312 0
M  V30 38 H 0.461816 5.412092 1.152376 0
M  V30 39 H 2.971646 0.889989 0.452891 0
M  V30 40 H -1.465479 -1.126410 -1.139361 0
M  V30 41 H 0.107440 -5.739851 1.604500 0
M  V30 42 H -0.865752 -7.975173 2.237940 0
M  V30 43 H -4.828046 -6.293847 1.622725 0
M  V30 44 H -3.735836 -4.115200 1.015731 0
M  V30 END ATOM
M  V30 BEGIN BOND
M  V30 1 1 1 2
M  V30 2 2 2 3
M  V30 3 1 3 4
M  V30 4 2 4 5
M  V30 5 1 4 6
M  V30 6 2 6 7
M  V30 7 1 7 8
M  V30 8 2 8 9
M  V30 9 1 9 10
M  V30 10 1 10 11
M  V30 11 1 11 12
M  V30 12 1 12 13
M  V30 13 1 13 14
M  V30 14 2 13 15
M  V30 15 2 13 16
M  V30 16 2 10 17
M  V30 17 1 3 18
M  V30 18 2 18 19
M  V30 19 1 19 20
M  V30 20 1 20 21
M  V30 21 2 21 22
M  V30 22 1 22 23
M  V30 23 2 23 24
M  V30 24 1 24 25
M  V30 25 1 24 26
M  V30 26 2 26 27
M  V30 27 1 20 2
M  V30 28 1 27 21
M  V30 29 1 17 6
M  V30 30 1 1 28
M  V30 31 1 1 29
M  V30 32 1 7 30
M  V30 33 1 8 31
M  V30 34 1 9 32
M  V30 35 1 11 33
M  V30 36 1 11 34
M  V30 37 1 12 35
M  V30 38 1 12 36
M  V30 39 1 14 37
M  V30 40 1 14 38
M  V30 41 1 17 39
M  V30 42 1 18 40
M  V30 43 1 22 41
M  V30 44 1 23 42
M  V30 45 1 26 43
M  V30 46 1 27 44
M  V30 END BOND
M  V30 END CTAB
M  END
>  <Dataset>  (386) 
ChEMBL_Kinases

>  <Ligand_Instance>  (386) 
nan

>  <PDB_ID>  (386) 
nan

>  <Standardized_SMILES>  (386) 
Nc1c(C(=O)c2cccc(CCS(N)(=O)=O)c2)cnn1-c1ccc(F)cc1

>  <Name>  (386) 
nan

>  <Pocket>  (386) 
nan

>  <ATP_Site>  (386) 
nan

>  <Peripheral>  (386) 
nan

>  <Num_H_Atoms_ProtBoundConf>  (386) 
nan

>  <Num_Resolved_Atoms>  (386) 
nan

>  <Num_Not_Resolved_Atoms>  (386) 
nan

$$$$
CHEMBL3808499
     RDKit          3D

  0  0  0  0  0  0  0  0  0  0999 V3000
M  V30 BEGIN CTAB
M  V30 COUNTS 69 73 0 0 0
M  V30 BEGIN ATOM
M  V30 1 C 2.904170 -2.119962 4.719710 0
M  V30 2 C 1.529914 -2.644557 4.644312 0
M  V30 3 C 0.678215 -1.940095 3.918951 0
M  V30 4 C 0.875066 -0.703220 3.189667 0
M  V30 5 O -0.095725 -0.160381 2.538796 0
M  V30 6 N 1.832243 0.276303 2.868211 0
M  V30 7 C 1.530225 1.396452 2.058153 0
M  V30 8 C 1.054083 2.537124 2.712642 0
M  V30 9 C 0.729101 3.677901 2.050829 0
M  V30 10 C 0.838056 3.811450 0.696574 0
M  V30 11 N 0.600011 4.783102 -0.198018 0
M  V30 12 N 0.907606 4.299699 -1.389569 0
M  V30 13 C 1.345338 3.028344 -1.308438 0
M  V30 14 C 1.312947 2.686534 0.011297 0
M  V30 15 C 1.638291 1.538092 0.693314 0
M  V30 16 C -0.645316 -2.558889 3.687665 0
M  V30 17 C -0.647335 -3.462072 2.482671 0
M  V30 18 C -0.753872 -4.830892 2.736077 0
M  V30 19 C -0.768811 -5.836537 1.763606 0
M  V30 20 C -0.671192 -5.452882 0.445965 0
M  V30 21 F -0.676815 -6.351500 -0.566015 0
M  V30 22 C -0.565559 -4.111374 0.164185 0
M  V30 23 C -0.472012 -3.714060 -1.244302 0
M  V30 24 C -0.046990 -2.333978 -1.487028 0
M  V30 25 O 1.050609 -1.953310 -0.971790 0
M  V30 26 N -0.834299 -1.445164 -2.273261 0
M  V30 27 C -0.366353 -0.097684 -2.487917 0
M  V30 28 C -1.260330 0.758891 -3.265742 0
M  V30 29 C -2.353918 1.231498 -2.528990 0
M  V30 30 C -2.673921 0.948625 -1.093078 0
M  V30 31 C -3.267936 2.058343 -3.180285 0
M  V30 32 C -3.172249 2.445071 -4.501873 0
M  V30 33 C -2.074388 1.949434 -5.179757 0
M  V30 34 C -1.139486 1.128426 -4.585506 0
M  V30 35 C 0.027439 0.598189 -5.332771 0
M  V30 36 C -0.555058 -3.163322 1.148222 0
M  V30 37 N -1.024119 -3.313395 4.855000 0
M  V30 38 C -0.154517 -4.141043 5.654222 0
M  V30 39 O -0.465965 -5.086684 6.388750 0
M  V30 40 N 1.221122 -3.731456 5.505667 0
M  V30 41 H 3.394993 -2.100737 3.725120 0
M  V30 42 H 2.927864 -1.162530 5.266741 0
M  V30 43 H 3.497361 -2.820724 5.381424 0
M  V30 44 H 2.761023 0.032552 3.316724 0
M  V30 45 H 0.915515 2.570121 3.801437 0
M  V30 46 H 0.355114 4.574562 2.564627 0
M  V30 47 H 0.237335 5.745575 0.011102 0
M  V30 48 H 1.663365 2.392384 -2.122257 0
M  V30 49 H 2.011660 0.641124 0.192049 0
M  V30 50 H -1.423181 -1.781157 3.521608 0
M  V30 51 H -0.848366 -5.321697 3.709006 0
M  V30 52 H -0.852208 -6.899074 1.949055 0
M  V30 53 H 0.245031 -4.418630 -1.722710 0
M  V30 54 H -1.433783 -3.893327 -1.793902 0
M  V30 55 H -1.716588 -1.810074 -2.657896 0
M  V30 56 H -0.112127 0.402065 -1.522723 0
M  V30 57 H 0.592859 -0.210906 -3.048811 0
M  V30 58 H -2.884382 1.895998 -0.535803 0
M  V30 59 H -3.649502 0.383051 -1.093106 0
M  V30 60 H -1.887090 0.438365 -0.551806 0
M  V30 61 H -4.138400 2.457347 -2.653452 0
M  V30 62 H -3.898157 3.086808 -4.968940 0
M  V30 63 H -1.968211 2.236369 -6.235042 0
M  V30 64 H -0.142689 -0.488517 -5.586746 0
M  V30 65 H 0.162984 1.168435 -6.292936 0
M  V30 66 H 0.975989 0.747262 -4.788575 0
M  V30 67 H -0.474152 -2.137893 0.868697 0
M  V30 68 H -2.035284 -3.290289 5.200669 0
M  V30 69 H 1.943594 -4.243261 6.030625 0
M  V30 END ATOM
M  V30 BEGIN BOND
M  V30 1 1 1 2
M  V30 2 2 2 3
M  V30 3 1 3 4
M  V30 4 2 4 5
M  V30 5 1 4 6
M  V30 6 1 6 7
M  V30 7 2 7 8
M  V30 8 1 8 9
M  V30 9 2 9 10
M  V30 10 1 10 11
M  V30 11 1 11 12
M  V30 12 2 12 13
M  V30 13 1 13 14
M  V30 14 2 14 15
M  V30 15 1 3 16
M  V30 16 1 16 17
M  V30 17 2 17 18
M  V30 18 1 18 19
M  V30 19 2 19 20
M  V30 20 1 20 21
M  V30 21 1 20 22
M  V30 22 1 22 23
M  V30 23 1 23 24
M  V30 24 2 24 25
M  V30 25 1 24 26
M  V30 26 1 26 27
M  V30 27 1 27 28
M  V30 28 2 28 29
M  V30 29 1 29 30
M  V30 30 1 29 31
M  V30 31 2 31 32
M  V30 32 1 32 33
M  V30 33 2 33 34
M  V30 34 1 34 35
M  V30 35 2 22 36
M  V30 36 1 16 37
M  V30 37 1 37 38
M  V30 38 2 38 39
M  V30 39 1 38 40
M  V30 40 1 40 2
M  V30 41 1 15 7
M  V30 42 1 36 17
M  V30 43 1 14 10
M  V30 44 1 34 28
M  V30 45 1 1 41
M  V30 46 1 1 42
M  V30 47 1 1 43
M  V30 48 1 6 44
M  V30 49 1 8 45
M  V30 50 1 9 46
M  V30 51 1 11 47
M  V30 52 1 13 48
M  V30 53 1 15 49
M  V30 54 1 16 50
M  V30 55 1 18 51
M  V30 56 1 19 52
M  V30 57 1 23 53
M  V30 58 1 23 54
M  V30 59 1 26 55
M  V30 60 1 27 56
M  V30 61 1 27 57
M  V30 62 1 30 58
M  V30 63 1 30 59
M  V30 64 1 30 60
M  V30 65 1 31 61
M  V30 66 1 32 62
M  V30 67 1 33 63
M  V30 68 1 35 64
M  V30 69 1 35 65
M  V30 70 1 35 66
M  V30 71 1 36 67
M  V30 72 1 37 68
M  V30 73 1 40 69
M  V30 END BOND
M  V30 END CTAB
M  END
>  <Dataset>  (387) 
ChEMBL_Kinases

>  <Ligand_Instance>  (387) 
nan

>  <PDB_ID>  (387) 
nan

>  <Standardized_SMILES>  (387) 
CC1=C(C(=O)Nc2ccc3[nH]ncc3c2)C(c2ccc(F)c(CC(=O)NCc3c(C)cccc3C)c2)NC(=O)N1

>  <Name>  (387) 
nan

>  <Pocket>  (387) 
nan

>  <ATP_Site>  (387) 
nan

>  <Peripheral>  (387) 
nan

>  <Num_H_Atoms_ProtBoundConf>  (387) 
nan

>  <Num_Resolved_Atoms>  (387) 
nan

>  <Num_Not_Resolved_Atoms>  (387) 
nan

$$$$
CHEMBL380849
     RDKit          3D

  0  0  0  0  0  0  0  0  0  0999 V3000
M  V30 BEGIN CTAB
M  V30 COUNTS 40 42 0 0 0
M  V30 BEGIN ATOM
M  V30 1 N -0.875107 -1.645767 3.381665 0
M  V30 2 C -0.928078 -1.427531 1.963789 0
M  V30 3 C 0.001796 -1.081680 1.007394 0
M  V30 4 C 1.386550 -0.867959 1.390898 0
M  V30 5 O 1.685254 -1.058588 2.619927 0
M  V30 6 C 2.538276 -0.463674 0.608985 0
M  V30 7 C 3.793706 -0.885684 1.011215 0
M  V30 8 C 4.946255 -0.523914 0.304712 0
M  V30 9 C 4.876846 0.266191 -0.818340 0
M  V30 10 C 3.646219 0.705139 -1.248360 0
M  V30 11 C 3.504992 1.563506 -2.457729 0
M  V30 12 C 3.586538 3.037996 -2.079954 0
M  V30 13 O 4.818489 3.293144 -1.484206 0
M  V30 14 C 2.542106 0.323031 -0.520344 0
M  V30 15 C -0.664081 -1.024498 -0.195672 0
M  V30 16 N -1.967673 -1.326958 0.017640 0
M  V30 17 N -2.121880 -1.567795 1.312292 0
M  V30 18 C -3.389525 -1.916433 1.857074 0
M  V30 19 C -3.782226 -3.171163 2.262490 0
M  V30 20 C -5.060771 -3.347952 2.775810 0
M  V30 21 C -5.916524 -2.272196 2.872955 0
M  V30 22 F -7.168575 -2.484449 3.383703 0
M  V30 23 C -5.554386 -0.992741 2.473834 0
M  V30 24 C -4.288672 -0.863016 1.974998 0
M  V30 25 H -0.536782 -2.469721 3.956716 0
M  V30 26 H -1.161813 -1.035157 4.198917 0
M  V30 27 H 3.969911 -1.514878 1.886108 0
M  V30 28 H 5.928584 -0.865315 0.635325 0
M  V30 29 H 5.773280 0.523390 -1.333379 0
M  V30 30 H 4.311394 1.328887 -3.183067 0
M  V30 31 H 2.542421 1.387696 -2.994642 0
M  V30 32 H 2.727661 3.306362 -1.441953 0
M  V30 33 H 3.574419 3.602567 -3.046462 0
M  V30 34 H 4.698600 4.007199 -0.813562 0
M  V30 35 H 1.596578 0.692195 -0.881716 0
M  V30 36 H -0.206619 -0.782608 -1.138854 0
M  V30 37 H -3.027486 -3.934343 2.138511 0
M  V30 38 H -5.325924 -4.353645 3.082255 0
M  V30 39 H -6.248756 -0.166651 2.562319 0
M  V30 40 H -4.021517 0.158565 1.664535 0
M  V30 END ATOM
M  V30 BEGIN BOND
M  V30 1 1 1 2
M  V30 2 2 2 3
M  V30 3 1 3 4
M  V30 4 2 4 5
M  V30 5 1 4 6
M  V30 6 2 6 7
M  V30 7 1 7 8
M  V30 8 2 8 9
M  V30 9 1 9 10
M  V30 10 1 10 11
M  V30 11 1 11 12
M  V30 12 1 12 13
M  V30 13 2 10 14
M  V30 14 1 3 15
M  V30 15 2 15 16
M  V30 16 1 16 17
M  V30 17 1 17 18
M  V30 18 2 18 19
M  V30 19 1 19 20
M  V30 20 2 20 21
M  V30 21 1 21 22
M  V30 22 1 21 23
M  V30 23 2 23 24
M  V30 24 1 17 2
M  V30 25 1 24 18
M  V30 26 1 14 6
M  V30 27 1 1 25
M  V30 28 1 1 26
M  V30 29 1 7 27
M  V30 30 1 8 28
M  V30 31 1 9 29
M  V30 32 1 11 30
M  V30 33 1 11 31
M  V30 34 1 12 32
M  V30 35 1 12 33
M  V30 36 1 13 34
M  V30 37 1 14 35
M  V30 38 1 15 36
M  V30 39 1 19 37
M  V30 40 1 20 38
M  V30 41 1 23 39
M  V30 42 1 24 40
M  V30 END BOND
M  V30 END CTAB
M  END
>  <Dataset>  (388) 
ChEMBL_Kinases

>  <Ligand_Instance>  (388) 
nan

>  <PDB_ID>  (388) 
nan

>  <Standardized_SMILES>  (388) 
Nc1c(C(=O)c2cccc(CCO)c2)cnn1-c1ccc(F)cc1

>  <Name>  (388) 
nan

>  <Pocket>  (388) 
nan

>  <ATP_Site>  (388) 
nan

>  <Peripheral>  (388) 
nan

>  <Num_H_Atoms_ProtBoundConf>  (388) 
nan

>  <Num_Resolved_Atoms>  (388) 
nan

>  <Num_Not_Resolved_Atoms>  (388) 
nan

$$$$
CHEMBL3808471
     RDKit          3D

  0  0  0  0  0  0  0  0  0  0999 V3000
M  V30 BEGIN CTAB
M  V30 COUNTS 54 58 0 0 0
M  V30 BEGIN ATOM
M  V30 1 C 2.195002 -1.203091 4.594355 0
M  V30 2 C 1.059925 -0.297286 4.954470 0
M  V30 3 O 0.120682 -0.234607 3.918004 0
M  V30 4 C 0.447806 0.217383 2.672257 0
M  V30 5 C 1.657897 0.672415 2.202120 0
M  V30 6 C 1.772293 1.087200 0.894246 0
M  V30 7 C 3.081219 1.572600 0.400211 0
M  V30 8 C 4.095230 2.240410 1.055263 0
M  V30 9 N 5.074368 2.447504 0.139462 0
M  V30 10 N 4.709821 1.944612 -1.026900 0
M  V30 11 C 5.482206 1.966759 -2.257175 0
M  V30 12 C 3.475522 1.383907 -0.931811 0
M  V30 13 C 0.695422 1.069128 -0.002837 0
M  V30 14 C -0.502580 0.607518 0.501441 0
M  V30 15 C -0.665364 0.174620 1.827989 0
M  V30 16 N -1.981491 -0.285290 2.132375 0
M  V30 17 C -3.056258 -0.277261 1.198361 0
M  V30 18 N -4.181574 0.479311 1.081380 0
M  V30 19 C -5.038179 0.281619 0.062326 0
M  V30 20 C -4.786488 -0.690909 -0.880045 0
M  V30 21 C -5.642425 -0.919391 -1.939962 0
M  V30 22 C -5.316232 -1.925374 -2.858680 0
M  V30 23 N -4.186607 -2.673073 -2.729581 0
M  V30 24 C -3.340999 -2.469092 -1.709171 0
M  V30 25 C -2.079712 -3.180561 -1.429488 0
M  V30 26 C -1.008921 -3.572621 -2.221807 0
M  V30 27 N -0.122014 -4.184852 -1.419845 0
M  V30 28 N -0.547638 -4.212030 -0.174020 0
M  V30 29 C 0.262110 -4.827747 0.865934 0
M  V30 30 C -1.741635 -3.606788 -0.142421 0
M  V30 31 C -3.656409 -1.463426 -0.780734 0
M  V30 32 N -2.838414 -1.213343 0.268856 0
M  V30 33 H 3.195971 -0.764111 4.656991 0
M  V30 34 H 2.051740 -1.594513 3.549171 0
M  V30 35 H 2.211096 -2.071849 5.315096 0
M  V30 36 H 1.416579 0.732574 5.233546 0
M  V30 37 H 0.548193 -0.681731 5.887037 0
M  V30 38 H 2.461009 0.678115 2.907891 0
M  V30 39 H 4.038183 2.509741 2.102033 0
M  V30 40 H 5.007719 2.732008 -2.930441 0
M  V30 41 H 6.543510 2.176671 -2.062701 0
M  V30 42 H 5.342551 0.975061 -2.770420 0
M  V30 43 H 2.877332 0.883142 -1.701334 0
M  V30 44 H 0.801157 1.397349 -1.026031 0
M  V30 45 H -1.322934 0.607172 -0.233052 0
M  V30 46 H -2.295401 -0.668642 3.050324 0
M  V30 47 H -5.916455 0.903328 0.010660 0
M  V30 48 H -6.540840 -0.330418 -2.049109 0
M  V30 49 H -5.952070 -2.142885 -3.705268 0
M  V30 50 H -1.010008 -3.358723 -3.294974 0
M  V30 51 H 1.337330 -4.510800 0.765118 0
M  V30 52 H -0.160541 -4.483732 1.834987 0
M  V30 53 H 0.139270 -5.927557 0.834632 0
M  V30 54 H -2.318994 -3.491895 0.769968 0
M  V30 END ATOM
M  V30 BEGIN BOND
M  V30 1 1 1 2
M  V30 2 1 2 3
M  V30 3 1 3 4
M  V30 4 2 4 5
M  V30 5 1 5 6
M  V30 6 1 6 7
M  V30 7 1 7 8
M  V30 8 2 8 9
M  V30 9 1 9 10
M  V30 10 1 10 11
M  V30 11 1 10 12
M  V30 12 2 6 13
M  V30 13 1 13 14
M  V30 14 2 14 15
M  V30 15 1 15 16
M  V30 16 1 16 17
M  V30 17 2 17 18
M  V30 18 1 18 19
M  V30 19 2 19 20
M  V30 20 1 20 21
M  V30 21 2 21 22
M  V30 22 1 22 23
M  V30 23 2 23 24
M  V30 24 1 24 25
M  V30 25 1 25 26
M  V30 26 2 26 27
M  V30 27 1 27 28
M  V30 28 1 28 29
M  V30 29 1 28 30
M  V30 30 1 24 31
M  V30 31 2 31 32
M  V30 32 1 15 4
M  V30 33 1 32 17
M  V30 34 2 12 7
M  V30 35 1 31 20
M  V30 36 2 30 25
M  V30 37 1 1 33
M  V30 38 1 1 34
M  V30 39 1 1 35
M  V30 40 1 2 36
M  V30 41 1 2 37
M  V30 42 1 5 38
M  V30 43 1 8 39
M  V30 44 1 11 40
M  V30 45 1 11 41
M  V30 46 1 11 42
M  V30 47 1 12 43
M  V30 48 1 13 44
M  V30 49 1 14 45
M  V30 50 1 16 46
M  V30 51 1 19 47
M  V30 52 1 21 48
M  V30 53 1 22 49
M  V30 54 1 26 50
M  V30 55 1 29 51
M  V30 56 1 29 52
M  V30 57 1 29 53
M  V30 58 1 30 54
M  V30 END BOND
M  V30 END CTAB
M  END
>  <Dataset>  (389) 
ChEMBL_Kinases

>  <Ligand_Instance>  (389) 
nan

>  <PDB_ID>  (389) 
nan

>  <Standardized_SMILES>  (389) 
CCOc1cc(-c2cnn(C)c2)ccc1Nc1ncc2ccnc(-c3cnn(C)c3)c2n1

>  <Name>  (389) 
nan

>  <Pocket>  (389) 
nan

>  <ATP_Site>  (389) 
nan

>  <Peripheral>  (389) 
nan

>  <Num_H_Atoms_ProtBoundConf>  (389) 
nan

>  <Num_Resolved_Atoms>  (389) 
nan

>  <Num_Not_Resolved_Atoms>  (389) 
nan

$$$$
CHEMBL497367
     RDKit          3D

  0  0  0  0  0  0  0  0  0  0999 V3000
M  V30 BEGIN CTAB
M  V30 COUNTS 40 44 0 0 0
M  V30 BEGIN ATOM
M  V30 1 C -1.091654 -5.468379 1.581759 0
M  V30 2 C -0.725776 -4.514168 2.522715 0
M  V30 3 C -1.027786 -3.159841 2.338064 0
M  V30 4 C -1.706004 -2.766663 1.191313 0
M  V30 5 C -2.028001 -1.351062 0.984813 0
M  V30 6 C -3.148979 -0.873689 0.297079 0
M  V30 7 C -3.331484 0.494042 0.175513 0
M  V30 8 C -2.405699 1.384052 0.733551 0
M  V30 9 C -1.275948 0.922826 1.426298 0
M  V30 10 O -0.539538 1.972541 1.868266 0
M  V30 11 C 0.421880 2.705797 1.253363 0
M  V30 12 C 0.138364 4.058808 1.135007 0
M  V30 13 N 0.903409 5.039030 0.570031 0
M  V30 14 C 2.087235 4.665331 0.056768 0
M  V30 15 C 2.393315 3.302308 0.165989 0
M  V30 16 S 3.923474 2.359861 -0.408576 0
M  V30 17 C 3.368720 0.834533 0.156929 0
M  V30 18 C 4.179743 -0.425298 -0.002677 0
M  V30 19 N 4.823192 -1.270517 0.782494 0
M  V30 20 N 5.365878 -2.222038 0.043422 0
M  V30 21 N 5.066013 -1.981200 -1.221324 0
M  V30 22 N 4.335738 -0.877038 -1.262070 0
M  V30 23 C 2.173852 1.035234 0.708006 0
M  V30 24 C 1.625596 2.281740 0.739938 0
M  V30 25 C -1.140793 -0.445194 1.519574 0
M  V30 26 C -2.081524 -3.693794 0.239945 0
M  V30 27 C -1.772929 -5.043347 0.438149 0
M  V30 28 H -0.842032 -6.509293 1.756270 0
M  V30 29 H -0.196155 -4.851746 3.409724 0
M  V30 30 H -0.716583 -2.458345 3.107589 0
M  V30 31 H -3.811517 -1.621842 -0.101327 0
M  V30 32 H -4.209140 0.811042 -0.362221 0
M  V30 33 H -2.689940 2.426095 0.552238 0
M  V30 34 H -0.804648 4.484442 1.519665 0
M  V30 35 H 2.800843 5.295527 -0.416122 0
M  V30 36 H 5.393751 -2.612691 -2.001980 0
M  V30 37 H 1.692636 0.159587 1.113872 0
M  V30 38 H -0.270036 -0.730577 2.061709 0
M  V30 39 H -2.616516 -3.416133 -0.673487 0
M  V30 40 H -2.057481 -5.788387 -0.294441 0
M  V30 END ATOM
M  V30 BEGIN BOND
M  V30 1 2 1 2
M  V30 2 1 2 3
M  V30 3 2 3 4
M  V30 4 1 4 5
M  V30 5 2 5 6
M  V30 6 1 6 7
M  V30 7 2 7 8
M  V30 8 1 8 9
M  V30 9 1 9 10
M  V30 10 1 10 11
M  V30 11 2 11 12
M  V30 12 1 12 13
M  V30 13 2 13 14
M  V30 14 1 14 15
M  V30 15 1 15 16
M  V30 16 1 16 17
M  V30 17 1 17 18
M  V30 18 1 18 19
M  V30 19 2 19 20
M  V30 20 1 20 21
M  V30 21 1 21 22
M  V30 22 2 17 23
M  V30 23 1 23 24
M  V30 24 2 9 25
M  V30 25 1 4 26
M  V30 26 2 26 27
M  V30 27 1 27 1
M  V30 28 1 25 5
M  V30 29 1 24 11
M  V30 30 2 24 15
M  V30 31 2 22 18
M  V30 32 1 1 28
M  V30 33 1 2 29
M  V30 34 1 3 30
M  V30 35 1 6 31
M  V30 36 1 7 32
M  V30 37 1 8 33
M  V30 38 1 12 34
M  V30 39 1 14 35
M  V30 40 1 21 36
M  V30 41 1 23 37
M  V30 42 1 25 38
M  V30 43 1 26 39
M  V30 44 1 27 40
M  V30 END BOND
M  V30 END CTAB
M  END
>  <Dataset>  (390) 
ChEMBL_Kinases

>  <Ligand_Instance>  (390) 
nan

>  <PDB_ID>  (390) 
nan

>  <Standardized_SMILES>  (390) 
c1ccc(-c2cccc(Oc3cncc4sc(-c5nn[nH]n5)cc34)c2)cc1

>  <Name>  (390) 
nan

>  <Pocket>  (390) 
nan

>  <ATP_Site>  (390) 
nan

>  <Peripheral>  (390) 
nan

>  <Num_H_Atoms_ProtBoundConf>  (390) 
nan

>  <Num_Resolved_Atoms>  (390) 
nan

>  <Num_Not_Resolved_Atoms>  (390) 
nan

$$$$
CHEMBL496773
     RDKit          3D

  0  0  0  0  0  0  0  0  0  0999 V3000
M  V30 BEGIN CTAB
M  V30 COUNTS 33 35 0 0 0
M  V30 BEGIN ATOM
M  V30 1 C -2.711321 -3.432513 2.508950 0
M  V30 2 C -1.899837 -2.234243 2.086194 0
M  V30 3 C -0.980191 -1.824765 3.206701 0
M  V30 4 C -1.103352 -2.498380 0.839523 0
M  V30 5 C -0.464359 -1.230789 0.398915 0
M  V30 6 N 0.680453 -0.977940 -0.297668 0
M  V30 7 C 0.865976 0.343759 -0.469566 0
M  V30 8 C 1.998338 0.940573 -1.174549 0
M  V30 9 C 2.962354 0.112847 -1.713134 0
M  V30 10 C 4.016178 0.713562 -2.371318 0
M  V30 11 N 4.134912 2.056370 -2.504276 0
M  V30 12 C 3.177762 2.859699 -1.968673 0
M  V30 13 C 2.102448 2.311174 -1.300037 0
M  V30 14 C -0.183954 1.009029 0.127947 0
M  V30 15 C -0.985472 0.019233 0.653102 0
M  V30 16 C -2.253086 0.108939 1.407518 0
M  V30 17 O -2.817897 1.200259 1.695127 0
M  V30 18 N -2.827026 -1.152694 1.809199 0
M  V30 19 H -2.133037 -4.143323 3.124701 0
M  V30 20 H -3.138259 -3.946727 1.623721 0
M  V30 21 H -3.575466 -3.079675 3.102324 0
M  V30 22 H 0.082711 -1.775242 2.893975 0
M  V30 23 H -0.995656 -2.577903 4.041068 0
M  V30 24 H -1.248731 -0.820165 3.641170 0
M  V30 25 H -0.348435 -3.298232 0.987936 0
M  V30 26 H -1.827077 -2.851330 0.076789 0
M  V30 27 H 1.321240 -1.748905 -0.645524 0
M  V30 28 H 2.919738 -0.947506 -1.638732 0
M  V30 29 H 4.820167 0.127689 -2.825299 0
M  V30 30 H 3.256743 3.944420 -2.065958 0
M  V30 31 H 1.336063 2.933715 -0.870226 0
M  V30 32 H -0.353100 2.083516 0.179636 0
M  V30 33 H -3.887849 -1.206524 1.875574 0
M  V30 END ATOM
M  V30 BEGIN BOND
M  V30 1 1 1 2
M  V30 2 1 2 3
M  V30 3 1 2 4
M  V30 4 1 4 5
M  V30 5 1 5 6
M  V30 6 1 6 7
M  V30 7 1 7 8
M  V30 8 2 8 9
M  V30 9 1 9 10
M  V30 10 2 10 11
M  V30 11 1 11 12
M  V30 12 2 12 13
M  V30 13 2 7 14
M  V30 14 1 14 15
M  V30 15 1 15 16
M  V30 16 2 16 17
M  V30 17 1 16 18
M  V30 18 1 18 2
M  V30 19 2 15 5
M  V30 20 1 13 8
M  V30 21 1 1 19
M  V30 22 1 1 20
M  V30 23 1 1 21
M  V30 24 1 3 22
M  V30 25 1 3 23
M  V30 26 1 3 24
M  V30 27 1 4 25
M  V30 28 1 4 26
M  V30 29 1 6 27
M  V30 30 1 9 28
M  V30 31 1 10 29
M  V30 32 1 12 30
M  V30 33 1 13 31
M  V30 34 1 14 32
M  V30 35 1 18 33
M  V30 END BOND
M  V30 END CTAB
M  END
>  <Dataset>  (391) 
ChEMBL_Kinases

>  <Ligand_Instance>  (391) 
nan

>  <PDB_ID>  (391) 
nan

>  <Standardized_SMILES>  (391) 
CC1(C)Cc2[nH]c(-c3ccncc3)cc2C(=O)N1

>  <Name>  (391) 
nan

>  <Pocket>  (391) 
nan

>  <ATP_Site>  (391) 
nan

>  <Peripheral>  (391) 
nan

>  <Num_H_Atoms_ProtBoundConf>  (391) 
nan

>  <Num_Resolved_Atoms>  (391) 
nan

>  <Num_Not_Resolved_Atoms>  (391) 
nan

$$$$
CHEMBL592893
     RDKit          3D

  0  0  0  0  0  0  0  0  0  0999 V3000
M  V30 BEGIN CTAB
M  V30 COUNTS 67 72 0 0 0
M  V30 BEGIN ATOM
M  V30 1 C 4.346472 -3.355689 5.619676 0
M  V30 2 N 4.091318 -3.707773 4.217929 0
M  V30 3 C 2.852208 -3.102444 3.845891 0
M  V30 4 C 2.909205 -2.277909 2.580808 0
M  V30 5 N 4.014114 -1.340438 2.591665 0
M  V30 6 C 4.029006 -0.156658 1.803264 0
M  V30 7 C 3.004863 0.183619 0.963722 0
M  V30 8 C 3.060864 1.353436 0.210832 0
M  V30 9 C 1.857054 1.540317 -0.631476 0
M  V30 10 O 2.106740 1.558671 -1.865087 0
M  V30 11 N 0.624393 1.668416 0.057171 0
M  V30 12 C -0.716402 1.854807 -0.376703 0
M  V30 13 C -1.310874 3.088182 -0.567926 0
M  V30 14 C -2.639824 3.194984 -0.998582 0
M  V30 15 C -3.415370 2.060468 -1.251344 0
M  V30 16 C -2.784962 0.854744 -1.048593 0
M  V30 17 C -1.484598 0.731609 -0.627186 0
M  V30 18 C -3.580574 -0.309723 -1.309425 0
M  V30 19 C -4.859129 -0.019233 -1.725083 0
M  V30 20 C -5.469108 -1.266096 -1.924124 0
M  V30 21 C -6.781681 -1.731999 -2.351067 0
M  V30 22 N -7.754452 -0.724729 -2.666040 0
M  V30 23 O -7.275902 -2.859291 -2.512764 0
M  V30 24 N -4.544460 -2.212560 -1.623837 0
M  V30 25 N -3.397890 -1.627262 -1.250748 0
M  V30 26 C -2.234404 -2.341772 -0.872559 0
M  V30 27 C -1.871747 -2.778182 0.409946 0
M  V30 28 C -0.701511 -3.478824 0.584091 0
M  V30 29 C 0.117549 -3.755753 -0.489550 0
M  V30 30 F 1.268968 -4.446365 -0.310727 0
M  V30 31 C -0.218377 -3.333051 -1.780560 0
M  V30 32 C -1.394144 -2.628776 -1.957695 0
M  V30 33 C -5.588285 1.238132 -1.962854 0
M  V30 34 C -4.752623 2.450459 -1.681473 0
M  V30 35 C 4.151112 2.188366 0.299979 0
M  V30 36 Cl 4.104596 3.609448 -0.683533 0
M  V30 37 C 5.152753 1.810089 1.151639 0
M  V30 38 N 5.089958 0.664892 1.883790 0
M  V30 39 C 5.130897 -1.664153 3.458251 0
M  V30 40 C 5.222148 -3.195190 3.467057 0
M  V30 41 H 5.353722 -2.923925 5.773792 0
M  V30 42 H 3.641237 -2.549885 5.967849 0
M  V30 43 H 4.170424 -4.224290 6.298813 0
M  V30 44 H 2.102298 -3.889943 3.672856 0
M  V30 45 H 2.431628 -2.456492 4.645800 0
M  V30 46 H 1.933307 -1.712366 2.561318 0
M  V30 47 H 2.892732 -2.929956 1.700219 0
M  V30 48 H 2.165180 -0.517526 0.933249 0
M  V30 49 H 0.595397 1.630542 1.094292 0
M  V30 50 H -0.680280 3.946138 -0.362679 0
M  V30 51 H -2.940781 4.250144 -1.094896 0
M  V30 52 H -1.046229 -0.213853 -0.486382 0
M  V30 53 H -8.379266 0.092144 -2.880959 0
M  V30 54 H -8.566321 -0.135740 -2.910140 0
M  V30 55 H -2.585830 -2.506299 1.176135 0
M  V30 56 H -0.463849 -3.797464 1.607799 0
M  V30 57 H 0.459143 -3.574747 -2.598073 0
M  V30 58 H -1.593446 -2.332595 -2.978342 0
M  V30 59 H -6.499236 1.326311 -1.325923 0
M  V30 60 H -5.859194 1.258716 -3.048304 0
M  V30 61 H -5.250490 3.142900 -0.951245 0
M  V30 62 H -4.681325 3.068014 -2.626165 0
M  V30 63 H 6.005010 2.473991 1.213850 0
M  V30 64 H 6.083671 -1.237205 3.080832 0
M  V30 65 H 4.906944 -1.380671 4.509061 0
M  V30 66 H 6.163703 -3.439568 3.999069 0
M  V30 67 H 5.294714 -3.603358 2.456174 0
M  V30 END ATOM
M  V30 BEGIN BOND
M  V30 1 1 1 2
M  V30 2 1 2 3
M  V30 3 1 3 4
M  V30 4 1 4 5
M  V30 5 1 5 6
M  V30 6 2 6 7
M  V30 7 1 7 8
M  V30 8 1 8 9
M  V30 9 2 9 10
M  V30 10 1 9 11
M  V30 11 1 11 12
M  V30 12 2 12 13
M  V30 13 1 13 14
M  V30 14 2 14 15
M  V30 15 1 15 16
M  V30 16 2 16 17
M  V30 17 1 16 18
M  V30 18 2 18 19
M  V30 19 1 19 20
M  V30 20 1 20 21
M  V30 21 1 21 22
M  V30 22 2 21 23
M  V30 23 2 20 24
M  V30 24 1 24 25
M  V30 25 1 25 26
M  V30 26 2 26 27
M  V30 27 1 27 28
M  V30 28 2 28 29
M  V30 29 1 29 30
M  V30 30 1 29 31
M  V30 31 2 31 32
M  V30 32 1 19 33
M  V30 33 1 33 34
M  V30 34 2 8 35
M  V30 35 1 35 36
M  V30 36 1 35 37
M  V30 37 2 37 38
M  V30 38 1 5 39
M  V30 39 1 39 40
M  V30 40 1 40 2
M  V30 41 1 38 6
M  V30 42 1 17 12
M  V30 43 1 25 18
M  V30 44 1 32 26
M  V30 45 1 34 15
M  V30 46 1 1 41
M  V30 47 1 1 42
M  V30 48 1 1 43
M  V30 49 1 3 44
M  V30 50 1 3 45
M  V30 51 1 4 46
M  V30 52 1 4 47
M  V30 53 1 7 48
M  V30 54 1 11 49
M  V30 55 1 13 50
M  V30 56 1 14 51
M  V30 57 1 17 52
M  V30 58 1 22 53
M  V30 59 1 22 54
M  V30 60 1 27 55
M  V30 61 1 28 56
M  V30 62 1 31 57
M  V30 63 1 32 58
M  V30 64 1 33 59
M  V30 65 1 33 60
M  V30 66 1 34 61
M  V30 67 1 34 62
M  V30 68 1 37 63
M  V30 69 1 39 64
M  V30 70 1 39 65
M  V30 71 1 40 66
M  V30 72 1 40 67
M  V30 END BOND
M  V30 END CTAB
M  END
>  <Dataset>  (392) 
ChEMBL_Kinases

>  <Ligand_Instance>  (392) 
nan

>  <PDB_ID>  (392) 
nan

>  <Standardized_SMILES>  (392) 
CN1CCN(c2cc(C(=O)Nc3ccc4c(c3)-c3c(c(C(N)=O)nn3-c3ccc(F)cc3)CC4)c(Cl)cn2)CC1

>  <Name>  (392) 
nan

>  <Pocket>  (392) 
nan

>  <ATP_Site>  (392) 
nan

>  <Peripheral>  (392) 
nan

>  <Num_H_Atoms_ProtBoundConf>  (392) 
nan

>  <Num_Resolved_Atoms>  (392) 
nan

>  <Num_Not_Resolved_Atoms>  (392) 
nan

$$$$
CHEMBL3809446
     RDKit          3D

  0  0  0  0  0  0  0  0  0  0999 V3000
M  V30 BEGIN CTAB
M  V30 COUNTS 47 50 0 0 0
M  V30 BEGIN ATOM
M  V30 1 C 0.688531 -3.992392 5.238161 0
M  V30 2 O -0.343476 -4.112036 4.246047 0
M  V30 3 C -0.671615 -2.954205 3.568359 0
M  V30 4 C -0.264177 -1.643988 3.580746 0
M  V30 5 C -0.864420 -0.729721 2.701403 0
M  V30 6 C -1.891394 -1.246280 1.826140 0
M  V30 7 N -2.168950 0.055995 1.174117 0
M  V30 8 C -1.731792 -0.090811 -0.180042 0
M  V30 9 C -0.447882 0.471301 -0.255368 0
M  V30 10 C 0.366790 0.532347 -1.389417 0
M  V30 11 C 1.623010 1.106358 -1.389515 0
M  V30 12 C 2.172829 1.670958 -0.167864 0
M  V30 13 C 2.666453 2.974809 -0.326694 0
M  V30 14 N 3.151399 3.397970 0.863793 0
M  V30 15 N 2.991332 2.433110 1.768985 0
M  V30 16 C 3.287484 2.281010 3.188599 0
M  V30 17 C 2.397673 1.375012 1.155044 0
M  V30 18 C 2.332586 1.108070 -2.588823 0
M  V30 19 C 1.802987 0.555390 -3.742912 0
M  V30 20 C 0.537629 -0.016810 -3.720617 0
M  V30 21 C -0.178396 -0.028306 -2.546431 0
M  V30 22 C -1.439165 -0.572799 -2.446500 0
M  V30 23 N -2.199355 -0.613021 -1.325002 0
M  V30 24 C -2.418286 -2.636441 1.722278 0
M  V30 25 O -3.202870 -2.081252 0.767296 0
M  V30 26 C -4.148737 -2.859736 0.060156 0
M  V30 27 C -1.638260 -3.186980 2.671278 0
M  V30 28 H 1.136490 -4.965790 5.458455 0
M  V30 29 H 0.372803 -3.429014 6.118623 0
M  V30 30 H 1.487274 -3.362835 4.745117 0
M  V30 31 H 0.498278 -1.544430 4.319625 0
M  V30 32 H -0.342565 0.209563 2.938361 0
M  V30 33 H -2.608326 0.858475 1.665843 0
M  V30 34 H 0.058623 0.944394 0.581447 0
M  V30 35 H 2.804422 3.778368 -1.064570 0
M  V30 36 H 2.333339 2.214664 3.780471 0
M  V30 37 H 3.928968 3.128582 3.489642 0
M  V30 38 H 3.833394 1.338440 3.372328 0
M  V30 39 H 2.105570 0.410303 1.505455 0
M  V30 40 H 3.316080 1.551011 -2.604676 0
M  V30 41 H 2.382356 0.572756 -4.650813 0
M  V30 42 H 0.096710 -0.460091 -4.608394 0
M  V30 43 H -1.924910 -1.021001 -3.299260 0
M  V30 44 H -3.804703 -2.917682 -1.001113 0
M  V30 45 H -5.149625 -2.376058 0.031811 0
M  V30 46 H -4.197123 -3.902629 0.431908 0
M  V30 47 H -2.146895 -4.168847 2.458119 0
M  V30 END ATOM
M  V30 BEGIN BOND
M  V30 1 1 1 2
M  V30 2 1 2 3
M  V30 3 2 3 4
M  V30 4 1 4 5
M  V30 5 2 5 6
M  V30 6 1 6 7
M  V30 7 1 7 8
M  V30 8 2 8 9
M  V30 9 1 9 10
M  V30 10 2 10 11
M  V30 11 1 11 12
M  V30 12 1 12 13
M  V30 13 2 13 14
M  V30 14 1 14 15
M  V30 15 1 15 16
M  V30 16 1 15 17
M  V30 17 1 11 18
M  V30 18 2 18 19
M  V30 19 1 19 20
M  V30 20 2 20 21
M  V30 21 1 21 22
M  V30 22 2 22 23
M  V30 23 1 6 24
M  V30 24 1 24 25
M  V30 25 1 25 26
M  V30 26 2 24 27
M  V30 27 1 27 3
M  V30 28 1 23 8
M  V30 29 1 21 10
M  V30 30 2 17 12
M  V30 31 1 1 28
M  V30 32 1 1 29
M  V30 33 1 1 30
M  V30 34 1 4 31
M  V30 35 1 5 32
M  V30 36 1 7 33
M  V30 37 1 9 34
M  V30 38 1 13 35
M  V30 39 1 16 36
M  V30 40 1 16 37
M  V30 41 1 16 38
M  V30 42 1 17 39
M  V30 43 1 18 40
M  V30 44 1 19 41
M  V30 45 1 20 42
M  V30 46 1 22 43
M  V30 47 1 26 44
M  V30 48 1 26 45
M  V30 49 1 26 46
M  V30 50 1 27 47
M  V30 END BOND
M  V30 END CTAB
M  END
>  <Dataset>  (393) 
ChEMBL_Kinases

>  <Ligand_Instance>  (393) 
nan

>  <PDB_ID>  (393) 
nan

>  <Standardized_SMILES>  (393) 
COc1ccc(Nc2cc3c(-c4cnn(C)c4)cccc3cn2)c(OC)c1

>  <Name>  (393) 
nan

>  <Pocket>  (393) 
nan

>  <ATP_Site>  (393) 
nan

>  <Peripheral>  (393) 
nan

>  <Num_H_Atoms_ProtBoundConf>  (393) 
nan

>  <Num_Resolved_Atoms>  (393) 
nan

>  <Num_Not_Resolved_Atoms>  (393) 
nan

$$$$
CHEMBL592892
     RDKit          3D

  0  0  0  0  0  0  0  0  0  0999 V3000
M  V30 BEGIN CTAB
M  V30 COUNTS 67 72 0 0 0
M  V30 BEGIN ATOM
M  V30 1 C 5.303892 -1.490403 4.332305 0
M  V30 2 N 4.583694 -0.269635 4.727621 0
M  V30 3 C 3.232267 -0.419742 4.295441 0
M  V30 4 C 2.480147 0.871677 4.100373 0
M  V30 5 N 3.285037 1.895861 3.439201 0
M  V30 6 C 2.959393 2.553625 2.215155 0
M  V30 7 C 3.687520 3.523721 1.553009 0
M  V30 8 C 3.207025 4.046784 0.370163 0
M  V30 9 C 1.990853 3.603617 -0.163037 0
M  V30 10 Cl 1.456920 4.321685 -1.667943 0
M  V30 11 C 1.291509 2.633309 0.526647 0
M  V30 12 C 0.021927 2.175192 -0.036390 0
M  V30 13 O -0.342272 2.704048 -1.118983 0
M  V30 14 N -0.681589 1.174760 0.693108 0
M  V30 15 C -1.924846 0.542593 0.397763 0
M  V30 16 C -3.122072 1.094696 0.870503 0
M  V30 17 C -4.364450 0.508662 0.605361 0
M  V30 18 C -4.421087 -0.656752 -0.149224 0
M  V30 19 C -3.250702 -1.200822 -0.614191 0
M  V30 20 C -2.032039 -0.622809 -0.352049 0
M  V30 21 C -3.344651 -2.418325 -1.398820 0
M  V30 22 C -4.578996 -2.956571 -1.633173 0
M  V30 23 C -4.349184 -4.077521 -2.385488 0
M  V30 24 C -5.337237 -5.022391 -2.908157 0
M  V30 25 N -4.905876 -6.137936 -3.675812 0
M  V30 26 O -6.546725 -4.816847 -2.660211 0
M  V30 27 N -3.001193 -4.158884 -2.565705 0
M  V30 28 N -2.387303 -3.156379 -1.970220 0
M  V30 29 C -0.981233 -3.063708 -2.042519 0
M  V30 30 C -0.283424 -2.387195 -3.050421 0
M  V30 31 C 1.074916 -2.303611 -3.130598 0
M  V30 32 C 1.846509 -2.911818 -2.175687 0
M  V30 33 F 3.192543 -2.850565 -2.222291 0
M  V30 34 C 1.233447 -3.594333 -1.155673 0
M  V30 35 C -0.150677 -3.669401 -1.089385 0
M  V30 36 C -5.862900 -2.425482 -1.165803 0
M  V30 37 C -5.775641 -1.173320 -0.358554 0
M  V30 38 N 1.799156 2.152493 1.676332 0
M  V30 39 C 4.449663 2.118767 4.234240 0
M  V30 40 C 5.293500 0.842666 4.174690 0
M  V30 41 H 4.833016 -2.365888 4.823963 0
M  V30 42 H 6.390953 -1.403931 4.491238 0
M  V30 43 H 5.138117 -1.647570 3.231521 0
M  V30 44 H 3.197117 -1.076725 3.398043 0
M  V30 45 H 2.686086 -0.991149 5.092475 0
M  V30 46 H 1.992657 1.256263 4.997857 0
M  V30 47 H 1.657537 0.627972 3.366832 0
M  V30 48 H 4.609329 3.799065 2.041491 0
M  V30 49 H 3.819674 4.810054 -0.113201 0
M  V30 50 H -0.300681 0.792755 1.586688 0
M  V30 51 H -3.044134 2.017659 1.465009 0
M  V30 52 H -5.195434 1.043937 1.032680 0
M  V30 53 H -1.080607 -0.994010 -0.683644 0
M  V30 54 H -5.314492 -6.591132 -4.526004 0
M  V30 55 H -5.308455 -6.594115 -4.523555 0
M  V30 56 H -0.932389 -1.918293 -3.788500 0
M  V30 57 H 1.511576 -1.745522 -3.966823 0
M  V30 58 H 1.778361 -4.105199 -0.357216 0
M  V30 59 H -0.644110 -4.215015 -0.274082 0
M  V30 60 H -6.475262 -2.200833 -2.088400 0
M  V30 61 H -6.475100 -3.199500 -0.636552 0
M  V30 62 H -6.194016 -1.386482 0.669131 0
M  V30 63 H -6.469532 -0.383011 -0.758724 0
M  V30 64 H 5.090991 2.949683 3.883610 0
M  V30 65 H 4.196875 2.344692 5.285846 0
M  V30 66 H 6.197257 1.002721 4.802312 0
M  V30 67 H 5.599608 0.693654 3.131201 0
M  V30 END ATOM
M  V30 BEGIN BOND
M  V30 1 1 1 2
M  V30 2 1 2 3
M  V30 3 1 3 4
M  V30 4 1 4 5
M  V30 5 1 5 6
M  V30 6 2 6 7
M  V30 7 1 7 8
M  V30 8 2 8 9
M  V30 9 1 9 10
M  V30 10 1 9 11
M  V30 11 1 11 12
M  V30 12 2 12 13
M  V30 13 1 12 14
M  V30 14 1 14 15
M  V30 15 2 15 16
M  V30 16 1 16 17
M  V30 17 2 17 18
M  V30 18 1 18 19
M  V30 19 2 19 20
M  V30 20 1 19 21
M  V30 21 2 21 22
M  V30 22 1 22 23
M  V30 23 1 23 24
M  V30 24 1 24 25
M  V30 25 2 24 26
M  V30 26 2 23 27
M  V30 27 1 27 28
M  V30 28 1 28 29
M  V30 29 2 29 30
M  V30 30 1 30 31
M  V30 31 2 31 32
M  V30 32 1 32 33
M  V30 33 1 32 34
M  V30 34 2 34 35
M  V30 35 1 22 36
M  V30 36 1 36 37
M  V30 37 2 11 38
M  V30 38 1 5 39
M  V30 39 1 39 40
M  V30 40 1 40 2
M  V30 41 1 38 6
M  V30 42 1 20 15
M  V30 43 1 28 21
M  V30 44 1 35 29
M  V30 45 1 37 18
M  V30 46 1 1 41
M  V30 47 1 1 42
M  V30 48 1 1 43
M  V30 49 1 3 44
M  V30 50 1 3 45
M  V30 51 1 4 46
M  V30 52 1 4 47
M  V30 53 1 7 48
M  V30 54 1 8 49
M  V30 55 1 14 50
M  V30 56 1 16 51
M  V30 57 1 17 52
M  V30 58 1 20 53
M  V30 59 1 25 54
M  V30 60 1 25 55
M  V30 61 1 30 56
M  V30 62 1 31 57
M  V30 63 1 34 58
M  V30 64 1 35 59
M  V30 65 1 36 60
M  V30 66 1 36 61
M  V30 67 1 37 62
M  V30 68 1 37 63
M  V30 69 1 39 64
M  V30 70 1 39 65
M  V30 71 1 40 66
M  V30 72 1 40 67
M  V30 END BOND
M  V30 END CTAB
M  END
>  <Dataset>  (394) 
ChEMBL_Kinases

>  <Ligand_Instance>  (394) 
nan

>  <PDB_ID>  (394) 
nan

>  <Standardized_SMILES>  (394) 
CN1CCN(c2ccc(Cl)c(C(=O)Nc3ccc4c(c3)-c3c(c(C(N)=O)nn3-c3ccc(F)cc3)CC4)n2)CC1

>  <Name>  (394) 
nan

>  <Pocket>  (394) 
nan

>  <ATP_Site>  (394) 
nan

>  <Peripheral>  (394) 
nan

>  <Num_H_Atoms_ProtBoundConf>  (394) 
nan

>  <Num_Resolved_Atoms>  (394) 
nan

>  <Num_Not_Resolved_Atoms>  (394) 
nan

$$$$
CHEMBL3809322
     RDKit          3D

  0  0  0  0  0  0  0  0  0  0999 V3000
M  V30 BEGIN CTAB
M  V30 COUNTS 40 43 0 0 0
M  V30 BEGIN ATOM
M  V30 1 C 1.875790 -6.684278 4.191257 0
M  V30 2 O 2.185467 -5.380968 4.664662 0
M  V30 3 C 1.851581 -4.236742 3.955964 0
M  V30 4 C 2.170377 -2.991664 4.450846 0
M  V30 5 C 1.856378 -1.836414 3.778201 0
M  V30 6 C 1.190818 -1.886889 2.546802 0
M  V30 7 N 0.863528 -0.696919 1.846795 0
M  V30 8 C 0.199783 -0.520030 0.601411 0
M  V30 9 C -0.016805 0.743871 0.101015 0
M  V30 10 C -0.649308 0.981234 -1.091106 0
M  V30 11 C -0.833765 2.259596 -1.532992 0
M  V30 12 C -0.407165 3.449740 -0.834125 0
M  V30 13 C -0.630221 4.719737 -1.347007 0
M  V30 14 C -0.147904 5.691910 -0.527755 0
M  V30 15 C 0.378135 4.983088 0.503622 0
M  V30 16 O 0.200685 3.725192 0.272363 0
M  V30 17 C -1.483656 2.342468 -2.745331 0
M  V30 18 C -1.929538 1.278722 -3.489761 0
M  V30 19 C -1.720743 0.007809 -3.003287 0
M  V30 20 C -1.074965 -0.123148 -1.794836 0
M  V30 21 C -0.881655 -1.407920 -1.336004 0
M  V30 22 N -0.252558 -1.526351 -0.159478 0
M  V30 23 C 0.897845 -3.157507 2.101831 0
M  V30 24 C 1.196170 -4.338997 2.747426 0
M  V30 25 H 0.804673 -6.900667 4.168865 0
M  V30 26 H 2.320895 -6.839691 3.165347 0
M  V30 27 H 2.367371 -7.416998 4.852235 0
M  V30 28 H 2.684247 -2.891650 5.396861 0
M  V30 29 H 2.130744 -0.869916 4.212285 0
M  V30 30 H 1.171202 0.189970 2.348595 0
M  V30 31 H 0.336173 1.567692 0.691738 0
M  V30 32 H -1.125914 4.986489 -2.287629 0
M  V30 33 H -0.124763 6.769624 -0.568795 0
M  V30 34 H 0.887920 5.241871 1.429432 0
M  V30 35 H -1.706758 3.302062 -3.234062 0
M  V30 36 H -2.436560 1.375485 -4.438063 0
M  V30 37 H -2.051524 -0.863608 -3.549142 0
M  V30 38 H -1.221604 -2.274373 -1.899241 0
M  V30 39 H 0.386266 -3.308626 1.164036 0
M  V30 40 H 0.942836 -5.311650 2.352853 0
M  V30 END ATOM
M  V30 BEGIN BOND
M  V30 1 1 1 2
M  V30 2 1 2 3
M  V30 3 2 3 4
M  V30 4 1 4 5
M  V30 5 2 5 6
M  V30 6 1 6 7
M  V30 7 1 7 8
M  V30 8 2 8 9
M  V30 9 1 9 10
M  V30 10 2 10 11
M  V30 11 1 11 12
M  V30 12 2 12 13
M  V30 13 1 13 14
M  V30 14 2 14 15
M  V30 15 1 15 16
M  V30 16 1 11 17
M  V30 17 2 17 18
M  V30 18 1 18 19
M  V30 19 2 19 20
M  V30 20 1 20 21
M  V30 21 2 21 22
M  V30 22 1 6 23
M  V30 23 2 23 24
M  V30 24 1 24 3
M  V30 25 1 22 8
M  V30 26 1 20 10
M  V30 27 1 16 12
M  V30 28 1 1 25
M  V30 29 1 1 26
M  V30 30 1 1 27
M  V30 31 1 4 28
M  V30 32 1 5 29
M  V30 33 1 7 30
M  V30 34 1 9 31
M  V30 35 1 13 32
M  V30 36 1 14 33
M  V30 37 1 15 34
M  V30 38 1 17 35
M  V30 39 1 18 36
M  V30 40 1 19 37
M  V30 41 1 21 38
M  V30 42 1 23 39
M  V30 43 1 24 40
M  V30 END BOND
M  V30 END CTAB
M  END
>  <Dataset>  (395) 
ChEMBL_Kinases

>  <Ligand_Instance>  (395) 
nan

>  <PDB_ID>  (395) 
nan

>  <Standardized_SMILES>  (395) 
COc1ccc(Nc2cc3c(-c4ccco4)cccc3cn2)cc1

>  <Name>  (395) 
nan

>  <Pocket>  (395) 
nan

>  <ATP_Site>  (395) 
nan

>  <Peripheral>  (395) 
nan

>  <Num_H_Atoms_ProtBoundConf>  (395) 
nan

>  <Num_Resolved_Atoms>  (395) 
nan

>  <Num_Not_Resolved_Atoms>  (395) 
nan

$$$$
CHEMBL3809311
     RDKit          3D

  0  0  0  0  0  0  0  0  0  0999 V3000
M  V30 BEGIN CTAB
M  V30 COUNTS 65 69 0 0 0
M  V30 BEGIN ATOM
M  V30 1 O 2.090327 1.893054 2.808671 0
M  V30 2 C 2.143771 1.816947 4.070005 0
M  V30 3 N 3.000243 0.784659 4.526800 0
M  V30 4 C 3.636363 0.027026 3.501451 0
M  V30 5 C 4.866650 0.313026 2.947367 0
M  V30 6 C 5.382376 -0.494846 1.954711 0
M  V30 7 C 4.666561 -1.588894 1.516840 0
M  V30 8 C 5.077346 -2.551396 0.478326 0
M  V30 9 N 4.681616 -2.211192 -0.858682 0
M  V30 10 C 3.246512 -2.035003 -0.874427 0
M  V30 11 N 3.000507 -0.714549 -0.791387 0
M  V30 12 C 1.680093 -0.495177 -0.802566 0
M  V30 13 C 0.769536 0.553532 -0.751493 0
M  V30 14 C -0.611985 0.306077 -0.795697 0
M  V30 15 C -1.130223 -0.999755 -0.892819 0
M  V30 16 O -2.473829 -0.836316 -0.908212 0
M  V30 17 C -3.407053 -1.851820 -1.011095 0
M  V30 18 C -3.356890 -2.633773 -2.280092 0
M  V30 19 N -4.365238 -3.679327 -2.327421 0
M  V30 20 C -5.704075 -3.205684 -2.419741 0
M  V30 21 C -5.969448 -2.615086 -3.767424 0
M  V30 22 O -5.869544 -3.628093 -4.717829 0
M  V30 23 C -4.600973 -4.196965 -4.736847 0
M  V30 24 C -4.065898 -4.568760 -3.395774 0
M  V30 25 C -0.181647 -1.988698 -0.938663 0
M  V30 26 C 1.157930 -1.780940 -0.898216 0
M  V30 27 O 2.099883 -2.696169 -0.940636 0
M  V30 28 C 3.417094 -1.866113 2.089941 0
M  V30 29 C 2.872424 -1.059890 3.099705 0
M  V30 30 N 1.454537 2.633966 5.023270 0
M  V30 31 C 0.587950 3.669160 4.566384 0
M  V30 32 C -0.702760 3.151799 4.403615 0
M  V30 33 C -1.757122 3.935257 3.967864 0
M  V30 34 C -1.506007 5.270428 3.689526 0
M  V30 35 Cl -2.772029 6.351566 3.131317 0
M  V30 36 C -0.236363 5.776338 3.850316 0
M  V30 37 C 0.815186 4.999552 4.283819 0
M  V30 38 Cl 2.473519 5.465047 4.542493 0
M  V30 39 H 3.141577 0.607374 5.548995 0
M  V30 40 H 5.400992 1.175450 3.312585 0
M  V30 41 H 6.339487 -0.314482 1.489535 0
M  V30 42 H 6.179920 -2.704044 0.455504 0
M  V30 43 H 4.667424 -3.574196 0.691656 0
M  V30 44 H 5.259304 -2.087173 -1.743210 0
M  V30 45 H 1.286052 1.496097 -0.678404 0
M  V30 46 H -1.091028 1.293995 -0.739621 0
M  V30 47 H -4.430530 -1.462120 -0.788533 0
M  V30 48 H -3.208115 -2.544908 -0.133146 0
M  V30 49 H -3.472661 -1.984731 -3.186947 0
M  V30 50 H -2.394378 -3.136534 -2.412972 0
M  V30 51 H -5.997264 -2.530622 -1.586579 0
M  V30 52 H -6.373167 -4.087006 -2.320195 0
M  V30 53 H -7.058122 -2.317675 -3.762788 0
M  V30 54 H -5.417024 -1.707129 -4.012205 0
M  V30 55 H -3.862818 -3.612313 -5.314125 0
M  V30 56 H -4.707855 -5.168448 -5.305493 0
M  V30 57 H -4.329749 -5.617437 -3.123658 0
M  V30 58 H -2.942249 -4.581269 -3.502005 0
M  V30 59 H -0.621019 -2.948628 -0.995085 0
M  V30 60 H 2.809421 -2.728025 1.771677 0
M  V30 61 H 1.908444 -1.326419 3.498940 0
M  V30 62 H 1.591627 2.466155 6.037115 0
M  V30 63 H -1.039915 2.127762 4.584701 0
M  V30 64 H -2.767216 3.606466 3.821277 0
M  V30 65 H 0.038457 6.803064 3.654369 0
M  V30 END ATOM
M  V30 BEGIN BOND
M  V30 1 2 1 2
M  V30 2 1 2 3
M  V30 3 1 3 4
M  V30 4 2 4 5
M  V30 5 1 5 6
M  V30 6 2 6 7
M  V30 7 1 7 8
M  V30 8 1 8 9
M  V30 9 1 9 10
M  V30 10 2 10 11
M  V30 11 1 11 12
M  V30 12 2 12 13
M  V30 13 1 13 14
M  V30 14 2 14 15
M  V30 15 1 15 16
M  V30 16 1 16 17
M  V30 17 1 17 18
M  V30 18 1 18 19
M  V30 19 1 19 20
M  V30 20 1 20 21
M  V30 21 1 21 22
M  V30 22 1 22 23
M  V30 23 1 23 24
M  V30 24 1 15 25
M  V30 25 2 25 26
M  V30 26 1 26 27
M  V30 27 1 7 28
M  V30 28 2 28 29
M  V30 29 1 2 30
M  V30 30 1 30 31
M  V30 31 2 31 32
M  V30 32 1 32 33
M  V30 33 2 33 34
M  V30 34 1 34 35
M  V30 35 1 34 36
M  V30 36 2 36 37
M  V30 37 1 37 38
M  V30 38 1 29 4
M  V30 39 1 37 31
M  V30 40 1 27 10
M  V30 41 1 26 12
M  V30 42 1 24 19
M  V30 43 1 3 39
M  V30 44 1 5 40
M  V30 45 1 6 41
M  V30 46 1 8 42
M  V30 47 1 8 43
M  V30 48 1 9 44
M  V30 49 1 13 45
M  V30 50 1 14 46
M  V30 51 1 17 47
M  V30 52 1 17 48
M  V30 53 1 18 49
M  V30 54 1 18 50
M  V30 55 1 20 51
M  V30 56 1 20 52
M  V30 57 1 21 53
M  V30 58 1 21 54
M  V30 59 1 23 55
M  V30 60 1 23 56
M  V30 61 1 24 57
M  V30 62 1 24 58
M  V30 63 1 25 59
M  V30 64 1 28 60
M  V30 65 1 29 61
M  V30 66 1 30 62
M  V30 67 1 32 63
M  V30 68 1 33 64
M  V30 69 1 36 65
M  V30 END BOND
M  V30 END CTAB
M  END
>  <Dataset>  (396) 
ChEMBL_Kinases

>  <Ligand_Instance>  (396) 
nan

>  <PDB_ID>  (396) 
nan

>  <Standardized_SMILES>  (396) 
O=C(Nc1ccc(CNc2nc3ccc(OCCN4CCOCC4)cc3o2)cc1)Nc1ccc(Cl)cc1Cl

>  <Name>  (396) 
nan

>  <Pocket>  (396) 
nan

>  <ATP_Site>  (396) 
nan

>  <Peripheral>  (396) 
nan

>  <Num_H_Atoms_ProtBoundConf>  (396) 
nan

>  <Num_Resolved_Atoms>  (396) 
nan

>  <Num_Not_Resolved_Atoms>  (396) 
nan

$$$$
CHEMBL3809287
     RDKit          3D

  0  0  0  0  0  0  0  0  0  0999 V3000
M  V30 BEGIN CTAB
M  V30 COUNTS 55 58 0 0 0
M  V30 BEGIN ATOM
M  V30 1 C 3.090740 -2.776069 -1.081614 0
M  V30 2 O 2.093525 -1.959553 -0.511454 0
M  V30 3 C 2.380294 -0.679449 -0.033604 0
M  V30 4 C 3.655575 -0.230565 -0.129919 0
M  V30 5 C 4.003204 1.023360 0.323091 0
M  V30 6 C 5.378728 1.490947 0.211630 0
M  V30 7 C 5.977334 2.367449 1.108887 0
M  V30 8 N 7.229710 2.564009 0.684633 0
M  V30 9 N 7.469055 1.873044 -0.420629 0
M  V30 10 C 8.723939 1.849965 -1.154840 0
M  V30 11 C 6.331511 1.191083 -0.742915 0
M  V30 12 C 3.024253 1.804209 0.873755 0
M  V30 13 C 1.744699 1.298665 0.947051 0
M  V30 14 C 1.334648 0.061230 0.515040 0
M  V30 15 N 0.016063 -0.435297 0.602478 0
M  V30 16 C -1.128386 0.192953 1.119467 0
M  V30 17 N -1.192174 1.402035 1.637677 0
M  V30 18 C -2.309275 1.959668 2.119027 0
M  V30 19 C -3.478614 1.234543 2.077384 0
M  V30 20 C -4.653389 1.762562 2.559379 0
M  V30 21 C -5.763810 0.962643 2.473438 0
M  V30 22 N -5.776611 -0.297146 1.951129 0
M  V30 23 C -4.604316 -0.792207 1.483468 0
M  V30 24 N -4.598500 -2.100935 0.936347 0
M  V30 25 C -5.765707 -2.918373 0.856078 0
M  V30 26 C -5.493280 -4.269815 0.225872 0
M  V30 27 C -4.475119 -5.056481 1.002588 0
M  V30 28 C -5.046717 -4.153843 -1.200332 0
M  V30 29 C -3.461704 -0.034539 1.544620 0
M  V30 30 N -2.288662 -0.482497 1.096457 0
M  V30 31 H 2.576787 -3.667907 -1.545677 0
M  V30 32 H 3.797301 -3.072535 -0.283939 0
M  V30 33 H 3.627565 -2.190835 -1.862217 0
M  V30 34 H 4.434277 -0.842152 -0.563779 0
M  V30 35 H 5.529850 2.822844 1.999610 0
M  V30 36 H 8.680074 1.038988 -1.923180 0
M  V30 37 H 9.575614 1.537696 -0.487735 0
M  V30 38 H 8.922412 2.789803 -1.699825 0
M  V30 39 H 6.186042 0.529985 -1.590643 0
M  V30 40 H 3.294676 2.788025 1.229938 0
M  V30 41 H 1.040807 1.982591 1.394924 0
M  V30 42 H -0.084968 -1.422433 0.214073 0
M  V30 43 H -2.372531 2.952490 2.546912 0
M  V30 44 H -4.693038 2.752132 2.980716 0
M  V30 45 H -6.709119 1.324812 2.835212 0
M  V30 46 H -3.692220 -2.494199 0.569948 0
M  V30 47 H -6.177274 -3.157588 1.871155 0
M  V30 48 H -6.594990 -2.412740 0.321802 0
M  V30 49 H -6.454967 -4.836708 0.263265 0
M  V30 50 H -3.539617 -5.225257 0.393260 0
M  V30 51 H -4.195331 -4.518471 1.943725 0
M  V30 52 H -4.844942 -6.086024 1.272402 0
M  V30 53 H -5.213524 -3.145544 -1.628518 0
M  V30 54 H -5.595149 -4.855363 -1.881850 0
M  V30 55 H -3.969668 -4.384141 -1.336519 0
M  V30 END ATOM
M  V30 BEGIN BOND
M  V30 1 1 1 2
M  V30 2 1 2 3
M  V30 3 2 3 4
M  V30 4 1 4 5
M  V30 5 1 5 6
M  V30 6 1 6 7
M  V30 7 2 7 8
M  V30 8 1 8 9
M  V30 9 1 9 10
M  V30 10 1 9 11
M  V30 11 2 5 12
M  V30 12 1 12 13
M  V30 13 2 13 14
M  V30 14 1 14 15
M  V30 15 1 15 16
M  V30 16 2 16 17
M  V30 17 1 17 18
M  V30 18 2 18 19
M  V30 19 1 19 20
M  V30 20 2 20 21
M  V30 21 1 21 22
M  V30 22 2 22 23
M  V30 23 1 23 24
M  V30 24 1 24 25
M  V30 25 1 25 26
M  V30 26 1 26 27
M  V30 27 1 26 28
M  V30 28 1 23 29
M  V30 29 2 29 30
M  V30 30 1 14 3
M  V30 31 1 30 16
M  V30 32 2 11 6
M  V30 33 1 29 19
M  V30 34 1 1 31
M  V30 35 1 1 32
M  V30 36 1 1 33
M  V30 37 1 4 34
M  V30 38 1 7 35
M  V30 39 1 10 36
M  V30 40 1 10 37
M  V30 41 1 10 38
M  V30 42 1 11 39
M  V30 43 1 12 40
M  V30 44 1 13 41
M  V30 45 1 15 42
M  V30 46 1 18 43
M  V30 47 1 20 44
M  V30 48 1 21 45
M  V30 49 1 24 46
M  V30 50 1 25 47
M  V30 51 1 25 48
M  V30 52 1 26 49
M  V30 53 1 27 50
M  V30 54 1 27 51
M  V30 55 1 27 52
M  V30 56 1 28 53
M  V30 57 1 28 54
M  V30 58 1 28 55
M  V30 END BOND
M  V30 END CTAB
M  END
>  <Dataset>  (397) 
ChEMBL_Kinases

>  <Ligand_Instance>  (397) 
nan

>  <PDB_ID>  (397) 
nan

>  <Standardized_SMILES>  (397) 
COc1cc(-c2cnn(C)c2)ccc1Nc1ncc2ccnc(NCC(C)C)c2n1

>  <Name>  (397) 
nan

>  <Pocket>  (397) 
nan

>  <ATP_Site>  (397) 
nan

>  <Peripheral>  (397) 
nan

>  <Num_H_Atoms_ProtBoundConf>  (397) 
nan

>  <Num_Resolved_Atoms>  (397) 
nan

>  <Num_Not_Resolved_Atoms>  (397) 
nan

$$$$
CHEMBL3809279
     RDKit          3D

  0  0  0  0  0  0  0  0  0  0999 V3000
M  V30 BEGIN CTAB
M  V30 COUNTS 58 62 0 0 0
M  V30 BEGIN ATOM
M  V30 1 C 4.436410 -1.721739 4.465713 0
M  V30 2 O 3.937253 -0.464248 4.225573 0
M  V30 3 C 4.284141 0.054065 2.982540 0
M  V30 4 C 3.804892 -0.745988 1.818827 0
M  V30 5 O 2.437598 -0.919145 1.696329 0
M  V30 6 C 1.452617 0.004259 1.529708 0
M  V30 7 C 1.430216 1.375808 1.417289 0
M  V30 8 C 0.270029 2.096753 1.247065 0
M  V30 9 C 0.383776 3.547896 1.146215 0
M  V30 10 C 1.266583 4.454098 1.714628 0
M  V30 11 N 0.931908 5.687967 1.289536 0
M  V30 12 N -0.113845 5.632738 0.480925 0
M  V30 13 C -0.806213 6.713655 -0.204403 0
M  V30 14 C -0.458630 4.332410 0.384641 0
M  V30 15 C -0.952628 1.467168 1.179092 0
M  V30 16 C -0.954928 0.093771 1.289040 0
M  V30 17 C 0.213857 -0.653559 1.462484 0
M  V30 18 N -0.053060 -2.062203 1.568238 0
M  V30 19 C -1.346602 -2.675482 1.431313 0
M  V30 20 N -2.303191 -2.812744 2.370969 0
M  V30 21 C -3.476092 -3.414150 2.106449 0
M  V30 22 C -3.693940 -3.899529 0.836350 0
M  V30 23 C -4.864452 -4.528583 0.474104 0
M  V30 24 C -5.015334 -4.989944 -0.816643 0
M  V30 25 N -4.033023 -4.832329 -1.724976 0
M  V30 26 C -2.870391 -4.226100 -1.425806 0
M  V30 27 C -1.750211 -4.019519 -2.350430 0
M  V30 28 C -0.461216 -4.294895 -1.939783 0
M  V30 29 N 0.379151 -4.022915 -2.958833 0
M  V30 30 N -0.334531 -3.583929 -4.003128 0
M  V30 31 C 0.244908 -3.196494 -5.271404 0
M  V30 32 C -1.628033 -3.578663 -3.643320 0
M  V30 33 C -2.692609 -3.746854 -0.116567 0
M  V30 34 N -1.523220 -3.130965 0.198892 0
M  V30 35 H 5.546006 -1.634629 4.394102 0
M  V30 36 H 3.984059 -2.458599 3.789056 0
M  V30 37 H 4.140077 -2.027743 5.497819 0
M  V30 38 H 5.414275 -0.005438 2.952748 0
M  V30 39 H 4.056047 1.115684 2.978055 0
M  V30 40 H 4.235048 -0.242638 0.900926 0
M  V30 41 H 4.266926 -1.770194 1.902303 0
M  V30 42 H 2.406282 1.805023 1.469383 0
M  V30 43 H 2.057563 4.122069 2.375831 0
M  V30 44 H -0.159567 7.606963 -0.291508 0
M  V30 45 H -1.123915 6.314532 -1.199325 0
M  V30 46 H -1.772736 6.945709 0.315119 0
M  V30 47 H -1.281656 3.959235 -0.209339 0
M  V30 48 H -1.856445 2.042471 1.046737 0
M  V30 49 H -1.959065 -0.348319 1.226474 0
M  V30 50 H 0.737998 -2.707722 1.757976 0
M  V30 51 H -4.220754 -3.506557 2.880598 0
M  V30 52 H -5.605391 -4.618739 1.254550 0
M  V30 53 H -5.940704 -5.483329 -1.088781 0
M  V30 54 H -0.119381 -4.669825 -0.971888 0
M  V30 55 H 0.889276 -2.301174 -5.042717 0
M  V30 56 H 0.895383 -3.985467 -5.699401 0
M  V30 57 H -0.494025 -2.840812 -5.991582 0
M  V30 58 H -2.491884 -3.288968 -4.220496 0
M  V30 END ATOM
M  V30 BEGIN BOND
M  V30 1 1 1 2
M  V30 2 1 2 3
M  V30 3 1 3 4
M  V30 4 1 4 5
M  V30 5 1 5 6
M  V30 6 2 6 7
M  V30 7 1 7 8
M  V30 8 1 8 9
M  V30 9 1 9 10
M  V30 10 2 10 11
M  V30 11 1 11 12
M  V30 12 1 12 13
M  V30 13 1 12 14
M  V30 14 2 8 15
M  V30 15 1 15 16
M  V30 16 2 16 17
M  V30 17 1 17 18
M  V30 18 1 18 19
M  V30 19 2 19 20
M  V30 20 1 20 21
M  V30 21 2 21 22
M  V30 22 1 22 23
M  V30 23 2 23 24
M  V30 24 1 24 25
M  V30 25 2 25 26
M  V30 26 1 26 27
M  V30 27 1 27 28
M  V30 28 2 28 29
M  V30 29 1 29 30
M  V30 30 1 30 31
M  V30 31 1 30 32
M  V30 32 1 26 33
M  V30 33 2 33 34
M  V30 34 1 17 6
M  V30 35 1 34 19
M  V30 36 2 14 9
M  V30 37 1 33 22
M  V30 38 2 32 27
M  V30 39 1 1 35
M  V30 40 1 1 36
M  V30 41 1 1 37
M  V30 42 1 3 38
M  V30 43 1 3 39
M  V30 44 1 4 40
M  V30 45 1 4 41
M  V30 46 1 7 42
M  V30 47 1 10 43
M  V30 48 1 13 44
M  V30 49 1 13 45
M  V30 50 1 13 46
M  V30 51 1 14 47
M  V30 52 1 15 48
M  V30 53 1 16 49
M  V30 54 1 18 50
M  V30 55 1 21 51
M  V30 56 1 23 52
M  V30 57 1 24 53
M  V30 58 1 28 54
M  V30 59 1 31 55
M  V30 60 1 31 56
M  V30 61 1 31 57
M  V30 62 1 32 58
M  V30 END BOND
M  V30 END CTAB
M  END
>  <Dataset>  (398) 
ChEMBL_Kinases

>  <Ligand_Instance>  (398) 
nan

>  <PDB_ID>  (398) 
nan

>  <Standardized_SMILES>  (398) 
COCCOc1cc(-c2cnn(C)c2)ccc1Nc1ncc2ccnc(-c3cnn(C)c3)c2n1

>  <Name>  (398) 
nan

>  <Pocket>  (398) 
nan

>  <ATP_Site>  (398) 
nan

>  <Peripheral>  (398) 
nan

>  <Num_H_Atoms_ProtBoundConf>  (398) 
nan

>  <Num_Resolved_Atoms>  (398) 
nan

>  <Num_Not_Resolved_Atoms>  (398) 
nan

$$$$
CHEMBL592777
     RDKit          3D

  0  0  0  0  0  0  0  0  0  0999 V3000
M  V30 BEGIN CTAB
M  V30 COUNTS 58 60 0 0 0
M  V30 BEGIN ATOM
M  V30 1 C -2.325292 -3.085429 3.655686 0
M  V30 2 O -2.317926 -1.881028 2.966818 0
M  V30 3 C -1.227337 -0.994360 2.994497 0
M  V30 4 C -0.032002 -1.107530 3.639798 0
M  V30 5 C 0.915886 -0.090718 3.507621 0
M  V30 6 C 0.681573 1.049305 2.729284 0
M  V30 7 C 1.839169 1.915374 2.788038 0
M  V30 8 O 2.827545 1.863693 3.523782 0
M  V30 9 C 2.047020 3.050572 1.935279 0
M  V30 10 O 1.164472 3.216868 1.018819 0
M  V30 11 N 3.020819 4.049161 1.867092 0
M  V30 12 C 4.123985 4.185558 2.826439 0
M  V30 13 C 3.048272 5.050511 0.797744 0
M  V30 14 C -0.496777 1.209553 2.070144 0
M  V30 15 C -1.368422 0.178619 2.247310 0
M  V30 16 C -2.663052 0.242449 1.502133 0
M  V30 17 O -3.873407 0.523303 1.406793 0
M  V30 18 N -2.293564 -0.318899 0.225826 0
M  V30 19 C -3.289111 -0.456819 -0.845253 0
M  V30 20 C -3.303417 -1.872492 -1.369449 0
M  V30 21 C -1.972541 -2.248611 -1.955088 0
M  V30 22 C -1.470682 -3.566981 -1.394570 0
M  V30 23 C -0.149475 -3.939109 -1.975177 0
M  V30 24 C -0.193141 -4.685190 -3.151151 0
M  V30 25 C 0.928659 -5.129386 -3.824408 0
M  V30 26 C 2.114838 -4.789526 -3.261944 0
M  V30 27 F 3.281134 -5.156292 -3.817517 0
M  V30 28 C 2.248272 -4.059565 -2.109651 0
M  V30 29 C 1.110513 -3.622341 -1.447116 0
M  V30 30 C -0.991854 -1.131221 -1.685888 0
M  V30 31 C -1.010021 -0.801326 -0.225076 0
M  V30 32 H -1.364280 -3.338159 4.156551 0
M  V30 33 H -3.140311 -3.031129 4.449362 0
M  V30 34 H -2.617846 -3.926392 3.001645 0
M  V30 35 H 0.112635 -1.999841 4.229177 0
M  V30 36 H 1.816888 -0.330501 4.080388 0
M  V30 37 H 3.672841 4.124800 3.863178 0
M  V30 38 H 4.562986 5.223965 2.770306 0
M  V30 39 H 4.873485 3.416695 2.744500 0
M  V30 40 H 2.570992 5.953319 1.194950 0
M  V30 41 H 2.380319 4.624621 -0.010585 0
M  V30 42 H 4.093726 5.162764 0.477110 0
M  V30 43 H -0.660222 2.072784 1.502146 0
M  V30 44 H -3.090672 0.309678 -1.603859 0
M  V30 45 H -4.301955 -0.226791 -0.439335 0
M  V30 46 H -3.544208 -2.582335 -0.541290 0
M  V30 47 H -4.065967 -1.936158 -2.174010 0
M  V30 48 H -2.075173 -2.390800 -3.059485 0
M  V30 49 H -1.341004 -3.555698 -0.301678 0
M  V30 50 H -2.200783 -4.342728 -1.651372 0
M  V30 51 H -1.157253 -4.954453 -3.597388 0
M  V30 52 H 0.820839 -5.704241 -4.729844 0
M  V30 53 H 3.155330 -3.753783 -1.605421 0
M  V30 54 H 1.059237 -3.046569 -0.537113 0
M  V30 55 H -1.305391 -0.242786 -2.271817 0
M  V30 56 H 0.046511 -1.432392 -1.985487 0
M  V30 57 H -0.695469 -1.715223 0.334376 0
M  V30 58 H -0.234783 -0.014641 -0.048554 0
M  V30 END ATOM
M  V30 BEGIN BOND
M  V30 1 1 1 2
M  V30 2 1 2 3
M  V30 3 2 3 4
M  V30 4 1 4 5
M  V30 5 2 5 6
M  V30 6 1 6 7
M  V30 7 2 7 8
M  V30 8 1 7 9
M  V30 9 2 9 10
M  V30 10 1 9 11
M  V30 11 1 11 12
M  V30 12 1 11 13
M  V30 13 1 6 14
M  V30 14 2 14 15
M  V30 15 1 15 16
M  V30 16 2 16 17
M  V30 17 1 16 18
M  V30 18 1 18 19
M  V30 19 1 19 20
M  V30 20 1 20 21
M  V30 21 1 21 22
M  V30 22 1 22 23
M  V30 23 2 23 24
M  V30 24 1 24 25
M  V30 25 2 25 26
M  V30 26 1 26 27
M  V30 27 1 26 28
M  V30 28 2 28 29
M  V30 29 1 21 30
M  V30 30 1 30 31
M  V30 31 1 15 3
M  V30 32 1 31 18
M  V30 33 1 29 23
M  V30 34 1 1 32
M  V30 35 1 1 33
M  V30 36 1 1 34
M  V30 37 1 4 35
M  V30 38 1 5 36
M  V30 39 1 12 37
M  V30 40 1 12 38
M  V30 41 1 12 39
M  V30 42 1 13 40
M  V30 43 1 13 41
M  V30 44 1 13 42
M  V30 45 1 14 43
M  V30 46 1 19 44
M  V30 47 1 19 45
M  V30 48 1 20 46
M  V30 49 1 20 47
M  V30 50 1 21 48
M  V30 51 1 22 49
M  V30 52 1 22 50
M  V30 53 1 24 51
M  V30 54 1 25 52
M  V30 55 1 28 53
M  V30 56 1 29 54
M  V30 57 1 30 55
M  V30 58 1 30 56
M  V30 59 1 31 57
M  V30 60 1 31 58
M  V30 END BOND
M  V30 END CTAB
M  END
>  <Dataset>  (399) 
ChEMBL_Kinases

>  <Ligand_Instance>  (399) 
nan

>  <PDB_ID>  (399) 
nan

>  <Standardized_SMILES>  (399) 
COc1ccc(C(=O)C(=O)N(C)C)cc1C(=O)N1CCC(Cc2ccc(F)cc2)CC1

>  <Name>  (399) 
nan

>  <Pocket>  (399) 
nan

>  <ATP_Site>  (399) 
nan

>  <Peripheral>  (399) 
nan

>  <Num_H_Atoms_ProtBoundConf>  (399) 
nan

>  <Num_Resolved_Atoms>  (399) 
nan

>  <Num_Not_Resolved_Atoms>  (399) 
nan

$$$$
CHEMBL592709
     RDKit          3D

  0  0  0  0  0  0  0  0  0  0999 V3000
M  V30 BEGIN CTAB
M  V30 COUNTS 58 60 0 0 0
M  V30 BEGIN ATOM
M  V30 1 C -1.348135 4.159414 7.370612 0
M  V30 2 O -0.602187 4.897993 6.458770 0
M  V30 3 C 0.277467 4.352506 5.531616 0
M  V30 4 C 0.428788 2.981702 5.502423 0
M  V30 5 C 1.278604 2.358620 4.616651 0
M  V30 6 C 2.028112 3.068267 3.707218 0
M  V30 7 C 2.961672 2.570179 2.704811 0
M  V30 8 O 3.633138 3.354972 1.977876 0
M  V30 9 N 3.177804 1.186700 2.479133 0
M  V30 10 C 4.055109 0.518067 1.539517 0
M  V30 11 C 3.444327 0.608032 0.188256 0
M  V30 12 C 3.746699 1.630007 -0.710178 0
M  V30 13 C 3.184289 1.740082 -1.969789 0
M  V30 14 C 2.260663 0.767853 -2.357512 0
M  V30 15 C 1.914545 -0.271546 -1.518827 0
M  V30 16 C 0.939956 -1.239024 -1.999708 0
M  V30 17 O 0.481205 -1.098850 -3.139319 0
M  V30 18 N 0.528913 -2.317491 -1.172783 0
M  V30 19 C -0.398707 -3.363940 -1.432059 0
M  V30 20 C -1.679361 -2.964283 -1.026760 0
M  V30 21 C -2.743604 -3.858541 -1.200785 0
M  V30 22 C -2.580223 -5.124113 -1.758336 0
M  V30 23 C -3.717516 -6.028730 -1.926805 0
M  V30 24 N -4.378023 -5.882381 -3.208976 0
M  V30 25 C -3.475380 -6.157829 -4.310261 0
M  V30 26 C -4.991795 -4.581135 -3.379224 0
M  V30 27 C -1.298060 -5.458896 -2.136618 0
M  V30 28 C -0.219324 -4.614819 -1.986296 0
M  V30 29 C 2.530890 -0.287755 -0.291333 0
M  V30 30 C 1.843556 4.451433 3.771970 0
M  V30 31 C 1.005167 5.089956 4.643097 0
M  V30 32 Cl 0.845781 6.840222 4.638831 0
M  V30 33 H -1.640000 4.751326 8.274166 0
M  V30 34 H -0.725382 3.334601 7.766612 0
M  V30 35 H -2.237182 3.758394 6.823359 0
M  V30 36 H -0.091966 2.274747 6.155387 0
M  V30 37 H 1.410657 1.286077 4.578197 0
M  V30 38 H 2.588954 0.564203 3.110949 0
M  V30 39 H 4.197021 -0.523313 1.864788 0
M  V30 40 H 5.008437 1.091899 1.522205 0
M  V30 41 H 4.453354 2.390087 -0.443647 0
M  V30 42 H 3.446255 2.546757 -2.633151 0
M  V30 43 H 1.839340 0.891841 -3.362368 0
M  V30 44 H 0.891298 -2.472051 -0.206242 0
M  V30 45 H -1.970454 -2.038907 -0.587130 0
M  V30 46 H -3.760821 -3.601257 -0.903091 0
M  V30 47 H -3.453881 -7.090269 -1.822315 0
M  V30 48 H -4.469419 -5.771098 -1.142347 0
M  V30 49 H -4.110140 -6.474428 -5.172002 0
M  V30 50 H -2.923761 -5.268626 -4.643456 0
M  V30 51 H -2.847102 -7.037464 -4.078475 0
M  V30 52 H -5.721932 -4.682828 -4.220991 0
M  V30 53 H -5.468864 -4.193064 -2.478328 0
M  V30 54 H -4.203395 -3.876930 -3.771658 0
M  V30 55 H -1.076085 -6.416114 -2.575861 0
M  V30 56 H 0.811060 -4.792034 -2.251924 0
M  V30 57 H 2.269732 -1.102217 0.387526 0
M  V30 58 H 2.394514 5.086146 3.091850 0
M  V30 END ATOM
M  V30 BEGIN BOND
M  V30 1 1 1 2
M  V30 2 1 2 3
M  V30 3 2 3 4
M  V30 4 1 4 5
M  V30 5 2 5 6
M  V30 6 1 6 7
M  V30 7 2 7 8
M  V30 8 1 7 9
M  V30 9 1 9 10
M  V30 10 1 10 11
M  V30 11 2 11 12
M  V30 12 1 12 13
M  V30 13 2 13 14
M  V30 14 1 14 15
M  V30 15 1 15 16
M  V30 16 2 16 17
M  V30 17 1 16 18
M  V30 18 1 18 19
M  V30 19 2 19 20
M  V30 20 1 20 21
M  V30 21 2 21 22
M  V30 22 1 22 23
M  V30 23 1 23 24
M  V30 24 1 24 25
M  V30 25 1 24 26
M  V30 26 1 22 27
M  V30 27 2 27 28
M  V30 28 2 15 29
M  V30 29 1 6 30
M  V30 30 2 30 31
M  V30 31 1 31 32
M  V30 32 1 31 3
M  V30 33 1 29 11
M  V30 34 1 28 19
M  V30 35 1 1 33
M  V30 36 1 1 34
M  V30 37 1 1 35
M  V30 38 1 4 36
M  V30 39 1 5 37
M  V30 40 1 9 38
M  V30 41 1 10 39
M  V30 42 1 10 40
M  V30 43 1 12 41
M  V30 44 1 13 42
M  V30 45 1 14 43
M  V30 46 1 18 44
M  V30 47 1 20 45
M  V30 48 1 21 46
M  V30 49 1 23 47
M  V30 50 1 23 48
M  V30 51 1 25 49
M  V30 52 1 25 50
M  V30 53 1 25 51
M  V30 54 1 26 52
M  V30 55 1 26 53
M  V30 56 1 26 54
M  V30 57 1 27 55
M  V30 58 1 28 56
M  V30 59 1 29 57
M  V30 60 1 30 58
M  V30 END BOND
M  V30 END CTAB
M  END
>  <Dataset>  (400) 
ChEMBL_Kinases

>  <Ligand_Instance>  (400) 
nan

>  <PDB_ID>  (400) 
nan

>  <Standardized_SMILES>  (400) 
COc1ccc(C(=O)NCc2cccc(C(=O)Nc3ccc(CN(C)C)cc3)c2)cc1Cl

>  <Name>  (400) 
nan

>  <Pocket>  (400) 
nan

>  <ATP_Site>  (400) 
nan

>  <Peripheral>  (400) 
nan

>  <Num_H_Atoms_ProtBoundConf>  (400) 
nan

>  <Num_Resolved_Atoms>  (400) 
nan

>  <Num_Not_Resolved_Atoms>  (400) 
nan

$$$$
CHEMBL496982
     RDKit          3D

  0  0  0  0  0  0  0  0  0  0999 V3000
M  V30 BEGIN CTAB
M  V30 COUNTS 68 72 0 0 0
M  V30 BEGIN ATOM
M  V30 1 C 6.367289 -1.507233 2.235403 0
M  V30 2 C 5.775529 -2.696001 1.554721 0
M  V30 3 C 6.336845 -3.930816 2.277207 0
M  V30 4 C 6.247297 -2.812020 0.126983 0
M  V30 5 C 4.289259 -2.814024 1.654664 0
M  V30 6 C 3.512690 -1.674183 1.078354 0
M  V30 7 N 3.721364 -1.437614 -0.313013 0
M  V30 8 C 3.223740 -2.427842 -1.198454 0
M  V30 9 C 1.721796 -2.369424 -1.366624 0
M  V30 10 C 1.278933 -1.024102 -1.879082 0
M  V30 11 C 0.005615 -0.631278 -1.226919 0
M  V30 12 C -0.097364 -0.297439 0.121786 0
M  V30 13 C -1.296337 0.065708 0.716427 0
M  V30 14 N -2.421457 0.104990 -0.018137 0
M  V30 15 C -3.695562 0.420803 0.313139 0
M  V30 16 C -4.087977 0.809524 1.665839 0
M  V30 17 C -4.963041 0.153901 2.512028 0
M  V30 18 C -5.197927 0.691369 3.761823 0
M  V30 19 N -4.575739 1.830584 4.124437 0
M  V30 20 C -3.719575 2.483600 3.312008 0
M  V30 21 N -3.068285 3.686863 3.707238 0
M  V30 22 N -3.509140 1.935988 2.097407 0
M  V30 23 C -4.481750 0.303758 -0.818277 0
M  V30 24 C -5.924503 0.555387 -0.892966 0
M  V30 25 C -6.589511 -0.617368 -1.270137 0
M  V30 26 C -7.980967 -0.605072 -1.404248 0
M  V30 27 C -8.706834 0.551322 -1.168684 0
M  V30 28 F -10.065851 0.577510 -1.296065 0
M  V30 29 C -8.007188 1.676534 -0.800769 0
M  V30 30 C -6.633777 1.692752 -0.661094 0
M  V30 31 N -3.647111 -0.084161 -1.811127 0
M  V30 32 C -2.397650 -0.204501 -1.325443 0
M  V30 33 C -1.202192 -0.565385 -1.912061 0
M  V30 34 C 2.332325 0.015831 -1.788561 0
M  V30 35 C 3.364954 -0.135267 -0.741260 0
M  V30 36 H 6.896599 -0.867627 1.471244 0
M  V30 37 H 7.166879 -1.754575 2.979966 0
M  V30 38 H 5.626943 -0.879003 2.783038 0
M  V30 39 H 7.440163 -3.902685 2.304220 0
M  V30 40 H 6.025776 -4.868174 1.746505 0
M  V30 41 H 5.939307 -4.008137 3.309837 0
M  V30 42 H 7.369137 -2.935454 0.094869 0
M  V30 43 H 6.054585 -1.891399 -0.463076 0
M  V30 44 H 5.861616 -3.719381 -0.372056 0
M  V30 45 H 3.967961 -2.998203 2.711151 0
M  V30 46 H 4.001983 -3.740831 1.115455 0
M  V30 47 H 3.613598 -0.735380 1.656511 0
M  V30 48 H 2.427604 -1.977037 1.191329 0
M  V30 49 H 3.679151 -2.282541 -2.197341 0
M  V30 50 H 3.479506 -3.433845 -0.816826 0
M  V30 51 H 1.207294 -2.553194 -0.407888 0
M  V30 52 H 1.424370 -3.162203 -2.068231 0
M  V30 53 H 1.027885 -1.160121 -2.971655 0
M  V30 54 H 0.770310 -0.316904 0.732310 0
M  V30 55 H -1.306191 0.312380 1.770574 0
M  V30 56 H -5.392012 -0.748126 2.093429 0
M  V30 57 H -5.888518 0.147548 4.392369 0
M  V30 58 H -3.179830 4.417396 2.943991 0
M  V30 59 H -2.539745 3.931387 4.573087 0
M  V30 60 H -6.138990 -1.597320 -1.485959 0
M  V30 61 H -8.528775 -1.507613 -1.697515 0
M  V30 62 H -8.523684 2.604849 -0.605584 0
M  V30 63 H -6.015414 2.519470 -0.380372 0
M  V30 64 H -1.233707 -0.804776 -2.968380 0
M  V30 65 H 1.870538 1.044114 -1.684426 0
M  V30 66 H 2.880602 0.101375 -2.773352 0
M  V30 67 H 2.982264 0.419754 0.173556 0
M  V30 68 H 4.307679 0.442697 -0.982555 0
M  V30 END ATOM
M  V30 BEGIN BOND
M  V30 1 1 1 2
M  V30 2 1 2 3
M  V30 3 1 2 4
M  V30 4 1 2 5
M  V30 5 1 5 6
M  V30 6 1 6 7
M  V30 7 1 7 8
M  V30 8 1 8 9
M  V30 9 1 9 10
M  V30 10 1 10 11
M  V30 11 1 11 12
M  V30 12 2 12 13
M  V30 13 1 13 14
M  V30 14 1 14 15
M  V30 15 1 15 16
M  V30 16 2 16 17
M  V30 17 1 17 18
M  V30 18 2 18 19
M  V30 19 1 19 20
M  V30 20 1 20 21
M  V30 21 2 20 22
M  V30 22 2 15 23
M  V30 23 1 23 24
M  V30 24 2 24 25
M  V30 25 1 25 26
M  V30 26 2 26 27
M  V30 27 1 27 28
M  V30 28 1 27 29
M  V30 29 2 29 30
M  V30 30 1 23 31
M  V30 31 2 31 32
M  V30 32 1 32 33
M  V30 33 1 10 34
M  V30 34 1 34 35
M  V30 35 1 35 7
M  V30 36 2 33 11
M  V30 37 1 32 14
M  V30 38 1 22 16
M  V30 39 1 30 24
M  V30 40 1 1 36
M  V30 41 1 1 37
M  V30 42 1 1 38
M  V30 43 1 3 39
M  V30 44 1 3 40
M  V30 45 1 3 41
M  V30 46 1 4 42
M  V30 47 1 4 43
M  V30 48 1 4 44
M  V30 49 1 5 45
M  V30 50 1 5 46
M  V30 51 1 6 47
M  V30 52 1 6 48
M  V30 53 1 8 49
M  V30 54 1 8 50
M  V30 55 1 9 51
M  V30 56 1 9 52
M  V30 57 1 10 53
M  V30 58 1 12 54
M  V30 59 1 13 55
M  V30 60 1 17 56
M  V30 61 1 18 57
M  V30 62 1 21 58
M  V30 63 1 21 59
M  V30 64 1 25 60
M  V30 65 1 26 61
M  V30 66 1 29 62
M  V30 67 1 30 63
M  V30 68 1 33 64
M  V30 69 1 34 65
M  V30 70 1 34 66
M  V30 71 1 35 67
M  V30 72 1 35 68
M  V30 END BOND
M  V30 END CTAB
M  END
>  <Dataset>  (401) 
ChEMBL_Kinases

>  <Ligand_Instance>  (401) 
nan

>  <PDB_ID>  (401) 
nan

>  <Standardized_SMILES>  (401) 
CC(C)(C)CCN1CCC(c2ccn3c(-c4ccnc(N)n4)c(-c4ccc(F)cc4)nc3c2)CC1

>  <Name>  (401) 
nan

>  <Pocket>  (401) 
nan

>  <ATP_Site>  (401) 
nan

>  <Peripheral>  (401) 
nan

>  <Num_H_Atoms_ProtBoundConf>  (401) 
nan

>  <Num_Resolved_Atoms>  (401) 
nan

>  <Num_Not_Resolved_Atoms>  (401) 
nan

$$$$
CHEMBL3809225
     RDKit          3D

  0  0  0  0  0  0  0  0  0  0999 V3000
M  V30 BEGIN CTAB
M  V30 COUNTS 62 66 0 0 0
M  V30 BEGIN ATOM
M  V30 1 C 1.919958 -0.304546 5.936495 0
M  V30 2 O 0.710117 -0.186430 5.217285 0
M  V30 3 C 0.738919 0.279113 3.892566 0
M  V30 4 C 1.978863 0.608786 3.342512 0
M  V30 5 C 2.011504 1.067268 2.044577 0
M  V30 6 C 3.259142 1.458167 1.349869 0
M  V30 7 C 3.439364 1.303277 -0.029467 0
M  V30 8 N 4.663763 1.770640 -0.298894 0
M  V30 9 N 5.267520 2.202710 0.777454 0
M  V30 10 C 6.595605 2.779257 0.838865 0
M  V30 11 C 4.416941 2.022854 1.834062 0
M  V30 12 C 0.848686 1.194144 1.317885 0
M  V30 13 C -0.328268 0.845929 1.940648 0
M  V30 14 C -0.463755 0.376986 3.234502 0
M  V30 15 N -1.725275 0.021437 3.794288 0
M  V30 16 C -2.832484 0.209744 2.909211 0
M  V30 17 N -3.815569 1.113523 2.960555 0
M  V30 18 C -4.773284 1.190034 2.021704 0
M  V30 19 C -4.714935 0.279764 0.962848 0
M  V30 20 C -5.651648 0.306407 -0.049981 0
M  V30 21 C -5.467824 -0.645165 -1.058404 0
M  V30 22 N -4.479333 -1.549521 -1.106946 0
M  V30 23 C -3.564727 -1.577303 -0.117631 0
M  V30 24 N -2.492736 -2.506558 -0.086393 0
M  V30 25 C -2.201315 -3.498963 -1.066067 0
M  V30 26 C -1.925839 -2.926155 -2.434787 0
M  V30 27 C -1.616391 -4.032589 -3.371991 0
M  V30 28 C -0.174027 -4.320397 -3.575693 0
M  V30 29 C 0.809126 -3.695520 -2.669212 0
M  V30 30 C 0.366275 -2.566853 -1.821631 0
M  V30 31 C -0.832826 -1.905857 -2.461433 0
M  V30 32 C -3.696153 -0.645776 0.923863 0
M  V30 33 N -2.766476 -0.680393 1.886375 0
M  V30 34 H 2.649575 -0.951133 5.368321 0
M  V30 35 H 2.440006 0.684417 6.006292 0
M  V30 36 H 1.783465 -0.771038 6.920825 0
M  V30 37 H 2.900706 0.515109 3.897350 0
M  V30 38 H 2.683966 0.875556 -0.683692 0
M  V30 39 H 6.841620 3.066301 1.884254 0
M  V30 40 H 7.303643 2.054920 0.418689 0
M  V30 41 H 6.636610 3.675607 0.158923 0
M  V30 42 H 4.565051 2.255252 2.861759 0
M  V30 43 H 0.883257 1.556973 0.296872 0
M  V30 44 H -1.211350 0.977357 1.299773 0
M  V30 45 H -1.714556 -0.336723 4.778209 0
M  V30 46 H -5.554549 1.930747 2.090730 0
M  V30 47 H -6.444140 1.019075 -0.026560 0
M  V30 48 H -6.244197 -0.575525 -1.838384 0
M  V30 49 H -1.827677 -2.483035 0.730595 0
M  V30 50 H -1.434257 -4.205475 -0.766799 0
M  V30 51 H -3.147814 -4.105599 -1.188766 0
M  V30 52 H -2.863865 -2.417310 -2.785275 0
M  V30 53 H -2.096365 -4.970285 -2.960090 0
M  V30 54 H -2.148745 -3.880847 -4.341122 0
M  V30 55 H 0.081514 -3.992694 -4.628694 0
M  V30 56 H -0.000799 -5.436243 -3.631596 0
M  V30 57 H 1.762529 -3.385162 -3.200249 0
M  V30 58 H 1.187129 -4.505888 -1.974582 0
M  V30 59 H 0.137950 -2.915888 -0.791981 0
M  V30 60 H 1.201055 -1.837843 -1.710277 0
M  V30 61 H -0.572138 -1.719560 -3.522311 0
M  V30 62 H -1.101724 -0.931320 -2.015535 0
M  V30 END ATOM
M  V30 BEGIN BOND
M  V30 1 1 1 2
M  V30 2 1 2 3
M  V30 3 2 3 4
M  V30 4 1 4 5
M  V30 5 1 5 6
M  V30 6 1 6 7
M  V30 7 2 7 8
M  V30 8 1 8 9
M  V30 9 1 9 10
M  V30 10 1 9 11
M  V30 11 2 5 12
M  V30 12 1 12 13
M  V30 13 2 13 14
M  V30 14 1 14 15
M  V30 15 1 15 16
M  V30 16 2 16 17
M  V30 17 1 17 18
M  V30 18 2 18 19
M  V30 19 1 19 20
M  V30 20 2 20 21
M  V30 21 1 21 22
M  V30 22 2 22 23
M  V30 23 1 23 24
M  V30 24 1 24 25
M  V30 25 1 25 26
M  V30 26 1 26 27
M  V30 27 1 27 28
M  V30 28 1 28 29
M  V30 29 1 29 30
M  V30 30 1 30 31
M  V30 31 1 23 32
M  V30 32 2 32 33
M  V30 33 1 14 3
M  V30 34 1 33 16
M  V30 35 2 11 6
M  V30 36 1 32 19
M  V30 37 1 31 26
M  V30 38 1 1 34
M  V30 39 1 1 35
M  V30 40 1 1 36
M  V30 41 1 4 37
M  V30 42 1 7 38
M  V30 43 1 10 39
M  V30 44 1 10 40
M  V30 45 1 10 41
M  V30 46 1 11 42
M  V30 47 1 12 43
M  V30 48 1 13 44
M  V30 49 1 15 45
M  V30 50 1 18 46
M  V30 51 1 20 47
M  V30 52 1 21 48
M  V30 53 1 24 49
M  V30 54 1 25 50
M  V30 55 1 25 51
M  V30 56 1 26 52
M  V30 57 1 27 53
M  V30 58 1 27 54
M  V30 59 1 28 55
M  V30 60 1 28 56
M  V30 61 1 29 57
M  V30 62 1 29 58
M  V30 63 1 30 59
M  V30 64 1 30 60
M  V30 65 1 31 61
M  V30 66 1 31 62
M  V30 END BOND
M  V30 END CTAB
M  END
>  <Dataset>  (402) 
ChEMBL_Kinases

>  <Ligand_Instance>  (402) 
nan

>  <PDB_ID>  (402) 
nan

>  <Standardized_SMILES>  (402) 
COc1cc(-c2cnn(C)c2)ccc1Nc1ncc2ccnc(NCC3CCCCC3)c2n1

>  <Name>  (402) 
nan

>  <Pocket>  (402) 
nan

>  <ATP_Site>  (402) 
nan

>  <Peripheral>  (402) 
nan

>  <Num_H_Atoms_ProtBoundConf>  (402) 
nan

>  <Num_Resolved_Atoms>  (402) 
nan

>  <Num_Not_Resolved_Atoms>  (402) 
nan

$$$$
CHEMBL3809219
     RDKit          3D

  0  0  0  0  0  0  0  0  0  0999 V3000
M  V30 BEGIN CTAB
M  V30 COUNTS 53 57 0 0 0
M  V30 BEGIN ATOM
M  V30 1 C -2.838577 -3.456077 -3.925809 0
M  V30 2 O -1.720172 -3.130588 -3.120583 0
M  V30 3 C -1.825750 -2.361070 -1.967419 0
M  V30 4 C -3.003114 -1.831736 -1.475028 0
M  V30 5 C -2.985102 -1.076477 -0.310868 0
M  V30 6 C -4.228763 -0.503499 0.215960 0
M  V30 7 C -5.559127 -0.902265 0.206311 0
M  V30 8 N -6.254608 0.073386 0.860443 0
M  V30 9 N -5.444745 1.030129 1.263095 0
M  V30 10 C -5.832960 2.232189 1.990732 0
M  V30 11 C -4.184892 0.724271 0.892246 0
M  V30 12 C -1.781458 -0.873532 0.330399 0
M  V30 13 C -0.606152 -1.412211 -0.176397 0
M  V30 14 C -0.600327 -2.171913 -1.343171 0
M  V30 15 N 0.633983 -2.691812 -1.842435 0
M  V30 16 C 1.842453 -2.440864 -1.127505 0
M  V30 17 N 2.700431 -3.231335 -0.460781 0
M  V30 18 C 3.790877 -2.752196 0.162750 0
M  V30 19 C 4.041783 -1.407836 0.120429 0
M  V30 20 C 5.162736 -0.893664 0.758125 0
M  V30 21 C 5.397983 0.447362 0.706710 0
M  V30 22 N 4.560424 1.254534 0.050149 0
M  V30 23 C 3.454702 0.784608 -0.584493 0
M  V30 24 N 2.481610 1.535991 -1.309316 0
M  V30 25 C 2.135945 1.405582 -2.711732 0
M  V30 26 C 0.685063 1.838247 -2.728347 0
M  V30 27 C 0.664257 2.980810 -1.749134 0
M  V30 28 C 1.670756 2.571087 -0.697617 0
M  V30 29 C 3.147028 -0.585827 -0.574332 0
M  V30 30 N 2.074723 -1.115780 -1.179496 0
M  V30 31 H -3.543763 -4.153248 -3.456993 0
M  V30 32 H -3.382386 -2.547501 -4.266344 0
M  V30 33 H -2.411775 -3.949612 -4.839939 0
M  V30 34 H -3.912309 -2.030001 -2.028934 0
M  V30 35 H -5.831535 -1.829950 -0.266124 0
M  V30 36 H -6.169080 2.021338 3.009156 0
M  V30 37 H -6.648404 2.760706 1.406693 0
M  V30 38 H -4.967508 2.962457 1.952755 0
M  V30 39 H -3.321077 1.346135 1.100821 0
M  V30 40 H -1.818909 -0.279360 1.234901 0
M  V30 41 H 0.279627 -1.201681 0.390229 0
M  V30 42 H 0.627399 -3.251386 -2.730143 0
M  V30 43 H 4.409797 -3.472504 0.664209 0
M  V30 44 H 5.813007 -1.568233 1.274783 0
M  V30 45 H 6.266996 0.898934 1.193327 0
M  V30 46 H 2.173855 0.347319 -3.051789 0
M  V30 47 H 2.711623 2.076755 -3.358880 0
M  V30 48 H 0.382718 2.222820 -3.731365 0
M  V30 49 H 0.025233 1.023946 -2.382162 0
M  V30 50 H 0.940798 3.957698 -2.192439 0
M  V30 51 H -0.356702 3.035533 -1.269054 0
M  V30 52 H 2.357966 3.394463 -0.409148 0
M  V30 53 H 1.138198 2.191313 0.213964 0
M  V30 END ATOM
M  V30 BEGIN BOND
M  V30 1 1 1 2
M  V30 2 1 2 3
M  V30 3 2 3 4
M  V30 4 1 4 5
M  V30 5 1 5 6
M  V30 6 1 6 7
M  V30 7 2 7 8
M  V30 8 1 8 9
M  V30 9 1 9 10
M  V30 10 1 9 11
M  V30 11 2 5 12
M  V30 12 1 12 13
M  V30 13 2 13 14
M  V30 14 1 14 15
M  V30 15 1 15 16
M  V30 16 2 16 17
M  V30 17 1 17 18
M  V30 18 2 18 19
M  V30 19 1 19 20
M  V30 20 2 20 21
M  V30 21 1 21 22
M  V30 22 2 22 23
M  V30 23 1 23 24
M  V30 24 1 24 25
M  V30 25 1 25 26
M  V30 26 1 26 27
M  V30 27 1 27 28
M  V30 28 1 23 29
M  V30 29 2 29 30
M  V30 30 1 14 3
M  V30 31 1 30 16
M  V30 32 2 11 6
M  V30 33 1 29 19
M  V30 34 1 28 24
M  V30 35 1 1 31
M  V30 36 1 1 32
M  V30 37 1 1 33
M  V30 38 1 4 34
M  V30 39 1 7 35
M  V30 40 1 10 36
M  V30 41 1 10 37
M  V30 42 1 10 38
M  V30 43 1 11 39
M  V30 44 1 12 40
M  V30 45 1 13 41
M  V30 46 1 15 42
M  V30 47 1 18 43
M  V30 48 1 20 44
M  V30 49 1 21 45
M  V30 50 1 25 46
M  V30 51 1 25 47
M  V30 52 1 26 48
M  V30 53 1 26 49
M  V30 54 1 27 50
M  V30 55 1 27 51
M  V30 56 1 28 52
M  V30 57 1 28 53
M  V30 END BOND
M  V30 END CTAB
M  END
>  <Dataset>  (403) 
ChEMBL_Kinases

>  <Ligand_Instance>  (403) 
nan

>  <PDB_ID>  (403) 
nan

>  <Standardized_SMILES>  (403) 
COc1cc(-c2cnn(C)c2)ccc1Nc1ncc2ccnc(N3CCCC3)c2n1

>  <Name>  (403) 
nan

>  <Pocket>  (403) 
nan

>  <ATP_Site>  (403) 
nan

>  <Peripheral>  (403) 
nan

>  <Num_H_Atoms_ProtBoundConf>  (403) 
nan

>  <Num_Resolved_Atoms>  (403) 
nan

>  <Num_Not_Resolved_Atoms>  (403) 
nan

$$$$
CHEMBL3809210
     RDKit          3D

  0  0  0  0  0  0  0  0  0  0999 V3000
M  V30 BEGIN CTAB
M  V30 COUNTS 61 64 0 0 0
M  V30 BEGIN ATOM
M  V30 1 C 2.449316 0.157774 6.282096 0
M  V30 2 O 1.356184 0.055100 5.390925 0
M  V30 3 C 1.534107 -0.188692 4.057444 0
M  V30 4 C 2.810230 -0.339121 3.565208 0
M  V30 5 C 3.064403 -0.586466 2.233638 0
M  V30 6 C 4.413864 -0.749727 1.706338 0
M  V30 7 C 5.647920 -0.213638 2.052574 0
M  V30 8 N 6.590871 -0.703228 1.231711 0
M  V30 9 N 6.040570 -1.532178 0.364698 0
M  V30 10 C 6.688410 -2.284652 -0.703002 0
M  V30 11 C 4.706578 -1.582266 0.629314 0
M  V30 12 C 1.988766 -0.684241 1.375954 0
M  V30 13 C 0.724820 -0.529042 1.898634 0
M  V30 14 C 0.417097 -0.281277 3.217104 0
M  V30 15 N -0.898184 -0.131990 3.728619 0
M  V30 16 C -2.121946 -0.176698 3.037646 0
M  V30 17 N -3.264710 -0.040369 3.726549 0
M  V30 18 C -4.492957 -0.052309 3.249720 0
M  V30 19 C -4.624924 -0.222892 1.895513 0
M  V30 20 C -5.861542 -0.252569 1.319389 0
M  V30 21 C -6.007892 -0.430602 -0.057250 0
M  V30 22 N -4.894941 -0.569635 -0.782838 0
M  V30 23 C -3.675675 -0.541273 -0.222765 0
M  V30 24 N -2.532483 -0.694174 -1.080953 0
M  V30 25 C -2.708672 -0.880259 -2.518227 0 CFG=2
M  V30 26 C -3.485223 -2.120219 -2.853870 0
M  V30 27 C -1.342191 -0.946559 -3.160082 0
M  V30 28 C -0.650054 0.363085 -2.856885 0
M  V30 29 C -1.519835 -1.048678 -4.665940 0
M  V30 30 C -0.607878 -2.129403 -2.615019 0
M  V30 31 C -3.487406 -0.368440 1.132254 0
M  V30 32 N -2.285731 -0.341680 1.717728 0
M  V30 33 H 3.118169 -0.716225 6.243100 0
M  V30 34 H 3.062539 1.061289 6.075869 0
M  V30 35 H 2.027183 0.219168 7.309644 0
M  V30 36 H 3.652951 -0.262561 4.237202 0
M  V30 37 H 5.723090 0.485173 2.875869 0
M  V30 38 H 5.921566 -2.682775 -1.397382 0
M  V30 39 H 7.149843 -3.192549 -0.218159 0
M  V30 40 H 7.496073 -1.728855 -1.203133 0
M  V30 41 H 3.969538 -2.181671 0.084695 0
M  V30 42 H 2.182514 -0.877838 0.335879 0
M  V30 43 H -0.051700 -0.622237 1.166223 0
M  V30 44 H -0.928205 0.032619 4.762778 0
M  V30 45 H -5.328448 0.068188 3.918572 0
M  V30 46 H -6.745233 -0.140095 1.904715 0
M  V30 47 H -6.960029 -0.460014 -0.558494 0
M  V30 48 H -1.574805 -0.670942 -0.669183 0
M  V30 49 H -3.273148 -0.026551 -2.955789 0
M  V30 50 H -4.116243 -2.481591 -2.033938 0
M  V30 51 H -4.099042 -2.004432 -3.772574 0
M  V30 52 H -2.763795 -2.949162 -3.094074 0
M  V30 53 H -0.111196 0.262206 -1.904744 0
M  V30 54 H -1.409847 1.168654 -2.715476 0
M  V30 55 H 0.027319 0.693949 -3.642843 0
M  V30 56 H -0.545857 -0.953677 -5.181374 0
M  V30 57 H -1.915637 -2.052651 -4.948419 0
M  V30 58 H -2.264573 -0.321934 -5.035763 0
M  V30 59 H 0.437170 -1.812341 -2.358772 0
M  V30 60 H -0.608799 -2.921384 -3.392650 0
M  V30 61 H -1.070108 -2.546058 -1.692571 0
M  V30 END ATOM
M  V30 BEGIN BOND
M  V30 1 1 1 2
M  V30 2 1 2 3
M  V30 3 2 3 4
M  V30 4 1 4 5
M  V30 5 1 5 6
M  V30 6 1 6 7
M  V30 7 2 7 8
M  V30 8 1 8 9
M  V30 9 1 9 10
M  V30 10 1 9 11
M  V30 11 2 5 12
M  V30 12 1 12 13
M  V30 13 2 13 14
M  V30 14 1 14 15
M  V30 15 1 15 16
M  V30 16 2 16 17
M  V30 17 1 17 18
M  V30 18 2 18 19
M  V30 19 1 19 20
M  V30 20 2 20 21
M  V30 21 1 21 22
M  V30 22 2 22 23
M  V30 23 1 23 24
M  V30 24 1 24 25
M  V30 25 1 25 26
M  V30 26 1 25 27
M  V30 27 1 27 28
M  V30 28 1 27 29
M  V30 29 1 27 30
M  V30 30 1 23 31
M  V30 31 2 31 32
M  V30 32 1 14 3
M  V30 33 1 32 16
M  V30 34 2 11 6
M  V30 35 1 31 19
M  V30 36 1 1 33
M  V30 37 1 1 34
M  V30 38 1 1 35
M  V30 39 1 4 36
M  V30 40 1 7 37
M  V30 41 1 10 38
M  V30 42 1 10 39
M  V30 43 1 10 40
M  V30 44 1 11 41
M  V30 45 1 12 42
M  V30 46 1 13 43
M  V30 47 1 15 44
M  V30 48 1 18 45
M  V30 49 1 20 46
M  V30 50 1 21 47
M  V30 51 1 24 48
M  V30 52 1 25 49 CFG=3
M  V30 53 1 26 50
M  V30 54 1 26 51
M  V30 55 1 26 52
M  V30 56 1 28 53
M  V30 57 1 28 54
M  V30 58 1 28 55
M  V30 59 1 29 56
M  V30 60 1 29 57
M  V30 61 1 29 58
M  V30 62 1 30 59
M  V30 63 1 30 60
M  V30 64 1 30 61
M  V30 END BOND
M  V30 END CTAB
M  END
>  <Dataset>  (404) 
ChEMBL_Kinases

>  <Ligand_Instance>  (404) 
nan

>  <PDB_ID>  (404) 
nan

>  <Standardized_SMILES>  (404) 
COc1cc(-c2cnn(C)c2)ccc1Nc1ncc2ccnc(N[C@H](C)C(C)(C)C)c2n1

>  <Name>  (404) 
nan

>  <Pocket>  (404) 
nan

>  <ATP_Site>  (404) 
nan

>  <Peripheral>  (404) 
nan

>  <Num_H_Atoms_ProtBoundConf>  (404) 
nan

>  <Num_Resolved_Atoms>  (404) 
nan

>  <Num_Not_Resolved_Atoms>  (404) 
nan

$$$$
CHEMBL3809186
     RDKit          3D

  0  0  0  0  0  0  0  0  0  0999 V3000
M  V30 BEGIN CTAB
M  V30 COUNTS 51 55 0 0 0
M  V30 BEGIN ATOM
M  V30 1 C 2.033307 -3.286893 4.590869 0
M  V30 2 O 1.550239 -2.200314 3.891127 0
M  V30 3 C 1.838103 -1.769616 2.654202 0
M  V30 4 C 2.660753 -2.147894 1.595023 0
M  V30 5 C 2.737359 -1.476153 0.401548 0
M  V30 6 C 3.657854 -2.006754 -0.606639 0
M  V30 7 C 4.861406 -2.661500 -0.477949 0
M  V30 8 N 5.215814 -2.897131 -1.750637 0
M  V30 9 N 4.334941 -2.443146 -2.604376 0
M  V30 10 C 4.517999 -2.589091 -4.029130 0
M  V30 11 C 3.300161 -1.855515 -1.932509 0
M  V30 12 C 1.974809 -0.348714 0.181028 0
M  V30 13 C 1.140522 0.080383 1.184927 0
M  V30 14 C 1.075760 -0.617696 2.393063 0
M  V30 15 N 0.111554 -0.009998 3.283876 0
M  V30 16 C -0.673611 1.164739 2.974711 0
M  V30 17 N -0.575130 2.455227 3.432629 0
M  V30 18 C -1.462465 3.367641 2.931750 0
M  V30 19 C -2.405673 2.989491 2.009622 0
M  V30 20 C -3.271694 3.971484 1.546486 0
M  V30 21 C -4.236697 3.583872 0.600123 0
M  V30 22 N -4.272496 2.310136 0.201235 0
M  V30 23 C -3.452246 1.345674 0.630185 0
M  V30 24 C -3.484014 -0.059511 0.188771 0
M  V30 25 C -3.634272 -0.194026 -1.198867 0
M  V30 26 C -3.656692 -1.494223 -1.673359 0
M  V30 27 C -3.543992 -2.642908 -0.895428 0
M  V30 28 C -3.402269 -2.375752 0.441888 0
M  V30 29 C -3.366511 -1.125984 1.027335 0
M  V30 30 C -2.471674 1.689722 1.577412 0
M  V30 31 N -1.592043 0.764570 2.068770 0
M  V30 32 H 1.184134 -3.843242 5.106606 0
M  V30 33 H 2.514378 -4.059913 3.962899 0
M  V30 34 H 2.801067 -2.994575 5.360425 0
M  V30 35 H 3.208134 -3.048847 1.898810 0
M  V30 36 H 5.337651 -2.889201 0.466427 0
M  V30 37 H 5.083480 -1.744812 -4.459300 0
M  V30 38 H 5.065161 -3.531595 -4.266569 0
M  V30 39 H 3.526524 -2.616759 -4.561203 0
M  V30 40 H 2.490244 -1.431380 -2.474064 0
M  V30 41 H 2.108081 0.105321 -0.788605 0
M  V30 42 H 0.585374 0.961072 0.934159 0
M  V30 43 H -0.092621 -0.378372 4.238483 0
M  V30 44 H -1.311986 4.333846 3.342936 0
M  V30 45 H -3.189348 4.990938 1.913286 0
M  V30 46 H -4.935816 4.327668 0.213177 0
M  V30 47 H -3.734321 0.623629 -1.925712 0
M  V30 48 H -3.774033 -1.625725 -2.755197 0
M  V30 49 H -3.566777 -3.639404 -1.306567 0
M  V30 50 H -3.306846 -3.228595 1.104430 0
M  V30 51 H -3.253879 -0.956881 2.082550 0
M  V30 END ATOM
M  V30 BEGIN BOND
M  V30 1 1 1 2
M  V30 2 1 2 3
M  V30 3 2 3 4
M  V30 4 1 4 5
M  V30 5 1 5 6
M  V30 6 1 6 7
M  V30 7 2 7 8
M  V30 8 1 8 9
M  V30 9 1 9 10
M  V30 10 1 9 11
M  V30 11 2 5 12
M  V30 12 1 12 13
M  V30 13 2 13 14
M  V30 14 1 14 15
M  V30 15 1 15 16
M  V30 16 2 16 17
M  V30 17 1 17 18
M  V30 18 2 18 19
M  V30 19 1 19 20
M  V30 20 2 20 21
M  V30 21 1 21 22
M  V30 22 2 22 23
M  V30 23 1 23 24
M  V30 24 2 24 25
M  V30 25 1 25 26
M  V30 26 2 26 27
M  V30 27 1 27 28
M  V30 28 2 28 29
M  V30 29 1 23 30
M  V30 30 2 30 31
M  V30 31 1 14 3
M  V30 32 1 31 16
M  V30 33 2 11 6
M  V30 34 1 30 19
M  V30 35 1 29 24
M  V30 36 1 1 32
M  V30 37 1 1 33
M  V30 38 1 1 34
M  V30 39 1 4 35
M  V30 40 1 7 36
M  V30 41 1 10 37
M  V30 42 1 10 38
M  V30 43 1 10 39
M  V30 44 1 11 40
M  V30 45 1 12 41
M  V30 46 1 13 42
M  V30 47 1 15 43
M  V30 48 1 18 44
M  V30 49 1 20 45
M  V30 50 1 21 46
M  V30 51 1 25 47
M  V30 52 1 26 48
M  V30 53 1 27 49
M  V30 54 1 28 50
M  V30 55 1 29 51
M  V30 END BOND
M  V30 END CTAB
M  END
>  <Dataset>  (405) 
ChEMBL_Kinases

>  <Ligand_Instance>  (405) 
nan

>  <PDB_ID>  (405) 
nan

>  <Standardized_SMILES>  (405) 
COc1cc(-c2cnn(C)c2)ccc1Nc1ncc2ccnc(-c3ccccc3)c2n1

>  <Name>  (405) 
nan

>  <Pocket>  (405) 
nan

>  <ATP_Site>  (405) 
nan

>  <Peripheral>  (405) 
nan

>  <Num_H_Atoms_ProtBoundConf>  (405) 
nan

>  <Num_Resolved_Atoms>  (405) 
nan

>  <Num_Not_Resolved_Atoms>  (405) 
nan

$$$$
CHEMBL380916
     RDKit          3D

  0  0  0  0  0  0  0  0  0  0999 V3000
M  V30 BEGIN CTAB
M  V30 COUNTS 51 55 0 0 0
M  V30 BEGIN ATOM
M  V30 1 O -2.148988 -4.729314 2.268418 0
M  V30 2 C -1.612022 -4.573090 1.144886 0
M  V30 3 C -0.733655 -3.444963 1.223944 0
M  V30 4 C -0.956234 -2.339284 0.430850 0
M  V30 5 C -0.132309 -1.233414 0.480244 0
M  V30 6 C 0.957164 -1.169277 1.321549 0
M  V30 7 C 1.881250 -0.049838 1.446385 0
M  V30 8 C 1.667156 1.061619 0.661950 0
M  V30 9 C 2.511091 2.136817 0.751182 0
M  V30 10 C 2.522014 3.415228 0.058426 0
M  V30 11 C 3.403426 4.025645 -0.804935 0
M  V30 12 N 2.921843 5.235360 -1.155674 0
M  V30 13 N 1.758739 5.408961 -0.538341 0
M  V30 14 C 1.487001 4.309709 0.213333 0
M  V30 15 C 0.233465 4.354654 0.949794 0
M  V30 16 C -0.891778 3.583348 0.773845 0
M  V30 17 C -2.031792 3.706914 1.536033 0
M  V30 18 C -2.084216 4.654031 2.549055 0
M  V30 19 C -0.939295 5.409847 2.697755 0
M  V30 20 N 0.171118 5.281276 1.946950 0
M  V30 21 C 3.582495 2.075539 1.648853 0
M  V30 22 C 3.780924 0.935906 2.435628 0
M  V30 23 N 2.917986 -0.087584 2.302946 0
M  V30 24 C 1.167388 -2.283800 2.109602 0
M  V30 25 C 0.353493 -3.398434 2.073424 0
M  V30 26 N -1.946877 -5.468921 0.090955 0
M  V30 27 C -2.897720 -6.539119 0.334101 0
M  V30 28 C -2.405495 -7.580130 -0.651595 0
M  V30 29 C -1.835289 -6.787364 -1.793692 0
M  V30 30 C -1.422522 -5.433203 -1.260972 0
M  V30 31 H -1.788254 -2.291592 -0.265121 0
M  V30 32 H -0.332808 -0.388934 -0.149925 0
M  V30 33 H 0.893098 1.213265 -0.049441 0
M  V30 34 H 4.323631 3.515549 -1.094732 0
M  V30 35 H 3.474226 5.841848 -1.815574 0
M  V30 36 H -0.826476 2.857834 -0.020552 0
M  V30 37 H -2.874829 3.061042 1.334950 0
M  V30 38 H -2.951694 4.793165 3.175982 0
M  V30 39 H -0.961375 6.162584 3.490879 0
M  V30 40 H 4.334027 2.827444 1.840378 0
M  V30 41 H 4.593441 0.833654 3.146553 0
M  V30 42 H 2.004303 -2.292007 2.787437 0
M  V30 43 H 0.535546 -4.262193 2.698984 0
M  V30 44 H -2.869055 -6.896738 1.368833 0
M  V30 45 H -3.908485 -6.237432 -0.002141 0
M  V30 46 H -3.217902 -8.260073 -0.974974 0
M  V30 47 H -1.627877 -8.178482 -0.099512 0
M  V30 48 H -2.611750 -6.715325 -2.595186 0
M  V30 49 H -0.914482 -7.283388 -2.175511 0
M  V30 50 H -0.328900 -5.277276 -1.307771 0
M  V30 51 H -1.975044 -4.626773 -1.813796 0
M  V30 END ATOM
M  V30 BEGIN BOND
M  V30 1 2 1 2
M  V30 2 1 2 3
M  V30 3 2 3 4
M  V30 4 1 4 5
M  V30 5 2 5 6
M  V30 6 1 6 7
M  V30 7 2 7 8
M  V30 8 1 8 9
M  V30 9 1 9 10
M  V30 10 2 10 11
M  V30 11 1 11 12
M  V30 12 1 12 13
M  V30 13 2 13 14
M  V30 14 1 14 15
M  V30 15 2 15 16
M  V30 16 1 16 17
M  V30 17 2 17 18
M  V30 18 1 18 19
M  V30 19 2 19 20
M  V30 20 2 9 21
M  V30 21 1 21 22
M  V30 22 2 22 23
M  V30 23 1 6 24
M  V30 24 2 24 25
M  V30 25 1 2 26
M  V30 26 1 26 27
M  V30 27 1 27 28
M  V30 28 1 28 29
M  V30 29 1 29 30
M  V30 30 1 25 3
M  V30 31 1 30 26
M  V30 32 1 23 7
M  V30 33 1 14 10
M  V30 34 1 20 15
M  V30 35 1 4 31
M  V30 36 1 5 32
M  V30 37 1 8 33
M  V30 38 1 11 34
M  V30 39 1 12 35
M  V30 40 1 16 36
M  V30 41 1 17 37
M  V30 42 1 18 38
M  V30 43 1 19 39
M  V30 44 1 21 40
M  V30 45 1 22 41
M  V30 46 1 24 42
M  V30 47 1 25 43
M  V30 48 1 27 44
M  V30 49 1 27 45
M  V30 50 1 28 46
M  V30 51 1 28 47
M  V30 52 1 29 48
M  V30 53 1 29 49
M  V30 54 1 30 50
M  V30 55 1 30 51
M  V30 END BOND
M  V30 END CTAB
M  END
>  <Dataset>  (406) 
ChEMBL_Kinases

>  <Ligand_Instance>  (406) 
nan

>  <PDB_ID>  (406) 
nan

>  <Standardized_SMILES>  (406) 
O=C(c1ccc(-c2cc(-c3c[nH]nc3-c3ccccn3)ccn2)cc1)N1CCCC1

>  <Name>  (406) 
nan

>  <Pocket>  (406) 
nan

>  <ATP_Site>  (406) 
nan

>  <Peripheral>  (406) 
nan

>  <Num_H_Atoms_ProtBoundConf>  (406) 
nan

>  <Num_Resolved_Atoms>  (406) 
nan

>  <Num_Not_Resolved_Atoms>  (406) 
nan

$$$$
CHEMBL496861
     RDKit          3D

  0  0  0  0  0  0  0  0  0  0999 V3000
M  V30 BEGIN CTAB
M  V30 COUNTS 68 72 0 0 0
M  V30 BEGIN ATOM
M  V30 1 C 4.797331 0.010389 4.333153 0
M  V30 2 N 6.044544 0.220988 3.595006 0
M  V30 3 C 7.278919 0.127938 4.352065 0
M  V30 4 C 5.980665 0.518650 2.195308 0
M  V30 5 O 7.118823 0.669700 1.639187 0
M  V30 6 C 4.671153 0.626175 1.533946 0
M  V30 7 C 3.936382 -0.344623 0.789978 0
M  V30 8 C 2.752518 0.190525 0.370500 0
M  V30 9 C 2.225953 1.419701 0.553698 0
M  V30 10 C 2.977451 2.278447 1.269483 0
M  V30 11 C 4.225623 1.944156 1.793322 0
M  V30 12 N 2.129661 3.449248 1.325005 0
M  V30 13 C 0.899748 3.258123 0.641304 0
M  V30 14 O 0.083073 4.206882 0.620522 0
M  V30 15 C 0.937932 1.866423 0.096684 0
M  V30 16 C -0.015353 1.445575 -0.689163 0
M  V30 17 N -1.212387 2.207471 -0.878039 0
M  V30 18 C -2.280437 1.325432 -0.537378 0
M  V30 19 C -3.038850 0.905955 -1.602297 0
M  V30 20 C -4.077881 -0.005122 -1.327360 0
M  V30 21 C -4.230751 -0.390054 -0.013456 0
M  V30 22 C -5.328697 -1.401480 0.197648 0
M  V30 23 N -4.782562 -2.730297 -0.010685 0
M  V30 24 C -5.737048 -3.793719 0.151047 0
M  V30 25 C -5.285549 -4.934781 -0.778159 0
M  V30 26 C -3.784642 -4.848073 -0.870188 0
M  V30 27 C -3.243347 -4.480188 0.516878 0
M  V30 28 C -3.612217 -3.014181 0.760008 0
M  V30 29 C -3.469176 0.032468 1.054224 0
M  V30 30 C -2.437405 0.937452 0.796593 0
M  V30 31 C 0.246916 0.262824 -1.457980 0
M  V30 32 C 1.314832 0.435612 -2.370814 0
M  V30 33 C 1.721215 -0.591521 -3.193512 0
M  V30 34 C 1.099158 -1.830536 -3.157260 0
M  V30 35 C 0.066078 -1.983551 -2.269188 0
M  V30 36 C -0.353671 -0.968230 -1.439535 0
M  V30 37 H 4.998304 -0.260088 5.379839 0
M  V30 38 H 4.235185 -0.862520 3.892964 0
M  V30 39 H 4.160787 0.897857 4.342095 0
M  V30 40 H 7.265062 -0.729449 5.043274 0
M  V30 41 H 7.370095 1.063563 4.974378 0
M  V30 42 H 8.182213 0.108618 3.725551 0
M  V30 43 H 4.476832 -1.248120 0.734395 0
M  V30 44 H 2.263437 -0.630606 -0.138651 0
M  V30 45 H 4.703986 2.731314 2.337886 0
M  V30 46 H 2.460045 4.329622 1.843277 0
M  V30 47 H -0.931589 3.141085 -1.197710 0
M  V30 48 H -2.900350 1.218844 -2.618431 0
M  V30 49 H -4.700322 -0.359057 -2.125344 0
M  V30 50 H -5.609695 -1.332537 1.259821 0
M  V30 51 H -6.145210 -1.231048 -0.494614 0
M  V30 52 H -5.797007 -4.155936 1.189495 0
M  V30 53 H -6.745159 -3.447170 -0.131306 0
M  V30 54 H -5.592326 -5.922406 -0.382955 0
M  V30 55 H -5.800003 -4.756346 -1.749448 0
M  V30 56 H -3.305895 -5.797657 -1.165312 0
M  V30 57 H -3.449796 -4.049721 -1.562606 0
M  V30 58 H -2.156051 -4.594678 0.487235 0
M  V30 59 H -3.692457 -5.163014 1.247762 0
M  V30 60 H -3.838976 -2.890700 1.834079 0
M  V30 61 H -2.738933 -2.370962 0.485697 0
M  V30 62 H -3.626794 -0.296276 2.061343 0
M  V30 63 H -1.778516 1.346166 1.517399 0
M  V30 64 H 1.940756 1.313251 -2.573511 0
M  V30 65 H 2.529456 -0.557456 -3.937270 0
M  V30 66 H 1.383467 -2.667917 -3.779554 0
M  V30 67 H -0.448887 -2.948199 -2.211752 0
M  V30 68 H -1.146878 -1.083094 -0.743808 0
M  V30 END ATOM
M  V30 BEGIN BOND
M  V30 1 1 1 2
M  V30 2 1 2 3
M  V30 3 1 2 4
M  V30 4 2 4 5
M  V30 5 1 4 6
M  V30 6 2 6 7
M  V30 7 1 7 8
M  V30 8 2 8 9
M  V30 9 1 9 10
M  V30 10 2 10 11
M  V30 11 1 10 12
M  V30 12 1 12 13
M  V30 13 2 13 14
M  V30 14 1 13 15
M  V30 15 2 15 16
M  V30 16 1 16 17
M  V30 17 1 17 18
M  V30 18 2 18 19
M  V30 19 1 19 20
M  V30 20 2 20 21
M  V30 21 1 21 22
M  V30 22 1 22 23
M  V30 23 1 23 24
M  V30 24 1 24 25
M  V30 25 1 25 26
M  V30 26 1 26 27
M  V30 27 1 27 28
M  V30 28 1 21 29
M  V30 29 2 29 30
M  V30 30 1 16 31
M  V30 31 2 31 32
M  V30 32 1 32 33
M  V30 33 2 33 34
M  V30 34 1 34 35
M  V30 35 2 35 36
M  V30 36 1 11 6
M  V30 37 1 30 18
M  V30 38 1 36 31
M  V30 39 1 15 9
M  V30 40 1 28 23
M  V30 41 1 1 37
M  V30 42 1 1 38
M  V30 43 1 1 39
M  V30 44 1 3 40
M  V30 45 1 3 41
M  V30 46 1 3 42
M  V30 47 1 7 43
M  V30 48 1 8 44
M  V30 49 1 11 45
M  V30 50 1 12 46
M  V30 51 1 17 47
M  V30 52 1 19 48
M  V30 53 1 20 49
M  V30 54 1 22 50
M  V30 55 1 22 51
M  V30 56 1 24 52
M  V30 57 1 24 53
M  V30 58 1 25 54
M  V30 59 1 25 55
M  V30 60 1 26 56
M  V30 61 1 26 57
M  V30 62 1 27 58
M  V30 63 1 27 59
M  V30 64 1 28 60
M  V30 65 1 28 61
M  V30 66 1 29 62
M  V30 67 1 30 63
M  V30 68 1 32 64
M  V30 69 1 33 65
M  V30 70 1 34 66
M  V30 71 1 35 67
M  V30 72 1 36 68
M  V30 END BOND
M  V30 END CTAB
M  END
>  <Dataset>  (407) 
ChEMBL_Kinases

>  <Ligand_Instance>  (407) 
nan

>  <PDB_ID>  (407) 
nan

>  <Standardized_SMILES>  (407) 
CN(C)C(=O)c1ccc2c(c1)NC(=O)/C2=C(\Nc1ccc(CN2CCCCC2)cc1)c1ccccc1

>  <Name>  (407) 
nan

>  <Pocket>  (407) 
nan

>  <ATP_Site>  (407) 
nan

>  <Peripheral>  (407) 
nan

>  <Num_H_Atoms_ProtBoundConf>  (407) 
nan

>  <Num_Resolved_Atoms>  (407) 
nan

>  <Num_Not_Resolved_Atoms>  (407) 
nan

$$$$
CHEMBL496862
     RDKit          3D

  0  0  0  0  0  0  0  0  0  0999 V3000
M  V30 BEGIN CTAB
M  V30 COUNTS 71 75 0 0 0
M  V30 BEGIN ATOM
M  V30 1 C 6.204948 -1.388309 5.528086 0
M  V30 2 C 6.456929 -0.492020 4.327432 0
M  V30 3 N 5.303969 -0.430483 3.460598 0
M  V30 4 C 5.279400 -1.477173 2.434998 0
M  V30 5 C 4.355980 0.578014 3.680806 0
M  V30 6 O 4.852998 1.167643 4.667709 0
M  V30 7 C 3.127276 0.897811 2.992049 0
M  V30 8 C 3.104139 0.830249 1.585112 0
M  V30 9 C 1.897680 1.164351 0.946292 0
M  V30 10 C 0.817006 1.540293 1.807880 0
M  V30 11 C 0.804785 1.615382 3.156164 0
M  V30 12 C 2.024437 1.271892 3.705710 0
M  V30 13 N -0.513177 2.041466 3.427129 0
M  V30 14 C -1.197155 2.187080 2.144052 0
M  V30 15 O -2.385885 2.579708 2.513729 0
M  V30 16 C -0.267926 1.831766 0.916494 0
M  V30 17 C -1.125209 2.055961 0.032459 0
M  V30 18 N -2.437740 2.430308 -0.283231 0
M  V30 19 C -3.152804 1.282404 -0.709193 0
M  V30 20 C -3.286216 1.049149 -2.054494 0
M  V30 21 C -3.952561 -0.064706 -2.535510 0
M  V30 22 C -4.493975 -0.955752 -1.599069 0
M  V30 23 C -5.235932 -2.207102 -1.954093 0
M  V30 24 N -4.438023 -3.363521 -2.076224 0
M  V30 25 C -5.065293 -4.599023 -2.336331 0
M  V30 26 C -4.134536 -5.762446 -2.480755 0
M  V30 27 C -3.116833 -5.844798 -1.377063 0
M  V30 28 C -2.745261 -4.541025 -0.757752 0
M  V30 29 C -3.102162 -3.350569 -1.637722 0
M  V30 30 C -4.373318 -0.740823 -0.219820 0
M  V30 31 C -3.696260 0.387689 0.190771 0
M  V30 32 C -0.248237 1.850145 -1.155083 0
M  V30 33 C -0.123851 0.741562 -1.940895 0
M  V30 34 C 0.673136 0.734010 -3.054060 0
M  V30 35 C 1.398172 1.892691 -3.424469 0
M  V30 36 C 1.318713 3.060886 -2.668615 0
M  V30 37 C 0.479395 2.955120 -1.557165 0
M  V30 38 H 5.188792 -1.183028 5.899832 0
M  V30 39 H 6.338046 -2.456304 5.273292 0
M  V30 40 H 6.979606 -1.078070 6.282906 0
M  V30 41 H 6.735457 0.532923 4.705432 0
M  V30 42 H 7.362455 -0.847807 3.785697 0
M  V30 43 H 5.951842 -1.249034 1.601794 0
M  V30 44 H 5.672736 -2.437578 2.871614 0
M  V30 45 H 4.234216 -1.647980 2.170468 0
M  V30 46 H 4.018220 0.524168 1.100676 0
M  V30 47 H 2.001955 1.074117 -0.120376 0
M  V30 48 H 2.029581 1.332223 4.800905 0
M  V30 49 H -0.638930 2.134091 4.467053 0
M  V30 50 H -2.579755 3.448005 -0.127545 0
M  V30 51 H -2.923074 1.662192 -2.877081 0
M  V30 52 H -4.140972 -0.392740 -3.544032 0
M  V30 53 H -6.044337 -2.380479 -1.190199 0
M  V30 54 H -5.706904 -2.012989 -2.948656 0
M  V30 55 H -5.746193 -4.614298 -3.224656 0
M  V30 56 H -5.724678 -4.845739 -1.449028 0
M  V30 57 H -3.671432 -5.837345 -3.486147 0
M  V30 58 H -4.793970 -6.677804 -2.410015 0
M  V30 59 H -2.235099 -6.407109 -1.769488 0
M  V30 60 H -3.541174 -6.509177 -0.559636 0
M  V30 61 H -3.203236 -4.413361 0.266008 0
M  V30 62 H -1.641335 -4.529388 -0.641714 0
M  V30 63 H -2.839429 -2.453335 -1.063196 0
M  V30 64 H -2.429437 -3.451975 -2.540945 0
M  V30 65 H -4.786239 -1.420795 0.510350 0
M  V30 66 H -3.614624 0.535011 1.233769 0
M  V30 67 H -0.690549 -0.117841 -1.618725 0
M  V30 68 H 0.768192 -0.142661 -3.672741 0
M  V30 69 H 2.040181 1.952920 -4.290856 0
M  V30 70 H 1.835910 3.967400 -2.894086 0
M  V30 71 H 0.424840 3.886530 -0.966999 0
M  V30 END ATOM
M  V30 BEGIN BOND
M  V30 1 1 1 2
M  V30 2 1 2 3
M  V30 3 1 3 4
M  V30 4 1 3 5
M  V30 5 2 5 6
M  V30 6 1 5 7
M  V30 7 2 7 8
M  V30 8 1 8 9
M  V30 9 2 9 10
M  V30 10 1 10 11
M  V30 11 2 11 12
M  V30 12 1 11 13
M  V30 13 1 13 14
M  V30 14 2 14 15
M  V30 15 1 14 16
M  V30 16 2 16 17
M  V30 17 1 17 18
M  V30 18 1 18 19
M  V30 19 2 19 20
M  V30 20 1 20 21
M  V30 21 2 21 22
M  V30 22 1 22 23
M  V30 23 1 23 24
M  V30 24 1 24 25
M  V30 25 1 25 26
M  V30 26 1 26 27
M  V30 27 1 27 28
M  V30 28 1 28 29
M  V30 29 1 22 30
M  V30 30 2 30 31
M  V30 31 1 17 32
M  V30 32 2 32 33
M  V30 33 1 33 34
M  V30 34 2 34 35
M  V30 35 1 35 36
M  V30 36 2 36 37
M  V30 37 1 12 7
M  V30 38 1 31 19
M  V30 39 1 37 32
M  V30 40 1 16 10
M  V30 41 1 29 24
M  V30 42 1 1 38
M  V30 43 1 1 39
M  V30 44 1 1 40
M  V30 45 1 2 41
M  V30 46 1 2 42
M  V30 47 1 4 43
M  V30 48 1 4 44
M  V30 49 1 4 45
M  V30 50 1 8 46
M  V30 51 1 9 47
M  V30 52 1 12 48
M  V30 53 1 13 49
M  V30 54 1 18 50
M  V30 55 1 20 51
M  V30 56 1 21 52
M  V30 57 1 23 53
M  V30 58 1 23 54
M  V30 59 1 25 55
M  V30 60 1 25 56
M  V30 61 1 26 57
M  V30 62 1 26 58
M  V30 63 1 27 59
M  V30 64 1 27 60
M  V30 65 1 28 61
M  V30 66 1 28 62
M  V30 67 1 29 63
M  V30 68 1 29 64
M  V30 69 1 30 65
M  V30 70 1 31 66
M  V30 71 1 33 67
M  V30 72 1 34 68
M  V30 73 1 35 69
M  V30 74 1 36 70
M  V30 75 1 37 71
M  V30 END BOND
M  V30 END CTAB
M  END
>  <Dataset>  (408) 
ChEMBL_Kinases

>  <Ligand_Instance>  (408) 
nan

>  <PDB_ID>  (408) 
nan

>  <Standardized_SMILES>  (408) 
CCN(C)C(=O)c1ccc2c(c1)NC(=O)/C2=C(\Nc1ccc(CN2CCCCC2)cc1)c1ccccc1

>  <Name>  (408) 
nan

>  <Pocket>  (408) 
nan

>  <ATP_Site>  (408) 
nan

>  <Peripheral>  (408) 
nan

>  <Num_H_Atoms_ProtBoundConf>  (408) 
nan

>  <Num_Resolved_Atoms>  (408) 
nan

>  <Num_Not_Resolved_Atoms>  (408) 
nan

$$$$
CHEMBL3809094
     RDKit          3D

  0  0  0  0  0  0  0  0  0  0999 V3000
M  V30 BEGIN CTAB
M  V30 COUNTS 63 67 0 0 0
M  V30 BEGIN ATOM
M  V30 1 C -0.559446 -5.951085 4.015250 0
M  V30 2 C 0.136780 -5.175022 2.935206 0
M  V30 3 O 1.189474 -5.541426 2.333814 0
M  V30 4 N -0.452423 -3.907714 2.560843 0
M  V30 5 C 0.019951 -3.002602 1.575328 0
M  V30 6 C 0.903306 -2.102199 2.146327 0
M  V30 7 C 1.501063 -1.130515 1.371804 0
M  V30 8 N 2.432254 -0.184521 1.880313 0
M  V30 9 C 2.695231 0.991330 1.125736 0
M  V30 10 C 2.101362 2.107729 1.701798 0
M  V30 11 C 2.207223 3.358367 1.136311 0
M  V30 12 N 1.609869 4.499456 1.730905 0
M  V30 13 C 1.609552 5.880936 1.274569 0
M  V30 14 C 0.878238 6.915505 2.189038 0
M  V30 15 C 0.301397 6.496444 0.886778 0
M  V30 16 N 2.917509 3.473423 -0.016477 0
M  V30 17 N 3.198768 4.524043 -0.802164 0
M  V30 18 C 3.950857 4.113709 -1.857496 0
M  V30 19 C 4.162678 2.744619 -1.747530 0
M  V30 20 C 4.902840 1.909464 -2.651173 0
M  V30 21 N 5.517626 1.219654 -3.383917 0
M  V30 22 C 3.501116 2.394412 -0.588277 0
M  V30 23 N 3.391185 1.188198 -0.029678 0
M  V30 24 C 1.173778 -1.112770 0.032690 0
M  V30 25 C 0.290478 -2.033035 -0.477156 0
M  V30 26 C -0.333474 -3.019770 0.247824 0
M  V30 27 N -1.268118 -3.919654 -0.320129 0
M  V30 28 C -1.116229 -4.070098 -1.762191 0
M  V30 29 C -2.332751 -4.674038 0.262543 0
M  V30 30 C -3.711506 -4.180658 -0.012174 0
M  V30 31 N -4.134732 -4.080398 -1.364344 0
M  V30 32 C -5.577296 -3.886689 -1.530907 0
M  V30 33 C -5.370014 -2.416912 -1.591928 0
M  V30 34 F -5.478778 -1.783798 -0.364786 0
M  V30 35 F -6.091104 -1.767501 -2.585478 0
M  V30 36 C -3.961879 -2.765576 -1.970183 0
M  V30 37 H -0.332461 -7.034341 3.942734 0
M  V30 38 H -1.663984 -5.790136 3.947392 0
M  V30 39 H -0.235701 -5.561333 5.001281 0
M  V30 40 H -1.326622 -3.479852 2.993277 0
M  V30 41 H 1.197840 -2.066308 3.186516 0
M  V30 42 H 2.945584 -0.284414 2.781370 0
M  V30 43 H 1.514289 2.074090 2.633848 0
M  V30 44 H 1.083318 4.341067 2.640934 0
M  V30 45 H 2.496525 6.279257 0.749466 0
M  V30 46 H 0.515129 6.482987 3.148159 0
M  V30 47 H 1.318928 7.927748 2.246641 0
M  V30 48 H 0.286852 7.268559 0.083160 0
M  V30 49 H -0.582302 5.813591 0.995951 0
M  V30 50 H 4.339866 4.732939 -2.674921 0
M  V30 51 H 1.652063 -0.336809 -0.575969 0
M  V30 52 H 0.145663 -1.883115 -1.536479 0
M  V30 53 H -1.910363 -4.731831 -2.163385 0
M  V30 54 H -0.110777 -4.537286 -1.987357 0
M  V30 55 H -1.195213 -3.079128 -2.228365 0
M  V30 56 H -2.316033 -5.750564 -0.168276 0
M  V30 57 H -2.193708 -4.908180 1.357331 0
M  V30 58 H -4.488971 -4.813223 0.520258 0
M  V30 59 H -3.871420 -3.158304 0.463379 0
M  V30 60 H -5.893506 -4.312567 -2.503951 0
M  V30 61 H -6.188322 -4.233627 -0.662180 0
M  V30 62 H -3.847670 -2.892000 -3.054665 0
M  V30 63 H -3.199251 -2.111099 -1.466942 0
M  V30 END ATOM
M  V30 BEGIN BOND
M  V30 1 1 1 2
M  V30 2 2 2 3
M  V30 3 1 2 4
M  V30 4 1 4 5
M  V30 5 2 5 6
M  V30 6 1 6 7
M  V30 7 1 7 8
M  V30 8 1 8 9
M  V30 9 1 9 10
M  V30 10 2 10 11
M  V30 11 1 11 12
M  V30 12 1 12 13
M  V30 13 1 13 14
M  V30 14 1 14 15
M  V30 15 1 11 16
M  V30 16 1 16 17
M  V30 17 2 17 18
M  V30 18 1 18 19
M  V30 19 1 19 20
M  V30 20 3 20 21
M  V30 21 2 19 22
M  V30 22 1 22 23
M  V30 23 2 7 24
M  V30 24 1 24 25
M  V30 25 2 25 26
M  V30 26 1 26 27
M  V30 27 1 27 28
M  V30 28 1 27 29
M  V30 29 1 29 30
M  V30 30 1 30 31
M  V30 31 1 31 32
M  V30 32 1 32 33
M  V30 33 1 33 34
M  V30 34 1 33 35
M  V30 35 1 33 36
M  V30 36 1 26 5
M  V30 37 1 36 31
M  V30 38 2 23 9
M  V30 39 1 15 13
M  V30 40 1 22 16
M  V30 41 1 1 37
M  V30 42 1 1 38
M  V30 43 1 1 39
M  V30 44 1 4 40
M  V30 45 1 6 41
M  V30 46 1 8 42
M  V30 47 1 10 43
M  V30 48 1 12 44
M  V30 49 1 13 45
M  V30 50 1 14 46
M  V30 51 1 14 47
M  V30 52 1 15 48
M  V30 53 1 15 49
M  V30 54 1 18 50
M  V30 55 1 24 51
M  V30 56 1 25 52
M  V30 57 1 28 53
M  V30 58 1 28 54
M  V30 59 1 28 55
M  V30 60 1 29 56
M  V30 61 1 29 57
M  V30 62 1 30 58
M  V30 63 1 30 59
M  V30 64 1 32 60
M  V30 65 1 32 61
M  V30 66 1 36 62
M  V30 67 1 36 63
M  V30 END BOND
M  V30 END CTAB
M  END
>  <Dataset>  (409) 
ChEMBL_Kinases

>  <Ligand_Instance>  (409) 
nan

>  <PDB_ID>  (409) 
nan

>  <Standardized_SMILES>  (409) 
CC(=O)Nc1cc(Nc2cc(NC3CC3)n3ncc(C#N)c3n2)ccc1N(C)CCN1CC(F)(F)C1

>  <Name>  (409) 
nan

>  <Pocket>  (409) 
nan

>  <ATP_Site>  (409) 
nan

>  <Peripheral>  (409) 
nan

>  <Num_H_Atoms_ProtBoundConf>  (409) 
nan

>  <Num_Resolved_Atoms>  (409) 
nan

>  <Num_Not_Resolved_Atoms>  (409) 
nan

$$$$
CHEMBL49689
     RDKit          3D

  0  0  0  0  0  0  0  0  0  0999 V3000
M  V30 BEGIN CTAB
M  V30 COUNTS 82 89 0 0 0
M  V30 BEGIN ATOM
M  V30 1 C 2.252633 -2.340325 2.881332 0
M  V30 2 C 2.425822 -2.118788 1.583083 0
M  V30 3 C 3.899689 -1.954861 1.350719 0
M  V30 4 C 1.354380 -2.053989 0.585608 0 CFG=1
M  V30 5 O 1.462974 -3.050160 -0.381589 0
M  V30 6 C 0.177535 -3.497761 -0.550273 0
M  V30 7 C 0.268249 -4.856855 -1.175699 0
M  V30 8 C -1.002572 -5.393685 -1.385748 0
M  V30 9 C -1.134498 -6.659830 -1.962385 0
M  V30 10 C -0.006621 -7.373602 -2.321544 0
M  V30 11 C 1.219851 -6.817125 -2.101230 0
M  V30 12 C 1.397869 -5.574784 -1.536800 0
M  V30 13 O -0.310508 -3.569277 0.745636 0
M  V30 14 C 0.002495 -2.271449 1.182483 0 CFG=2
M  V30 15 C -1.058487 -1.371413 0.527997 0 CFG=2
M  V30 16 C -2.373175 -1.610348 1.142204 0
M  V30 17 O -3.560529 -1.875702 0.556368 0
M  V30 18 C -3.315397 -0.597703 1.026700 0 CFG=1
M  V30 19 C -4.057947 -0.128253 2.281788 0
M  V30 20 O -5.420055 -0.141125 2.108884 0
M  V30 21 C -3.301772 0.442421 -0.013172 0 CFG=1
M  V30 22 O -2.830096 1.614992 0.610220 0
M  V30 23 C -2.721697 0.228355 -1.319211 0 CFG=2
M  V30 24 O -1.894439 1.319395 -1.626343 0
M  V30 25 C -3.706572 0.292747 -2.470123 0
M  V30 26 O -4.932189 0.593334 -2.500374 0
M  V30 27 C -2.868425 -0.098167 -3.627359 0
M  V30 28 C -3.116436 0.341912 -5.048565 0
M  V30 29 C -1.913607 -0.878336 -3.140934 0
M  V30 30 C -2.077348 -1.033462 -1.668562 0 CFG=1
M  V30 31 C -0.876487 -1.456465 -0.927994 0 CFG=2
M  V30 32 O -0.616975 -2.764313 -1.391270 0
M  V30 33 C 0.399476 -0.702738 -1.291377 0 CFG=2
M  V30 34 C 1.049279 -1.255469 -2.530408 0
M  V30 35 C 1.431963 -0.744212 -0.173228 0 CFG=1
M  V30 36 O 1.424010 0.389611 0.641211 0
M  V30 37 C 2.425953 1.289123 0.848476 0
M  V30 38 O 3.540944 1.181985 0.286999 0
M  V30 39 C 2.193412 2.428054 1.763600 0
M  V30 40 C 3.120457 3.324716 2.000899 0
M  V30 41 C 3.001664 4.481566 2.879381 0
M  V30 42 C 4.061790 5.344878 3.034737 0
M  V30 43 C 4.020373 6.453868 3.845183 0
M  V30 44 C 2.835969 6.672027 4.516683 0
M  V30 45 C 1.734940 5.852420 4.410381 0
M  V30 46 C 1.850999 4.742623 3.566857 0
M  V30 47 H 1.577439 -2.529353 3.704836 0
M  V30 48 H 1.960518 -2.522938 3.890617 0
M  V30 49 H 4.402731 -2.873743 1.675805 0
M  V30 50 H 4.091868 -1.729964 0.279152 0
M  V30 51 H 4.206898 -1.058314 1.940686 0
M  V30 52 H -1.942138 -4.928277 -1.145789 0
M  V30 53 H -2.105888 -7.110962 -2.141754 0
M  V30 54 H -0.140314 -8.346253 -2.763540 0
M  V30 55 H 2.130562 -7.344247 -2.368727 0
M  V30 56 H 2.300050 -5.056025 -1.324584 0
M  V30 57 H -0.034271 -2.220821 2.285258 0
M  V30 58 H -0.773879 -0.328110 0.832075 0
M  V30 59 H -2.306706 -2.127869 2.150392 0
M  V30 60 H -3.717543 -0.689879 3.173660 0
M  V30 61 H -3.736952 0.919341 2.447500 0
M  V30 62 H -5.735464 -1.033675 1.859975 0
M  V30 63 H -4.393756 0.693472 -0.187842 0
M  V30 64 H -1.889112 1.760918 0.388037 0
M  V30 65 H -2.406333 2.144510 -1.549112 0
M  V30 66 H -4.059097 0.904910 -5.089361 0
M  V30 67 H -3.194400 -0.569817 -5.686135 0
M  V30 68 H -2.265393 0.943711 -5.366514 0
M  V30 69 H -1.194777 -1.267399 -3.858919 0
M  V30 70 H -2.803950 -1.901195 -1.629224 0
M  V30 71 H 0.231514 0.379569 -1.456673 0
M  V30 72 H 2.160477 -1.377290 -2.359996 0
M  V30 73 H 1.013353 -0.512851 -3.367291 0
M  V30 74 H 0.707212 -2.265107 -2.814214 0
M  V30 75 H 2.463671 -0.766047 -0.636738 0
M  V30 76 H 1.250374 2.548017 2.259965 0
M  V30 77 H 4.061425 3.151868 1.467769 0
M  V30 78 H 5.012775 5.189477 2.509437 0
M  V30 79 H 4.834669 7.133662 3.976158 0
M  V30 80 H 2.740421 7.543791 5.181129 0
M  V30 81 H 0.808985 6.054695 4.957856 0
M  V30 82 H 0.981755 4.129197 3.506587 0
M  V30 END ATOM
M  V30 BEGIN BOND
M  V30 1 2 1 2
M  V30 2 1 2 3
M  V30 3 1 4 2 CFG=1
M  V30 4 1 4 5
M  V30 5 1 5 6
M  V30 6 1 6 7
M  V30 7 2 7 8
M  V30 8 1 8 9
M  V30 9 2 9 10
M  V30 10 1 10 11
M  V30 11 2 11 12
M  V30 12 1 6 13
M  V30 13 1 13 14
M  V30 14 1 14 15
M  V30 15 1 15 16
M  V30 16 1 16 17
M  V30 17 1 17 18
M  V30 18 1 18 19 CFG=1
M  V30 19 1 19 20
M  V30 20 1 18 21
M  V30 21 1 21 22
M  V30 22 1 21 23
M  V30 23 1 23 24 CFG=3
M  V30 24 1 23 25
M  V30 25 2 25 26
M  V30 26 1 25 27
M  V30 27 1 27 28
M  V30 28 2 27 29
M  V30 29 1 29 30
M  V30 30 1 30 31
M  V30 31 1 31 32 CFG=1
M  V30 32 1 31 33
M  V30 33 1 33 34
M  V30 34 1 33 35
M  V30 35 1 35 36
M  V30 36 1 36 37
M  V30 37 2 37 38
M  V30 38 1 37 39
M  V30 39 2 39 40
M  V30 40 1 40 41
M  V30 41 2 41 42
M  V30 42 1 42 43
M  V30 43 2 43 44
M  V30 44 1 44 45
M  V30 45 2 45 46
M  V30 46 1 14 4
M  V30 47 1 31 15
M  V30 48 1 46 41
M  V30 49 1 35 4
M  V30 50 1 32 6
M  V30 51 1 12 7
M  V30 52 1 18 16
M  V30 53 1 30 23
M  V30 54 1 1 47
M  V30 55 1 1 48
M  V30 56 1 3 49
M  V30 57 1 3 50
M  V30 58 1 3 51
M  V30 59 1 8 52
M  V30 60 1 9 53
M  V30 61 1 10 54
M  V30 62 1 11 55
M  V30 63 1 12 56
M  V30 64 1 14 57 CFG=1
M  V30 65 1 15 58 CFG=1
M  V30 66 1 16 59
M  V30 67 1 19 60
M  V30 68 1 19 61
M  V30 69 1 20 62
M  V30 70 1 21 63 CFG=3
M  V30 71 1 22 64
M  V30 72 1 24 65
M  V30 73 1 28 66
M  V30 74 1 28 67
M  V30 75 1 28 68
M  V30 76 1 29 69
M  V30 77 1 30 70 CFG=3
M  V30 78 1 33 71 CFG=3
M  V30 79 1 34 72
M  V30 80 1 34 73
M  V30 81 1 34 74
M  V30 82 1 35 75 CFG=3
M  V30 83 1 39 76
M  V30 84 1 40 77
M  V30 85 1 42 78
M  V30 86 1 43 79
M  V30 87 1 44 80
M  V30 88 1 45 81
M  V30 89 1 46 82
M  V30 END BOND
M  V30 END CTAB
M  END
>  <Dataset>  (410) 
ChEMBL_Kinases

>  <Ligand_Instance>  (410) 
nan

>  <PDB_ID>  (410) 
nan

>  <Standardized_SMILES>  (410) 
C=C(C)[C@@]12OC3(c4ccccc4)O[C@@H]1[C@@H]1C4O[C@]4(CO)[C@@H](O)[C@]4(O)C(=O)C(C)=C[C@H]4[C@@]1(O3)[C@H](C)[C@H]2OC(=O)/C=C/c1ccccc1

>  <Name>  (410) 
THYMELEATOXIN

>  <Pocket>  (410) 
nan

>  <ATP_Site>  (410) 
nan

>  <Peripheral>  (410) 
nan

>  <Num_H_Atoms_ProtBoundConf>  (410) 
nan

>  <Num_Resolved_Atoms>  (410) 
nan

>  <Num_Not_Resolved_Atoms>  (410) 
nan

$$$$
CHEMBL496961
     RDKit          3D

  0  0  0  0  0  0  0  0  0  0999 V3000
M  V30 BEGIN CTAB
M  V30 COUNTS 35 37 0 0 0
M  V30 BEGIN ATOM
M  V30 1 C -1.179004 -3.419752 0.863506 0
M  V30 2 C 0.086616 -2.886897 1.548355 0
M  V30 3 C -0.129882 -2.771492 3.023146 0
M  V30 4 C 1.188370 -3.878118 1.206454 0
M  V30 5 N 2.475200 -3.400903 1.687932 0
M  V30 6 C 2.821410 -2.103564 1.167111 0
M  V30 7 O 4.016589 -1.702759 0.977437 0
M  V30 8 C 1.731327 -1.165194 0.825839 0
M  V30 9 C 1.748016 0.117491 0.319511 0
M  V30 10 C 0.426690 0.514632 0.197819 0
M  V30 11 C 0.061763 1.832983 -0.312452 0
M  V30 12 C 0.994631 2.786489 -0.713214 0
M  V30 13 C 0.571583 4.012167 -1.185338 0
M  V30 14 N -0.737239 4.337033 -1.278731 0
M  V30 15 C -1.662689 3.450187 -0.904454 0
M  V30 16 N -3.064897 3.769987 -0.993374 0
M  V30 17 C -1.272297 2.200275 -0.421909 0
M  V30 18 N -0.375905 -0.497667 0.618281 0
M  V30 19 C 0.402770 -1.538270 1.008105 0
M  V30 20 H -1.012970 -3.484310 -0.230830 0
M  V30 21 H -1.996574 -2.678617 1.013290 0
M  V30 22 H -1.424138 -4.428281 1.209843 0
M  V30 23 H -0.631195 -3.657288 3.475744 0
M  V30 24 H 0.889691 -2.614988 3.475792 0
M  V30 25 H -0.685146 -1.833040 3.216196 0
M  V30 26 H 0.926655 -4.844445 1.639209 0
M  V30 27 H 1.192026 -3.972021 0.100996 0
M  V30 28 H 3.197312 -3.811013 2.335271 0
M  V30 29 H 2.644042 0.673864 0.076384 0
M  V30 30 H 2.042772 2.508374 -0.631353 0
M  V30 31 H 1.370033 4.666223 -1.464430 0
M  V30 32 H -3.883680 3.784122 -0.335643 0
M  V30 33 H -3.357523 4.069815 -1.970257 0
M  V30 34 H -2.082026 1.530835 -0.136437 0
M  V30 35 H -1.398167 -0.437307 0.621490 0
M  V30 END ATOM
M  V30 BEGIN BOND
M  V30 1 1 1 2
M  V30 2 1 2 3
M  V30 3 1 2 4
M  V30 4 1 4 5
M  V30 5 1 5 6
M  V30 6 2 6 7
M  V30 7 1 6 8
M  V30 8 1 8 9
M  V30 9 2 9 10
M  V30 10 1 10 11
M  V30 11 2 11 12
M  V30 12 1 12 13
M  V30 13 2 13 14
M  V30 14 1 14 15
M  V30 15 1 15 16
M  V30 16 2 15 17
M  V30 17 1 10 18
M  V30 18 1 18 19
M  V30 19 1 19 2
M  V30 20 2 19 8
M  V30 21 1 17 11
M  V30 22 1 1 20
M  V30 23 1 1 21
M  V30 24 1 1 22
M  V30 25 1 3 23
M  V30 26 1 3 24
M  V30 27 1 3 25
M  V30 28 1 4 26
M  V30 29 1 4 27
M  V30 30 1 5 28
M  V30 31 1 9 29
M  V30 32 1 12 30
M  V30 33 1 13 31
M  V30 34 1 16 32
M  V30 35 1 16 33
M  V30 36 1 17 34
M  V30 37 1 18 35
M  V30 END BOND
M  V30 END CTAB
M  END
>  <Dataset>  (411) 
ChEMBL_Kinases

>  <Ligand_Instance>  (411) 
nan

>  <PDB_ID>  (411) 
nan

>  <Standardized_SMILES>  (411) 
CC1(C)CNC(=O)c2cc(-c3ccnc(N)c3)[nH]c21

>  <Name>  (411) 
nan

>  <Pocket>  (411) 
nan

>  <ATP_Site>  (411) 
nan

>  <Peripheral>  (411) 
nan

>  <Num_H_Atoms_ProtBoundConf>  (411) 
nan

>  <Num_Resolved_Atoms>  (411) 
nan

>  <Num_Not_Resolved_Atoms>  (411) 
nan

$$$$
CHEMBL496981
     RDKit          3D

  0  0  0  0  0  0  0  0  0  0999 V3000
M  V30 BEGIN CTAB
M  V30 COUNTS 65 69 0 0 0
M  V30 BEGIN ATOM
M  V30 1 C 4.593443 0.710182 1.550149 0
M  V30 2 C 3.801412 1.991506 1.461924 0
M  V30 3 C 4.198913 2.799543 0.232747 0
M  V30 4 C 5.661178 3.146853 0.306234 0
M  V30 5 C 3.321705 4.022483 0.082819 0
M  V30 6 N 1.982473 3.593733 -0.054765 0
M  V30 7 C 1.647867 2.909483 -1.241851 0
M  V30 8 C 0.162475 2.864375 -1.442247 0
M  V30 9 C -0.630268 2.601705 -0.186214 0
M  V30 10 C -1.022380 1.177407 -0.024009 0
M  V30 11 C -0.107496 0.194838 0.289736 0
M  V30 12 C -0.404000 -1.141369 0.451828 0
M  V30 13 N -1.684943 -1.546004 0.296464 0
M  V30 14 C -2.334032 -2.744445 0.376000 0
M  V30 15 C -1.566241 -3.939440 0.698539 0
M  V30 16 C -0.586562 -4.296756 -0.208220 0
M  V30 17 C 0.230681 -5.396535 -0.054535 0
M  V30 18 N 0.069161 -6.180733 1.052185 0
M  V30 19 C -0.885898 -5.830405 1.933676 0
M  V30 20 N -1.202833 -6.529509 3.153567 0
M  V30 21 N -1.663361 -4.770396 1.771734 0
M  V30 22 C -3.694464 -2.555862 0.112271 0
M  V30 23 C -4.600779 -3.699019 0.139910 0
M  V30 24 C -4.792634 -4.360942 1.347318 0
M  V30 25 C -5.648121 -5.458873 1.410653 0
M  V30 26 C -6.323155 -5.930106 0.326319 0
M  V30 27 F -7.157480 -6.991414 0.358901 0
M  V30 28 C -6.132690 -5.275008 -0.866211 0
M  V30 29 C -5.292911 -4.188956 -0.952130 0
M  V30 30 N -3.833481 -1.235746 -0.121947 0
M  V30 31 C -2.621499 -0.631750 -0.010111 0
M  V30 32 C -2.334237 0.707397 -0.174216 0
M  V30 33 C -0.062085 3.223335 1.046030 0
M  V30 34 C 0.968992 4.287092 0.639188 0
M  V30 35 H 5.592044 0.849284 2.007208 0
M  V30 36 H 4.637019 0.242758 0.544654 0
M  V30 37 H 4.051594 -0.006795 2.213179 0
M  V30 38 H 3.919288 2.578130 2.385933 0
M  V30 39 H 2.731913 1.716461 1.361686 0
M  V30 40 H 4.083126 2.159098 -0.676524 0
M  V30 41 H 6.293519 2.254513 0.163483 0
M  V30 42 H 5.923034 3.684382 1.228606 0
M  V30 43 H 5.850372 3.882011 -0.525346 0
M  V30 44 H 3.720305 4.580806 -0.798262 0
M  V30 45 H 3.426953 4.648659 0.983379 0
M  V30 46 H 2.105367 3.336129 -2.161802 0
M  V30 47 H 2.002214 1.844314 -1.156741 0
M  V30 48 H -0.085367 2.013757 -2.142371 0
M  V30 49 H -0.219831 3.761836 -1.987144 0
M  V30 50 H -1.616577 3.133928 -0.361508 0
M  V30 51 H 0.938207 0.425257 0.434372 0
M  V30 52 H 0.347539 -1.881961 0.698787 0
M  V30 53 H -0.363586 -3.750774 -1.126754 0
M  V30 54 H 1.001851 -5.692037 -0.751736 0
M  V30 55 H -1.736746 -7.409081 2.975895 0
M  V30 56 H -1.729384 -7.403167 3.024729 0
M  V30 57 H -4.327881 -4.097891 2.275896 0
M  V30 58 H -5.814470 -5.994181 2.346671 0
M  V30 59 H -6.657894 -5.632867 -1.734957 0
M  V30 60 H -5.146216 -3.669771 -1.911902 0
M  V30 61 H -3.096339 1.410692 -0.416989 0
M  V30 62 H 0.432715 2.443624 1.678131 0
M  V30 63 H -0.798356 3.718581 1.708677 0
M  V30 64 H 0.420154 5.040835 0.047143 0
M  V30 65 H 1.377619 4.679003 1.576660 0
M  V30 END ATOM
M  V30 BEGIN BOND
M  V30 1 1 1 2
M  V30 2 1 2 3
M  V30 3 1 3 4
M  V30 4 1 3 5
M  V30 5 1 5 6
M  V30 6 1 6 7
M  V30 7 1 7 8
M  V30 8 1 8 9
M  V30 9 1 9 10
M  V30 10 1 10 11
M  V30 11 2 11 12
M  V30 12 1 12 13
M  V30 13 1 13 14
M  V30 14 1 14 15
M  V30 15 2 15 16
M  V30 16 1 16 17
M  V30 17 2 17 18
M  V30 18 1 18 19
M  V30 19 1 19 20
M  V30 20 2 19 21
M  V30 21 2 14 22
M  V30 22 1 22 23
M  V30 23 2 23 24
M  V30 24 1 24 25
M  V30 25 2 25 26
M  V30 26 1 26 27
M  V30 27 1 26 28
M  V30 28 2 28 29
M  V30 29 1 22 30
M  V30 30 2 30 31
M  V30 31 1 31 32
M  V30 32 1 9 33
M  V30 33 1 33 34
M  V30 34 1 34 6
M  V30 35 2 32 10
M  V30 36 1 31 13
M  V30 37 1 21 15
M  V30 38 1 29 23
M  V30 39 1 1 35
M  V30 40 1 1 36
M  V30 41 1 1 37
M  V30 42 1 2 38
M  V30 43 1 2 39
M  V30 44 1 3 40
M  V30 45 1 4 41
M  V30 46 1 4 42
M  V30 47 1 4 43
M  V30 48 1 5 44
M  V30 49 1 5 45
M  V30 50 1 7 46
M  V30 51 1 7 47
M  V30 52 1 8 48
M  V30 53 1 8 49
M  V30 54 1 9 50
M  V30 55 1 11 51
M  V30 56 1 12 52
M  V30 57 1 16 53
M  V30 58 1 17 54
M  V30 59 1 20 55
M  V30 60 1 20 56
M  V30 61 1 24 57
M  V30 62 1 25 58
M  V30 63 1 28 59
M  V30 64 1 29 60
M  V30 65 1 32 61
M  V30 66 1 33 62
M  V30 67 1 33 63
M  V30 68 1 34 64
M  V30 69 1 34 65
M  V30 END BOND
M  V30 END CTAB
M  END
>  <Dataset>  (412) 
ChEMBL_Kinases

>  <Ligand_Instance>  (412) 
nan

>  <PDB_ID>  (412) 
nan

>  <Standardized_SMILES>  (412) 
CCC(C)CN1CCC(c2ccn3c(-c4ccnc(N)n4)c(-c4ccc(F)cc4)nc3c2)CC1

>  <Name>  (412) 
nan

>  <Pocket>  (412) 
nan

>  <ATP_Site>  (412) 
nan

>  <Peripheral>  (412) 
nan

>  <Num_H_Atoms_ProtBoundConf>  (412) 
nan

>  <Num_Resolved_Atoms>  (412) 
nan

>  <Num_Not_Resolved_Atoms>  (412) 
nan

$$$$
CHEMBL3809252
     RDKit          3D

  0  0  0  0  0  0  0  0  0  0999 V3000
M  V30 BEGIN CTAB
M  V30 COUNTS 58 61 0 0 0
M  V30 BEGIN ATOM
M  V30 1 C 1.015348 0.575488 6.132521 0
M  V30 2 O 0.348545 0.789825 4.934169 0
M  V30 3 C 0.864674 0.817130 3.670879 0
M  V30 4 C 2.222501 0.613323 3.527197 0
M  V30 5 C 2.816654 0.628686 2.277528 0
M  V30 6 C 4.243356 0.420218 2.042027 0
M  V30 7 C 5.280420 0.770310 2.881213 0
M  V30 8 N 6.452471 0.407445 2.302237 0
M  V30 9 N 6.194892 -0.159126 1.128802 0
M  V30 10 C 7.052429 -0.732562 0.090126 0
M  V30 11 C 4.840402 -0.162817 0.945886 0
M  V30 12 C 2.025909 0.852402 1.167951 0
M  V30 13 C 0.672832 1.052621 1.341049 0
M  V30 14 C 0.039655 1.043421 2.589754 0
M  V30 15 N -1.378536 1.244981 2.712553 0
M  V30 16 C -2.089662 1.476922 1.480961 0
M  V30 17 N -2.457328 2.688408 0.964427 0
M  V30 18 C -3.105311 2.745849 -0.209892 0
M  V30 19 C -3.414504 1.608951 -0.918996 0
M  V30 20 C -4.065565 1.625442 -2.111304 0
M  V30 21 C -4.309078 0.412296 -2.718917 0
M  V30 22 N -3.923937 -0.741480 -2.164554 0
M  V30 23 C -3.281105 -0.811274 -0.992474 0
M  V30 24 N -2.897228 -2.046730 -0.410400 0
M  V30 25 C -3.036206 -3.388697 -0.868885 0
M  V30 26 C -2.178178 -3.818766 -1.997479 0
M  V30 27 C -2.543759 -5.288685 -2.274284 0
M  V30 28 C -2.301136 -3.082012 -3.277774 0
M  V30 29 C -0.699734 -3.769528 -1.588774 0
M  V30 30 C -3.029257 0.411375 -0.369562 0
M  V30 31 N -2.382947 0.358184 0.803052 0
M  V30 32 H 1.578744 -0.402848 6.138400 0
M  V30 33 H 1.804546 1.364596 6.231743 0
M  V30 34 H 0.374489 0.663006 7.026492 0
M  V30 35 H 2.849465 0.438322 4.389914 0
M  V30 36 H 5.241155 1.252549 3.846035 0
M  V30 37 H 6.765480 -1.823020 0.049160 0
M  V30 38 H 8.092442 -0.677903 0.430862 0
M  V30 39 H 6.875939 -0.309300 -0.897879 0
M  V30 40 H 4.272152 -0.548180 0.095802 0
M  V30 41 H 2.425211 0.877990 0.144175 0
M  V30 42 H 0.042107 1.229384 0.471746 0
M  V30 43 H -1.752458 1.205015 3.672719 0
M  V30 44 H -3.386046 3.691200 -0.603376 0
M  V30 45 H -4.347310 2.589172 -2.500836 0
M  V30 46 H -4.828557 0.440326 -3.669352 0
M  V30 47 H -2.420225 -1.964368 0.531063 0
M  V30 48 H -4.107407 -3.619326 -1.172132 0
M  V30 49 H -2.866020 -4.129200 -0.037836 0
M  V30 50 H -2.085894 -5.632481 -3.203056 0
M  V30 51 H -2.151336 -5.842388 -1.392114 0
M  V30 52 H -3.656045 -5.293581 -2.272093 0
M  V30 53 H -1.784011 -2.099509 -3.255385 0
M  V30 54 H -3.346118 -3.009042 -3.630022 0
M  V30 55 H -1.763580 -3.638341 -4.108243 0
M  V30 56 H -0.054013 -3.638747 -2.482392 0
M  V30 57 H -0.528453 -2.940670 -0.870285 0
M  V30 58 H -0.476266 -4.762104 -1.134883 0
M  V30 END ATOM
M  V30 BEGIN BOND
M  V30 1 1 1 2
M  V30 2 1 2 3
M  V30 3 2 3 4
M  V30 4 1 4 5
M  V30 5 1 5 6
M  V30 6 1 6 7
M  V30 7 2 7 8
M  V30 8 1 8 9
M  V30 9 1 9 10
M  V30 10 1 9 11
M  V30 11 2 5 12
M  V30 12 1 12 13
M  V30 13 2 13 14
M  V30 14 1 14 15
M  V30 15 1 15 16
M  V30 16 2 16 17
M  V30 17 1 17 18
M  V30 18 2 18 19
M  V30 19 1 19 20
M  V30 20 2 20 21
M  V30 21 1 21 22
M  V30 22 2 22 23
M  V30 23 1 23 24
M  V30 24 1 24 25
M  V30 25 1 25 26
M  V30 26 1 26 27
M  V30 27 1 26 28
M  V30 28 1 26 29
M  V30 29 1 23 30
M  V30 30 2 30 31
M  V30 31 1 14 3
M  V30 32 1 31 16
M  V30 33 2 11 6
M  V30 34 1 30 19
M  V30 35 1 1 32
M  V30 36 1 1 33
M  V30 37 1 1 34
M  V30 38 1 4 35
M  V30 39 1 7 36
M  V30 40 1 10 37
M  V30 41 1 10 38
M  V30 42 1 10 39
M  V30 43 1 11 40
M  V30 44 1 12 41
M  V30 45 1 13 42
M  V30 46 1 15 43
M  V30 47 1 18 44
M  V30 48 1 20 45
M  V30 49 1 21 46
M  V30 50 1 24 47
M  V30 51 1 25 48
M  V30 52 1 25 49
M  V30 53 1 27 50
M  V30 54 1 27 51
M  V30 55 1 27 52
M  V30 56 1 28 53
M  V30 57 1 28 54
M  V30 58 1 28 55
M  V30 59 1 29 56
M  V30 60 1 29 57
M  V30 61 1 29 58
M  V30 END BOND
M  V30 END CTAB
M  END
>  <Dataset>  (413) 
ChEMBL_Kinases

>  <Ligand_Instance>  (413) 
nan

>  <PDB_ID>  (413) 
nan

>  <Standardized_SMILES>  (413) 
COc1cc(-c2cnn(C)c2)ccc1Nc1ncc2ccnc(NCC(C)(C)C)c2n1

>  <Name>  (413) 
nan

>  <Pocket>  (413) 
nan

>  <ATP_Site>  (413) 
nan

>  <Peripheral>  (413) 
nan

>  <Num_H_Atoms_ProtBoundConf>  (413) 
nan

>  <Num_Resolved_Atoms>  (413) 
nan

>  <Num_Not_Resolved_Atoms>  (413) 
nan

$$$$
CHEMBL3805855
     RDKit          3D

  0  0  0  0  0  0  0  0  0  0999 V3000
M  V30 BEGIN CTAB
M  V30 COUNTS 48 51 0 0 0
M  V30 BEGIN ATOM
M  V30 1 C 3.018512 -3.308373 -2.198688 0
M  V30 2 N 3.577730 -2.338666 -3.109919 0
M  V30 3 N 4.390768 -2.686544 -4.121330 0
M  V30 4 C 4.740671 -1.568030 -4.782628 0
M  V30 5 C 4.106000 -0.530678 -4.129588 0
M  V30 6 Br 4.361108 1.228272 -4.779770 0
M  V30 7 C 3.369636 -1.015215 -3.071058 0
M  V30 8 C 2.573764 -0.206545 -2.164453 0
M  V30 9 C 2.406291 1.159614 -2.186809 0
M  V30 10 O 1.617485 1.549947 -1.214981 0
M  V30 11 C 1.213760 0.536208 -0.501326 0
M  V30 12 C 0.324810 0.625724 0.656334 0
M  V30 13 O -0.063441 1.784161 0.961947 0
M  V30 14 N -0.071393 -0.521296 1.384386 0
M  V30 15 C -0.961580 -0.408466 2.539535 0
M  V30 16 C -2.298083 0.091020 2.111917 0
M  V30 17 C -2.632386 -0.256497 0.792704 0
M  V30 18 C -3.792562 0.083197 0.160768 0
M  V30 19 C -4.731880 0.826286 0.844107 0
M  V30 20 Cl -6.270672 1.355536 0.207319 0
M  V30 21 C -4.423499 1.178506 2.141464 0
M  V30 22 Cl -5.536236 2.129895 3.132415 0
M  V30 23 C -3.248744 0.830764 2.771368 0
M  V30 24 C -1.151172 -1.814951 3.042511 0
M  V30 25 C -1.778897 -1.769896 4.402646 0
M  V30 26 N -0.724710 -1.301477 5.308166 0
M  V30 27 C -0.500840 0.071710 4.996358 0
M  V30 28 C -0.285508 0.413321 3.570167 0
M  V30 29 C 1.803068 -0.572124 -1.081832 0
M  V30 30 H 3.388876 -3.108758 -1.189044 0
M  V30 31 H 1.911101 -3.369740 -2.225601 0
M  V30 32 H 3.363676 -4.344058 -2.443850 0
M  V30 33 H 5.398819 -1.644305 -5.637940 0
M  V30 34 H 2.796610 1.903642 -2.834700 0
M  V30 35 H 0.321072 -1.418972 1.026271 0
M  V30 36 H -1.956907 -0.848400 0.154411 0
M  V30 37 H -4.032955 -0.188707 -0.844052 0
M  V30 38 H -2.976406 1.086359 3.761937 0
M  V30 39 H -0.150646 -2.295359 3.176156 0
M  V30 40 H -1.731198 -2.441509 2.332453 0
M  V30 41 H -2.019086 -2.846278 4.655685 0
M  V30 42 H -2.694572 -1.167078 4.464561 0
M  V30 43 H -0.984256 -1.371555 6.298242 0
M  V30 44 H 0.443892 0.366558 5.555912 0
M  V30 45 H -1.353790 0.674935 5.424273 0
M  V30 46 H 0.829878 0.336898 3.369905 0
M  V30 47 H -0.488628 1.509269 3.466615 0
M  V30 48 H 1.646545 -1.565554 -0.698239 0
M  V30 END ATOM
M  V30 BEGIN BOND
M  V30 1 1 1 2
M  V30 2 1 2 3
M  V30 3 2 3 4
M  V30 4 1 4 5
M  V30 5 1 5 6
M  V30 6 2 5 7
M  V30 7 1 7 8
M  V30 8 2 8 9
M  V30 9 1 9 10
M  V30 10 1 10 11
M  V30 11 1 11 12
M  V30 12 2 12 13
M  V30 13 1 12 14
M  V30 14 1 14 15
M  V30 15 1 15 16
M  V30 16 2 16 17
M  V30 17 1 17 18
M  V30 18 2 18 19
M  V30 19 1 19 20
M  V30 20 1 19 21
M  V30 21 1 21 22
M  V30 22 2 21 23
M  V30 23 1 15 24
M  V30 24 1 24 25
M  V30 25 1 25 26
M  V30 26 1 26 27
M  V30 27 1 27 28
M  V30 28 2 11 29
M  V30 29 1 7 2
M  V30 30 1 29 8
M  V30 31 1 28 15
M  V30 32 1 23 16
M  V30 33 1 1 30
M  V30 34 1 1 31
M  V30 35 1 1 32
M  V30 36 1 4 33
M  V30 37 1 9 34
M  V30 38 1 14 35
M  V30 39 1 17 36
M  V30 40 1 18 37
M  V30 41 1 23 38
M  V30 42 1 24 39
M  V30 43 1 24 40
M  V30 44 1 25 41
M  V30 45 1 25 42
M  V30 46 1 26 43
M  V30 47 1 27 44
M  V30 48 1 27 45
M  V30 49 1 28 46
M  V30 50 1 28 47
M  V30 51 1 29 48
M  V30 END BOND
M  V30 END CTAB
M  END
>  <Dataset>  (414) 
ChEMBL_Kinases

>  <Ligand_Instance>  (414) 
nan

>  <PDB_ID>  (414) 
nan

>  <Standardized_SMILES>  (414) 
Cn1ncc(Br)c1-c1coc(C(=O)NC2(c3ccc(Cl)c(Cl)c3)CCNCC2)c1

>  <Name>  (414) 
nan

>  <Pocket>  (414) 
nan

>  <ATP_Site>  (414) 
nan

>  <Peripheral>  (414) 
nan

>  <Num_H_Atoms_ProtBoundConf>  (414) 
nan

>  <Num_Resolved_Atoms>  (414) 
nan

>  <Num_Not_Resolved_Atoms>  (414) 
nan

$$$$
CHEMBL3805849
     RDKit          3D

  0  0  0  0  0  0  0  0  0  0999 V3000
M  V30 BEGIN CTAB
M  V30 COUNTS 47 51 0 0 0
M  V30 BEGIN ATOM
M  V30 1 Cl 0.865398 -6.485790 2.729355 0
M  V30 2 C 0.488292 -5.172099 1.636005 0
M  V30 3 C 0.264257 -5.371518 0.293736 0
M  V30 4 C -0.034934 -4.359929 -0.595366 0
M  V30 5 C -0.117390 -3.067276 -0.123649 0
M  V30 6 C -0.431638 -1.848297 -0.946891 0
M  V30 7 C 0.757152 -0.952494 -0.981479 0
M  V30 8 C 0.476529 0.098781 0.060857 0
M  V30 9 C 1.479440 1.058837 0.515423 0
M  V30 10 C 2.768819 1.069088 0.015276 0
M  V30 11 C 3.705746 1.984746 0.456561 0
M  V30 12 C 3.382131 2.918586 1.411798 0
M  V30 13 C 2.079326 2.910424 1.919099 0
M  V30 14 C 1.126888 1.987164 1.477206 0
M  V30 15 O 1.779534 3.851468 2.871311 0
M  V30 16 C 2.727067 4.428357 3.762897 0
M  V30 17 C 4.147184 4.268282 3.315277 0
M  V30 18 O 4.238931 3.888146 1.932484 0
M  V30 19 N -0.758111 -0.006233 0.455436 0
M  V30 20 N -1.401020 -1.053033 -0.218174 0
M  V30 21 C -2.810677 -1.298937 -0.189084 0
M  V30 22 C -3.626276 -0.460011 0.548846 0
M  V30 23 C -4.990773 -0.674392 0.594379 0
M  V30 24 C -5.545118 -1.732917 -0.101036 0
M  V30 25 C -4.734327 -2.577622 -0.842495 0
M  V30 26 C -3.372408 -2.334922 -0.866837 0
M  V30 27 C 0.103480 -2.843049 1.219179 0
M  V30 28 C 0.406643 -3.867268 2.120660 0
M  V30 29 Cl 0.684219 -3.559834 3.826284 0
M  V30 30 H 0.323414 -6.366927 -0.092766 0
M  V30 31 H -0.214229 -4.493491 -1.651112 0
M  V30 32 H -0.801577 -2.179265 -1.927064 0
M  V30 33 H 1.674845 -1.515786 -0.664997 0
M  V30 34 H 0.947713 -0.508833 -1.964653 0
M  V30 35 H 3.018708 0.344794 -0.725194 0
M  V30 36 H 4.714906 2.004650 0.075637 0
M  V30 37 H 0.131663 1.984388 1.867807 0
M  V30 38 H 2.545487 5.510890 3.915574 0
M  V30 39 H 2.556412 3.889236 4.733106 0
M  V30 40 H 4.576699 3.392267 3.864329 0
M  V30 41 H 4.746323 5.172640 3.451625 0
M  V30 42 H -3.233694 0.379922 1.107693 0
M  V30 43 H -5.685921 -0.067366 1.143940 0
M  V30 44 H -6.605733 -2.007015 -0.144649 0
M  V30 45 H -5.096928 -3.429828 -1.414817 0
M  V30 46 H -2.729144 -2.985006 -1.440352 0
M  V30 47 H 0.062780 -1.867803 1.690429 0
M  V30 END ATOM
M  V30 BEGIN BOND
M  V30 1 1 1 2
M  V30 2 2 2 3
M  V30 3 1 3 4
M  V30 4 2 4 5
M  V30 5 1 5 6
M  V30 6 1 6 7
M  V30 7 1 7 8
M  V30 8 1 8 9
M  V30 9 2 9 10
M  V30 10 1 10 11
M  V30 11 2 11 12
M  V30 12 1 12 13
M  V30 13 2 13 14
M  V30 14 1 13 15
M  V30 15 1 15 16
M  V30 16 1 16 17
M  V30 17 1 17 18
M  V30 18 2 8 19
M  V30 19 1 19 20
M  V30 20 1 20 21
M  V30 21 2 21 22
M  V30 22 1 22 23
M  V30 23 2 23 24
M  V30 24 1 24 25
M  V30 25 2 25 26
M  V30 26 1 5 27
M  V30 27 2 27 28
M  V30 28 1 28 29
M  V30 29 1 28 2
M  V30 30 1 20 6
M  V30 31 1 26 21
M  V30 32 1 14 9
M  V30 33 1 18 12
M  V30 34 1 3 30
M  V30 35 1 4 31
M  V30 36 1 6 32
M  V30 37 1 7 33
M  V30 38 1 7 34
M  V30 39 1 10 35
M  V30 40 1 11 36
M  V30 41 1 14 37
M  V30 42 1 16 38
M  V30 43 1 16 39
M  V30 44 1 17 40
M  V30 45 1 17 41
M  V30 46 1 22 42
M  V30 47 1 23 43
M  V30 48 1 24 44
M  V30 49 1 25 45
M  V30 50 1 26 46
M  V30 51 1 27 47
M  V30 END BOND
M  V30 END CTAB
M  END
>  <Dataset>  (415) 
ChEMBL_Kinases

>  <Ligand_Instance>  (415) 
nan

>  <PDB_ID>  (415) 
nan

>  <Standardized_SMILES>  (415) 
Clc1ccc(C2CC(c3ccc4c(c3)OCCO4)=NN2c2ccccc2)cc1Cl

>  <Name>  (415) 
nan

>  <Pocket>  (415) 
nan

>  <ATP_Site>  (415) 
nan

>  <Peripheral>  (415) 
nan

>  <Num_H_Atoms_ProtBoundConf>  (415) 
nan

>  <Num_Resolved_Atoms>  (415) 
nan

>  <Num_Not_Resolved_Atoms>  (415) 
nan

$$$$
CHEMBL498009
     RDKit          3D

  0  0  0  0  0  0  0  0  0  0999 V3000
M  V30 BEGIN CTAB
M  V30 COUNTS 48 51 0 0 0
M  V30 BEGIN ATOM
M  V30 1 C 3.600087 -5.426387 4.623075 0
M  V30 2 C 3.159486 -4.861481 3.646066 0
M  V30 3 C 2.640541 -4.178959 2.443299 0
M  V30 4 N 3.743689 -3.573959 1.762262 0
M  V30 5 C 4.294324 -2.477929 2.536175 0
M  V30 6 C 3.502648 -3.216872 0.394789 0
M  V30 7 C 2.382121 -2.237998 0.270791 0
M  V30 8 C 2.711177 -0.898401 0.323252 0
M  V30 9 C 1.730966 0.068621 0.215332 0
M  V30 10 N 0.447360 -0.366075 0.057239 0
M  V30 11 C -0.679183 0.364512 -0.070984 0
M  V30 12 C -0.799966 1.821738 -0.070750 0
M  V30 13 C -1.234162 2.662627 -1.055764 0
M  V30 14 C -1.255945 4.012009 -0.809105 0
M  V30 15 N -0.853397 4.498080 0.389972 0
M  V30 16 C -0.426672 3.678094 1.359930 0
M  V30 17 N -0.016682 4.244348 2.598516 0
M  V30 18 N -0.404921 2.351181 1.119070 0
M  V30 19 C -1.763817 -0.463605 -0.209360 0
M  V30 20 C -3.190941 -0.208617 -0.377849 0
M  V30 21 C -4.027680 0.419624 0.511317 0
M  V30 22 C -5.362615 0.608562 0.251215 0
M  V30 23 C -5.898612 0.158835 -0.937750 0
M  V30 24 F -7.225303 0.369367 -1.147297 0
M  V30 25 C -5.072994 -0.480361 -1.855735 0
M  V30 26 C -3.728493 -0.667492 -1.586948 0
M  V30 27 N -1.261064 -1.723860 -0.161282 0
M  V30 28 C 0.084737 -1.662995 0.001092 0
M  V30 29 C 1.069417 -2.631617 0.109672 0
M  V30 30 H 3.995953 -5.935947 5.475144 0
M  V30 31 H 1.883340 -3.457153 2.804142 0
M  V30 32 H 2.181736 -4.949956 1.811963 0
M  V30 33 H 4.717432 -2.926198 3.464165 0
M  V30 34 H 3.556071 -1.717956 2.831832 0
M  V30 35 H 5.166203 -2.037356 2.007968 0
M  V30 36 H 4.407367 -2.775151 -0.027385 0
M  V30 37 H 3.167125 -4.157448 -0.123622 0
M  V30 38 H 3.732441 -0.545685 0.449288 0
M  V30 39 H 1.947133 1.136868 0.252035 0
M  V30 40 H -1.525000 2.140537 -1.961201 0
M  V30 41 H -1.613117 4.635921 -1.635132 0
M  V30 42 H 0.900685 4.328393 3.089837 0
M  V30 43 H -0.647919 4.727203 3.300958 0
M  V30 44 H -3.552892 0.748563 1.423547 0
M  V30 45 H -5.905310 1.109825 1.021939 0
M  V30 46 H -5.529142 -0.813891 -2.767004 0
M  V30 47 H -3.119447 -1.168417 -2.323301 0
M  V30 48 H 0.817264 -3.690351 0.069315 0
M  V30 END ATOM
M  V30 BEGIN BOND
M  V30 1 3 1 2
M  V30 2 1 2 3
M  V30 3 1 3 4
M  V30 4 1 4 5
M  V30 5 1 4 6
M  V30 6 1 6 7
M  V30 7 1 7 8
M  V30 8 2 8 9
M  V30 9 1 9 10
M  V30 10 1 10 11
M  V30 11 1 11 12
M  V30 12 2 12 13
M  V30 13 1 13 14
M  V30 14 2 14 15
M  V30 15 1 15 16
M  V30 16 1 16 17
M  V30 17 2 16 18
M  V30 18 2 11 19
M  V30 19 1 19 20
M  V30 20 2 20 21
M  V30 21 1 21 22
M  V30 22 2 22 23
M  V30 23 1 23 24
M  V30 24 1 23 25
M  V30 25 2 25 26
M  V30 26 1 19 27
M  V30 27 2 27 28
M  V30 28 1 28 29
M  V30 29 2 29 7
M  V30 30 1 28 10
M  V30 31 1 18 12
M  V30 32 1 26 20
M  V30 33 1 1 30
M  V30 34 1 3 31
M  V30 35 1 3 32
M  V30 36 1 5 33
M  V30 37 1 5 34
M  V30 38 1 5 35
M  V30 39 1 6 36
M  V30 40 1 6 37
M  V30 41 1 8 38
M  V30 42 1 9 39
M  V30 43 1 13 40
M  V30 44 1 14 41
M  V30 45 1 17 42
M  V30 46 1 17 43
M  V30 47 1 21 44
M  V30 48 1 22 45
M  V30 49 1 25 46
M  V30 50 1 26 47
M  V30 51 1 29 48
M  V30 END BOND
M  V30 END CTAB
M  END
>  <Dataset>  (416) 
ChEMBL_Kinases

>  <Ligand_Instance>  (416) 
nan

>  <PDB_ID>  (416) 
nan

>  <Standardized_SMILES>  (416) 
C#CCN(C)Cc1ccn2c(-c3ccnc(N)n3)c(-c3ccc(F)cc3)nc2c1

>  <Name>  (416) 
nan

>  <Pocket>  (416) 
nan

>  <ATP_Site>  (416) 
nan

>  <Peripheral>  (416) 
nan

>  <Num_H_Atoms_ProtBoundConf>  (416) 
nan

>  <Num_Resolved_Atoms>  (416) 
nan

>  <Num_Not_Resolved_Atoms>  (416) 
nan

$$$$
CHEMBL3805691
     RDKit          3D

  0  0  0  0  0  0  0  0  0  0999 V3000
M  V30 BEGIN CTAB
M  V30 COUNTS 48 51 0 0 0
M  V30 BEGIN ATOM
M  V30 1 C 2.525989 -2.393221 3.815162 0
M  V30 2 N 3.945825 -2.250319 3.557169 0
M  V30 3 N 4.824339 -2.775162 4.427879 0
M  V30 4 C 6.084111 -2.547484 4.030939 0
M  V30 5 C 5.898819 -1.850354 2.862869 0
M  V30 6 Cl 7.367479 -1.385281 2.064606 0
M  V30 7 C 4.585666 -1.651064 2.543672 0
M  V30 8 C 3.999037 -0.975005 1.416874 0
M  V30 9 C 2.647816 -0.838084 1.200669 0
M  V30 10 C 2.347425 -0.141540 0.038307 0
M  V30 11 C 1.094440 0.249382 -0.603717 0
M  V30 12 O 1.098623 0.895509 -1.684710 0
M  V30 13 N -0.162372 -0.111361 0.011806 0
M  V30 14 C -1.488486 0.231618 -0.549020 0
M  V30 15 C -2.456643 -0.441984 0.354691 0
M  V30 16 C -3.205202 -1.581018 0.153824 0
M  V30 17 C -4.080452 -2.059900 1.101470 0
M  V30 18 C -4.235129 -1.408062 2.291839 0
M  V30 19 F -5.108982 -1.925562 3.183206 0
M  V30 20 C -3.488364 -0.251657 2.522055 0
M  V30 21 C -2.601007 0.231480 1.557149 0
M  V30 22 C -1.636600 -0.375825 -1.917747 0
M  V30 23 C -2.952572 0.011918 -2.505907 0
M  V30 24 N -2.959677 1.484213 -2.639231 0
M  V30 25 C -2.963472 2.057531 -1.296580 0
M  V30 26 C -1.661430 1.703343 -0.627876 0
M  V30 27 O 3.546704 0.153654 -0.466931 0
M  V30 28 C 4.470794 -0.318829 0.314685 0
M  V30 29 Cl 6.132339 -0.071804 -0.114262 0
M  V30 30 H 2.024878 -1.400262 4.010497 0
M  V30 31 H 1.995431 -3.015779 3.072326 0
M  V30 32 H 2.386453 -2.933719 4.787023 0
M  V30 33 H 6.904266 -2.907579 4.625816 0
M  V30 34 H 1.757753 -1.144781 1.721544 0
M  V30 35 H -0.049608 -0.655921 0.922194 0
M  V30 36 H -3.044102 -2.074392 -0.788216 0
M  V30 37 H -4.619758 -2.966606 0.835885 0
M  V30 38 H -3.700047 0.173333 3.503185 0
M  V30 39 H -2.140747 1.132131 1.961990 0
M  V30 40 H -0.845513 0.023095 -2.619201 0
M  V30 41 H -1.459330 -1.471344 -1.917751 0
M  V30 42 H -3.834852 -0.190386 -1.871595 0
M  V30 43 H -3.081432 -0.376077 -3.541698 0
M  V30 44 H -3.889778 1.698901 -3.071450 0
M  V30 45 H -2.948098 3.166867 -1.472657 0
M  V30 46 H -3.847102 1.808361 -0.709816 0
M  V30 47 H -0.871996 2.079643 -1.345314 0
M  V30 48 H -1.561411 2.222174 0.349072 0
M  V30 END ATOM
M  V30 BEGIN BOND
M  V30 1 1 1 2
M  V30 2 1 2 3
M  V30 3 2 3 4
M  V30 4 1 4 5
M  V30 5 1 5 6
M  V30 6 2 5 7
M  V30 7 1 7 8
M  V30 8 1 8 9
M  V30 9 2 9 10
M  V30 10 1 10 11
M  V30 11 2 11 12
M  V30 12 1 11 13
M  V30 13 1 13 14
M  V30 14 1 14 15
M  V30 15 2 15 16
M  V30 16 1 16 17
M  V30 17 2 17 18
M  V30 18 1 18 19
M  V30 19 1 18 20
M  V30 20 2 20 21
M  V30 21 1 14 22
M  V30 22 1 22 23
M  V30 23 1 23 24
M  V30 24 1 24 25
M  V30 25 1 25 26
M  V30 26 1 10 27
M  V30 27 1 27 28
M  V30 28 1 28 29
M  V30 29 1 7 2
M  V30 30 2 28 8
M  V30 31 1 26 14
M  V30 32 1 21 15
M  V30 33 1 1 30
M  V30 34 1 1 31
M  V30 35 1 1 32
M  V30 36 1 4 33
M  V30 37 1 9 34
M  V30 38 1 13 35
M  V30 39 1 16 36
M  V30 40 1 17 37
M  V30 41 1 20 38
M  V30 42 1 21 39
M  V30 43 1 22 40
M  V30 44 1 22 41
M  V30 45 1 23 42
M  V30 46 1 23 43
M  V30 47 1 24 44
M  V30 48 1 25 45
M  V30 49 1 25 46
M  V30 50 1 26 47
M  V30 51 1 26 48
M  V30 END BOND
M  V30 END CTAB
M  END
>  <Dataset>  (417) 
ChEMBL_Kinases

>  <Ligand_Instance>  (417) 
nan

>  <PDB_ID>  (417) 
nan

>  <Standardized_SMILES>  (417) 
Cn1ncc(Cl)c1-c1cc(C(=O)NC2(c3ccc(F)cc3)CCNCC2)oc1Cl

>  <Name>  (417) 
nan

>  <Pocket>  (417) 
nan

>  <ATP_Site>  (417) 
nan

>  <Peripheral>  (417) 
nan

>  <Num_H_Atoms_ProtBoundConf>  (417) 
nan

>  <Num_Resolved_Atoms>  (417) 
nan

>  <Num_Not_Resolved_Atoms>  (417) 
nan

$$$$
CHEMBL3805617
     RDKit          3D

  0  0  0  0  0  0  0  0  0  0999 V3000
M  V30 BEGIN CTAB
M  V30 COUNTS 48 51 0 0 0
M  V30 BEGIN ATOM
M  V30 1 C 4.128996 -2.859911 0.626301 0
M  V30 2 N 4.730592 -2.622977 -0.645852 0
M  V30 3 N 5.915363 -3.133186 -1.027203 0
M  V30 4 C 6.221513 -2.745563 -2.254847 0
M  V30 5 C 5.170683 -1.950235 -2.661724 0
M  V30 6 Br 5.207382 -1.171701 -4.399884 0
M  V30 7 C 4.240797 -1.879635 -1.645486 0
M  V30 8 C 3.000056 -1.128861 -1.716960 0
M  V30 9 C 2.493422 -0.363819 -2.742576 0
M  V30 10 O 1.319452 0.166404 -2.419812 0
M  V30 11 C 0.981515 -0.191792 -1.217166 0
M  V30 12 C -0.247702 0.192628 -0.508413 0
M  V30 13 O -1.007602 0.948774 -1.198541 0
M  V30 14 N -0.481764 -0.282759 0.820231 0
M  V30 15 C -1.760651 0.221705 1.328351 0
M  V30 16 C -1.944330 -0.430944 2.656451 0
M  V30 17 C -1.445312 -1.686344 2.974214 0
M  V30 18 C -1.611230 -2.289612 4.191966 0
M  V30 19 C -2.304885 -1.648473 5.181371 0
M  V30 20 F -2.438190 -2.293195 6.367107 0
M  V30 21 C -2.834350 -0.387727 4.936339 0
M  V30 22 C -2.633613 0.165644 3.691967 0
M  V30 23 C -2.928909 -0.207619 0.497160 0
M  V30 24 C -3.905877 0.834774 0.115242 0
M  V30 25 N -3.991739 1.936785 1.052392 0
M  V30 26 C -2.695287 2.560116 1.028272 0
M  V30 27 C -1.609542 1.690810 1.551682 0
M  V30 28 C 2.022508 -1.007510 -0.752653 0
M  V30 29 H 4.063957 -1.922524 1.240649 0
M  V30 30 H 4.816248 -3.509069 1.247142 0
M  V30 31 H 3.183426 -3.438120 0.605067 0
M  V30 32 H 7.156084 -3.086580 -2.689215 0
M  V30 33 H 2.925729 -0.169548 -3.707566 0
M  V30 34 H 0.266360 -0.895530 1.216008 0
M  V30 35 H -0.890682 -2.231088 2.222211 0
M  V30 36 H -1.182695 -3.286613 4.359805 0
M  V30 37 H -3.382272 0.116484 5.720785 0
M  V30 38 H -3.066551 1.136214 3.568573 0
M  V30 39 H -3.512888 -1.063162 0.950730 0
M  V30 40 H -2.518967 -0.656362 -0.435219 0
M  V30 41 H -4.937216 0.425302 0.042330 0
M  V30 42 H -3.717292 1.306543 -0.893883 0
M  V30 43 H -4.670304 2.626613 0.631402 0
M  V30 44 H -2.786327 3.476829 1.656293 0
M  V30 45 H -2.448095 2.967130 0.006056 0
M  V30 46 H -0.660573 2.077710 1.071903 0
M  V30 47 H -1.452898 1.948137 2.629770 0
M  V30 48 H 1.967686 -1.425353 0.223958 0
M  V30 END ATOM
M  V30 BEGIN BOND
M  V30 1 1 1 2
M  V30 2 1 2 3
M  V30 3 2 3 4
M  V30 4 1 4 5
M  V30 5 1 5 6
M  V30 6 2 5 7
M  V30 7 1 7 8
M  V30 8 2 8 9
M  V30 9 1 9 10
M  V30 10 1 10 11
M  V30 11 1 11 12
M  V30 12 2 12 13
M  V30 13 1 12 14
M  V30 14 1 14 15
M  V30 15 1 15 16
M  V30 16 2 16 17
M  V30 17 1 17 18
M  V30 18 2 18 19
M  V30 19 1 19 20
M  V30 20 1 19 21
M  V30 21 2 21 22
M  V30 22 1 15 23
M  V30 23 1 23 24
M  V30 24 1 24 25
M  V30 25 1 25 26
M  V30 26 1 26 27
M  V30 27 2 11 28
M  V30 28 1 7 2
M  V30 29 1 28 8
M  V30 30 1 27 15
M  V30 31 1 22 16
M  V30 32 1 1 29
M  V30 33 1 1 30
M  V30 34 1 1 31
M  V30 35 1 4 32
M  V30 36 1 9 33
M  V30 37 1 14 34
M  V30 38 1 17 35
M  V30 39 1 18 36
M  V30 40 1 21 37
M  V30 41 1 22 38
M  V30 42 1 23 39
M  V30 43 1 23 40
M  V30 44 1 24 41
M  V30 45 1 24 42
M  V30 46 1 25 43
M  V30 47 1 26 44
M  V30 48 1 26 45
M  V30 49 1 27 46
M  V30 50 1 27 47
M  V30 51 1 28 48
M  V30 END BOND
M  V30 END CTAB
M  END
>  <Dataset>  (418) 
ChEMBL_Kinases

>  <Ligand_Instance>  (418) 
nan

>  <PDB_ID>  (418) 
nan

>  <Standardized_SMILES>  (418) 
Cn1ncc(Br)c1-c1coc(C(=O)NC2(c3ccc(F)cc3)CCNCC2)c1

>  <Name>  (418) 
nan

>  <Pocket>  (418) 
nan

>  <ATP_Site>  (418) 
nan

>  <Peripheral>  (418) 
nan

>  <Num_H_Atoms_ProtBoundConf>  (418) 
nan

>  <Num_Resolved_Atoms>  (418) 
nan

>  <Num_Not_Resolved_Atoms>  (418) 
nan

$$$$
CHEMBL3805508
     RDKit          3D

  0  0  0  0  0  0  0  0  0  0999 V3000
M  V30 BEGIN CTAB
M  V30 COUNTS 61 66 0 0 0
M  V30 BEGIN ATOM
M  V30 1 C 3.873877 -2.848045 5.728255 0
M  V30 2 C 2.928287 -1.868650 5.933548 0
M  V30 3 C 2.734862 -0.873331 4.999743 0
M  V30 4 C 3.483582 -0.837650 3.841626 0
M  V30 5 C 3.258233 0.244302 2.847767 0
M  V30 6 O 2.290914 -0.083160 1.882010 0
M  V30 7 C 1.931021 0.797121 0.857553 0
M  V30 8 C 2.540012 2.045536 0.774848 0
M  V30 9 C 2.157930 2.888650 -0.252289 0
M  V30 10 C 1.198222 2.463866 -1.145440 0
M  V30 11 C 0.576454 1.219528 -1.081179 0
M  V30 12 C -0.437891 0.842709 -2.074790 0
M  V30 13 C -1.778658 0.715506 -1.399967 0
M  V30 14 C -1.784530 -0.718674 -1.001558 0
M  V30 15 C -2.653584 -1.354534 0.004676 0
M  V30 16 C -2.479195 -2.708526 0.210525 0
M  V30 17 C -3.254008 -3.379019 1.135765 0
M  V30 18 C -4.212893 -2.660457 1.854646 0
M  V30 19 C -4.360648 -1.308600 1.623962 0
M  V30 20 C -3.589793 -0.611437 0.695200 0
M  V30 21 O -5.321836 -0.627701 2.355546 0
M  V30 22 C -6.446365 -1.184045 2.960922 0
M  V30 23 C -6.442093 -2.683049 2.840754 0
M  V30 24 O -5.094079 -3.117845 2.822880 0
M  V30 25 N -0.893017 -1.330671 -1.687090 0
M  V30 26 N -0.226583 -0.498836 -2.552710 0
M  V30 27 C 0.535165 -0.873782 -3.710022 0
M  V30 28 C 0.626134 -2.215646 -4.013662 0
M  V30 29 C 1.354955 -2.586859 -5.121567 0
M  V30 30 C 1.971793 -1.601394 -5.893382 0
M  V30 31 C 1.882569 -0.243765 -5.590314 0
M  V30 32 C 1.148772 0.092761 -4.479587 0
M  V30 33 C 0.975417 0.400000 -0.049011 0
M  V30 34 C 4.420532 -1.816234 3.648280 0
M  V30 35 C 4.627897 -2.815794 4.566510 0
M  V30 36 H 3.976399 -3.593534 6.490439 0
M  V30 37 H 2.303494 -1.829930 6.815615 0
M  V30 38 H 2.000310 -0.102916 5.147543 0
M  V30 39 H 4.266069 0.421858 2.379008 0
M  V30 40 H 2.956069 1.165352 3.406530 0
M  V30 41 H 3.292856 2.377522 1.476395 0
M  V30 42 H 2.586933 3.886899 -0.389407 0
M  V30 43 H 0.910623 3.148360 -1.951512 0
M  V30 44 H -0.444979 1.591343 -2.891033 0
M  V30 45 H -1.826852 1.292969 -0.452544 0
M  V30 46 H -2.633053 1.003640 -2.030714 0
M  V30 47 H -1.755795 -3.321771 -0.312480 0
M  V30 48 H -3.217333 -4.431548 1.390902 0
M  V30 49 H -3.709278 0.449560 0.517293 0
M  V30 50 H -6.515980 -0.939626 4.061795 0
M  V30 51 H -7.334762 -0.736650 2.424587 0
M  V30 52 H -6.991210 -3.179602 3.662202 0
M  V30 53 H -6.935015 -2.915896 1.861379 0
M  V30 54 H 0.125525 -2.939961 -3.377793 0
M  V30 55 H 1.449849 -3.638019 -5.393858 0
M  V30 56 H 2.559971 -1.850087 -6.780525 0
M  V30 57 H 2.374088 0.494433 -6.211547 0
M  V30 58 H 1.059338 1.156546 -4.213649 0
M  V30 59 H 0.535357 -0.580590 0.062642 0
M  V30 60 H 5.038187 -1.845670 2.765250 0
M  V30 61 H 5.359921 -3.605572 4.446462 0
M  V30 END ATOM
M  V30 BEGIN BOND
M  V30 1 2 1 2
M  V30 2 1 2 3
M  V30 3 2 3 4
M  V30 4 1 4 5
M  V30 5 1 5 6
M  V30 6 1 6 7
M  V30 7 2 7 8
M  V30 8 1 8 9
M  V30 9 2 9 10
M  V30 10 1 10 11
M  V30 11 1 11 12
M  V30 12 1 12 13
M  V30 13 1 13 14
M  V30 14 1 14 15
M  V30 15 2 15 16
M  V30 16 1 16 17
M  V30 17 2 17 18
M  V30 18 1 18 19
M  V30 19 2 19 20
M  V30 20 1 19 21
M  V30 21 1 21 22
M  V30 22 1 22 23
M  V30 23 1 23 24
M  V30 24 2 14 25
M  V30 25 1 25 26
M  V30 26 1 26 27
M  V30 27 2 27 28
M  V30 28 1 28 29
M  V30 29 2 29 30
M  V30 30 1 30 31
M  V30 31 2 31 32
M  V30 32 2 11 33
M  V30 33 1 4 34
M  V30 34 2 34 35
M  V30 35 1 35 1
M  V30 36 1 33 7
M  V30 37 1 26 12
M  V30 38 1 32 27
M  V30 39 1 20 15
M  V30 40 1 24 18
M  V30 41 1 1 36
M  V30 42 1 2 37
M  V30 43 1 3 38
M  V30 44 1 5 39
M  V30 45 1 5 40
M  V30 46 1 8 41
M  V30 47 1 9 42
M  V30 48 1 10 43
M  V30 49 1 12 44
M  V30 50 1 13 45
M  V30 51 1 13 46
M  V30 52 1 16 47
M  V30 53 1 17 48
M  V30 54 1 20 49
M  V30 55 1 22 50
M  V30 56 1 22 51
M  V30 57 1 23 52
M  V30 58 1 23 53
M  V30 59 1 28 54
M  V30 60 1 29 55
M  V30 61 1 30 56
M  V30 62 1 31 57
M  V30 63 1 32 58
M  V30 64 1 33 59
M  V30 65 1 34 60
M  V30 66 1 35 61
M  V30 END BOND
M  V30 END CTAB
M  END
>  <Dataset>  (419) 
ChEMBL_Kinases

>  <Ligand_Instance>  (419) 
nan

>  <PDB_ID>  (419) 
nan

>  <Standardized_SMILES>  (419) 
c1ccc(COc2cccc(C3CC(c4ccc5c(c4)OCCO5)=NN3c3ccccc3)c2)cc1

>  <Name>  (419) 
nan

>  <Pocket>  (419) 
nan

>  <ATP_Site>  (419) 
nan

>  <Peripheral>  (419) 
nan

>  <Num_H_Atoms_ProtBoundConf>  (419) 
nan

>  <Num_Resolved_Atoms>  (419) 
nan

>  <Num_Not_Resolved_Atoms>  (419) 
nan

$$$$
CHEMBL380546
     RDKit          3D

  0  0  0  0  0  0  0  0  0  0999 V3000
M  V30 BEGIN CTAB
M  V30 COUNTS 44 47 0 0 0
M  V30 BEGIN ATOM
M  V30 1 C 1.954686 -3.603111 -0.570652 0
M  V30 2 N 1.437516 -3.849928 0.699096 0
M  V30 3 C 1.106988 -5.136381 1.103703 0
M  V30 4 C 0.288227 -4.870871 2.361704 0
M  V30 5 C 0.780783 -3.520755 2.867064 0
M  V30 6 C 1.582265 -2.921785 1.729526 0
M  V30 7 C 1.137200 -1.555306 1.362500 0
M  V30 8 C 1.759964 -0.342282 1.594918 0
M  V30 9 C 0.997513 0.707727 1.082074 0
M  V30 10 C 1.343781 2.122929 1.144485 0
M  V30 11 C 1.503628 2.794203 2.349681 0
M  V30 12 C 1.832499 4.137725 2.333589 0
M  V30 13 N 2.000989 4.808424 1.161095 0
M  V30 14 C 1.843189 4.146052 -0.012014 0
M  V30 15 C 1.512641 2.794712 -0.057137 0
M  V30 16 C -0.103391 0.087397 0.533965 0
M  V30 17 C -1.202200 0.779530 -0.131448 0
M  V30 18 C -1.465005 0.498538 -1.471939 0
M  V30 19 C -2.522361 1.192387 -2.039120 0
M  V30 20 C -3.287004 2.110528 -1.347849 0
M  V30 21 F -4.277860 2.688551 -2.070920 0
M  V30 22 C -3.003237 2.371185 -0.013514 0
M  V30 23 C -1.950008 1.691541 0.581931 0
M  V30 24 N 0.007680 -1.240162 0.714486 0
M  V30 25 H 1.514016 -4.340484 -1.290524 0
M  V30 26 H 1.691023 -2.584895 -0.908476 0
M  V30 27 H 3.043684 -3.718257 -0.602475 0
M  V30 28 H 0.518297 -5.659809 0.327473 0
M  V30 29 H 1.949894 -5.793931 1.428986 0
M  V30 30 H -0.773008 -4.799763 2.011719 0
M  V30 31 H 0.414257 -5.671803 3.107662 0
M  V30 32 H -0.089767 -2.873166 3.047113 0
M  V30 33 H 1.403120 -3.645609 3.780236 0
M  V30 34 H 2.662113 -2.846518 2.022689 0
M  V30 35 H 2.713306 -0.276495 2.112126 0
M  V30 36 H 1.370350 2.264135 3.291749 0
M  V30 37 H 1.969659 4.711588 3.240622 0
M  V30 38 H 1.961825 4.615384 -0.995712 0
M  V30 39 H 1.388424 2.272977 -0.998913 0
M  V30 40 H -0.862065 -0.218198 -1.997278 0
M  V30 41 H -2.673680 0.923139 -3.095527 0
M  V30 42 H -3.630862 3.098634 0.484566 0
M  V30 43 H -1.744664 1.908266 1.621850 0
M  V30 44 H -0.706518 -1.926861 0.384480 0
M  V30 END ATOM
M  V30 BEGIN BOND
M  V30 1 1 1 2
M  V30 2 1 2 3
M  V30 3 1 3 4
M  V30 4 1 4 5
M  V30 5 1 5 6
M  V30 6 1 6 7
M  V30 7 2 7 8
M  V30 8 1 8 9
M  V30 9 1 9 10
M  V30 10 2 10 11
M  V30 11 1 11 12
M  V30 12 2 12 13
M  V30 13 1 13 14
M  V30 14 2 14 15
M  V30 15 2 9 16
M  V30 16 1 16 17
M  V30 17 2 17 18
M  V30 18 1 18 19
M  V30 19 2 19 20
M  V30 20 1 20 21
M  V30 21 1 20 22
M  V30 22 2 22 23
M  V30 23 1 16 24
M  V30 24 1 6 2
M  V30 25 1 24 7
M  V30 26 1 15 10
M  V30 27 1 23 17
M  V30 28 1 1 25
M  V30 29 1 1 26
M  V30 30 1 1 27
M  V30 31 1 3 28
M  V30 32 1 3 29
M  V30 33 1 4 30
M  V30 34 1 4 31
M  V30 35 1 5 32
M  V30 36 1 5 33
M  V30 37 1 6 34
M  V30 38 1 8 35
M  V30 39 1 11 36
M  V30 40 1 12 37
M  V30 41 1 14 38
M  V30 42 1 15 39
M  V30 43 1 18 40
M  V30 44 1 19 41
M  V30 45 1 22 42
M  V30 46 1 23 43
M  V30 47 1 24 44
M  V30 END BOND
M  V30 END CTAB
M  END
>  <Dataset>  (420) 
ChEMBL_Kinases

>  <Ligand_Instance>  (420) 
nan

>  <PDB_ID>  (420) 
nan

>  <Standardized_SMILES>  (420) 
CN1CCCC1c1cc(-c2ccncc2)c(-c2ccc(F)cc2)[nH]1

>  <Name>  (420) 
nan

>  <Pocket>  (420) 
nan

>  <ATP_Site>  (420) 
nan

>  <Peripheral>  (420) 
nan

>  <Num_H_Atoms_ProtBoundConf>  (420) 
nan

>  <Num_Resolved_Atoms>  (420) 
nan

>  <Num_Not_Resolved_Atoms>  (420) 
nan

$$$$
CHEMBL3805457
     RDKit          3D

  0  0  0  0  0  0  0  0  0  0999 V3000
M  V30 BEGIN CTAB
M  V30 COUNTS 48 51 0 0 0
M  V30 BEGIN ATOM
M  V30 1 C 2.637809 -3.308958 0.556890 0
M  V30 2 N 3.830117 -3.036108 -0.259840 0
M  V30 3 N 4.809962 -3.914547 -0.340870 0
M  V30 4 C 5.782668 -3.445872 -1.136664 0
M  V30 5 C 5.288146 -2.220523 -1.513131 0
M  V30 6 Cl 6.236186 -1.224341 -2.580526 0
M  V30 7 C 4.064003 -1.916895 -0.988351 0
M  V30 8 C 3.157741 -0.796847 -1.072009 0
M  V30 9 O 2.001473 -0.780001 -0.464401 0
M  V30 10 C 1.304869 0.275317 -0.626726 0
M  V30 11 C -0.011218 0.468762 -0.023320 0
M  V30 12 O -0.616893 1.527621 -0.235898 0
M  V30 13 N -0.636651 -0.486321 0.792719 0
M  V30 14 C -1.919605 -0.171033 1.316881 0
M  V30 15 C -1.891472 0.997192 2.233724 0
M  V30 16 C -0.708311 1.286055 2.921413 0
M  V30 17 C -0.598324 2.358178 3.795769 0
M  V30 18 C -1.682016 3.183336 4.010798 0
M  V30 19 Cl -1.686306 4.571681 5.085544 0
M  V30 20 C -2.860474 2.916292 3.341868 0
M  V30 21 Cl -4.273756 3.919889 3.566057 0
M  V30 22 C -2.950280 1.847619 2.478095 0
M  V30 23 C -2.362014 -1.369892 2.158770 0
M  V30 24 C -2.567066 -2.581453 1.254332 0
M  V30 25 N -3.560802 -2.309510 0.232415 0
M  V30 26 C -3.027309 -1.241690 -0.599925 0
M  V30 27 C -2.993457 -0.000619 0.274796 0
M  V30 28 C 1.999522 1.136731 -1.432287 0
M  V30 29 C 3.149632 0.420395 -1.682884 0
M  V30 30 Br 4.513407 1.136548 -2.766106 0
M  V30 31 H 1.807204 -3.582673 -0.121675 0
M  V30 32 H 2.418587 -2.387649 1.158166 0
M  V30 33 H 2.824119 -4.178536 1.211909 0
M  V30 34 H 6.700775 -3.954297 -1.380398 0
M  V30 35 H -0.121489 -1.393480 0.976839 0
M  V30 36 H 0.183207 0.701242 2.817412 0
M  V30 37 H 0.308637 2.587193 4.328806 0
M  V30 38 H -3.863451 1.655221 1.971008 0
M  V30 39 H -3.312903 -1.174842 2.674885 0
M  V30 40 H -1.511608 -1.618472 2.821226 0
M  V30 41 H -1.609321 -2.859589 0.772722 0
M  V30 42 H -2.965916 -3.390514 1.895729 0
M  V30 43 H -3.709134 -3.175843 -0.301855 0
M  V30 44 H -2.007724 -1.571242 -0.883839 0
M  V30 45 H -3.584329 -1.089438 -1.529305 0
M  V30 46 H -2.973383 0.939179 -0.272960 0
M  V30 47 H -3.969889 -0.030178 0.827103 0
M  V30 48 H 1.701061 2.115698 -1.768182 0
M  V30 END ATOM
M  V30 BEGIN BOND
M  V30 1 1 1 2
M  V30 2 1 2 3
M  V30 3 2 3 4
M  V30 4 1 4 5
M  V30 5 1 5 6
M  V30 6 2 5 7
M  V30 7 1 7 8
M  V30 8 1 8 9
M  V30 9 1 9 10
M  V30 10 1 10 11
M  V30 11 2 11 12
M  V30 12 1 11 13
M  V30 13 1 13 14
M  V30 14 1 14 15
M  V30 15 2 15 16
M  V30 16 1 16 17
M  V30 17 2 17 18
M  V30 18 1 18 19
M  V30 19 1 18 20
M  V30 20 1 20 21
M  V30 21 2 20 22
M  V30 22 1 14 23
M  V30 23 1 23 24
M  V30 24 1 24 25
M  V30 25 1 25 26
M  V30 26 1 26 27
M  V30 27 2 10 28
M  V30 28 1 28 29
M  V30 29 1 29 30
M  V30 30 1 7 2
M  V30 31 2 29 8
M  V30 32 1 27 14
M  V30 33 1 22 15
M  V30 34 1 1 31
M  V30 35 1 1 32
M  V30 36 1 1 33
M  V30 37 1 4 34
M  V30 38 1 13 35
M  V30 39 1 16 36
M  V30 40 1 17 37
M  V30 41 1 22 38
M  V30 42 1 23 39
M  V30 43 1 23 40
M  V30 44 1 24 41
M  V30 45 1 24 42
M  V30 46 1 25 43
M  V30 47 1 26 44
M  V30 48 1 26 45
M  V30 49 1 27 46
M  V30 50 1 27 47
M  V30 51 1 28 48
M  V30 END BOND
M  V30 END CTAB
M  END
>  <Dataset>  (421) 
ChEMBL_Kinases

>  <Ligand_Instance>  (421) 
nan

>  <PDB_ID>  (421) 
nan

>  <Standardized_SMILES>  (421) 
Cn1ncc(Cl)c1-c1oc(C(=O)NC2(c3ccc(Cl)c(Cl)c3)CCNCC2)cc1Br

>  <Name>  (421) 
nan

>  <Pocket>  (421) 
nan

>  <ATP_Site>  (421) 
nan

>  <Peripheral>  (421) 
nan

>  <Num_H_Atoms_ProtBoundConf>  (421) 
nan

>  <Num_Resolved_Atoms>  (421) 
nan

>  <Num_Not_Resolved_Atoms>  (421) 
nan

$$$$
CHEMBL3805443
     RDKit          3D

  0  0  0  0  0  0  0  0  0  0999 V3000
M  V30 BEGIN CTAB
M  V30 COUNTS 52 55 0 0 0
M  V30 BEGIN ATOM
M  V30 1 C -0.760146 1.915866 3.317468 0
M  V30 2 N 0.272355 1.913276 2.285170 0
M  V30 3 C 1.319164 2.743690 2.129040 0
M  V30 4 C 2.083950 2.437582 1.039048 0
M  V30 5 C 3.267638 3.071801 0.537401 0
M  V30 6 C 3.821283 4.155696 1.145697 0
M  V30 7 Br 3.422014 5.200580 2.662929 0
M  V30 8 C 4.941262 4.525317 0.424049 0
M  V30 9 N 5.043834 3.658909 -0.605968 0
M  V30 10 N 4.027610 2.780139 -0.533071 0
M  V30 11 C 3.817263 1.715387 -1.463476 0
M  V30 12 C 1.420496 1.339987 0.527323 0
M  V30 13 C 0.312850 1.014475 1.283999 0
M  V30 14 C -0.649992 -0.072492 1.082438 0
M  V30 15 O -1.593630 -0.217276 1.869342 0
M  V30 16 N -0.496094 -0.958538 -0.018788 0
M  V30 17 C -1.481809 -2.009700 -0.158989 0
M  V30 18 C -1.353940 -3.028329 0.917806 0
M  V30 19 C -0.032036 -3.470969 1.033300 0
M  V30 20 C 0.323054 -4.427798 1.979563 0
M  V30 21 C -0.659551 -4.916601 2.787070 0
M  V30 22 Cl -0.322495 -6.130256 4.018965 0
M  V30 23 C -1.954520 -4.498964 2.691406 0
M  V30 24 Cl -3.295475 -5.061955 3.679533 0
M  V30 25 C -2.314156 -3.551577 1.756676 0
M  V30 26 C -2.877535 -1.502324 -0.324719 0
M  V30 27 C -3.692354 -2.488761 -1.089544 0
M  V30 28 N -3.221995 -3.815137 -1.138458 0
M  V30 29 C -1.874544 -4.049424 -1.407814 0
M  V30 30 C -1.137414 -2.734563 -1.456337 0
M  V30 31 H -0.534778 2.745181 4.049840 0
M  V30 32 H -1.756993 2.182394 2.907773 0
M  V30 33 H -0.725559 0.975671 3.872019 0
M  V30 34 H 1.449353 3.537756 2.847905 0
M  V30 35 H 5.725432 5.293186 0.463882 0
M  V30 36 H 3.931442 0.717104 -1.001987 0
M  V30 37 H 2.883765 1.868275 -2.028380 0
M  V30 38 H 4.626175 1.745534 -2.250310 0
M  V30 39 H 1.643960 0.737531 -0.339393 0
M  V30 40 H 0.325215 -0.810426 -0.680214 0
M  V30 41 H 0.818923 -3.131538 0.425652 0
M  V30 42 H 1.310980 -4.816628 2.129229 0
M  V30 43 H -3.294493 -3.134825 1.574626 0
M  V30 44 H -3.400344 -1.326648 0.641909 0
M  V30 45 H -2.825848 -0.542187 -0.856191 0
M  V30 46 H -3.752589 -2.123209 -2.155444 0
M  V30 47 H -4.747731 -2.476806 -0.746323 0
M  V30 48 H -3.804190 -4.574230 -0.792281 0
M  V30 49 H -1.790964 -4.532209 -2.417401 0
M  V30 50 H -1.435673 -4.765430 -0.704769 0
M  V30 51 H -1.588309 -2.164188 -2.315023 0
M  V30 52 H -0.048519 -2.838888 -1.612491 0
M  V30 END ATOM
M  V30 BEGIN BOND
M  V30 1 1 1 2
M  V30 2 1 2 3
M  V30 3 2 3 4
M  V30 4 1 4 5
M  V30 5 2 5 6
M  V30 6 1 6 7
M  V30 7 1 6 8
M  V30 8 2 8 9
M  V30 9 1 9 10
M  V30 10 1 10 11
M  V30 11 1 4 12
M  V30 12 2 12 13
M  V30 13 1 13 14
M  V30 14 2 14 15
M  V30 15 1 14 16
M  V30 16 1 16 17
M  V30 17 1 17 18
M  V30 18 2 18 19
M  V30 19 1 19 20
M  V30 20 2 20 21
M  V30 21 1 21 22
M  V30 22 1 21 23
M  V30 23 1 23 24
M  V30 24 2 23 25
M  V30 25 1 17 26
M  V30 26 1 26 27
M  V30 27 1 27 28
M  V30 28 1 28 29
M  V30 29 1 29 30
M  V30 30 1 13 2
M  V30 31 1 30 17
M  V30 32 1 10 5
M  V30 33 1 25 18
M  V30 34 1 1 31
M  V30 35 1 1 32
M  V30 36 1 1 33
M  V30 37 1 3 34
M  V30 38 1 8 35
M  V30 39 1 11 36
M  V30 40 1 11 37
M  V30 41 1 11 38
M  V30 42 1 12 39
M  V30 43 1 16 40
M  V30 44 1 19 41
M  V30 45 1 20 42
M  V30 46 1 25 43
M  V30 47 1 26 44
M  V30 48 1 26 45
M  V30 49 1 27 46
M  V30 50 1 27 47
M  V30 51 1 28 48
M  V30 52 1 29 49
M  V30 53 1 29 50
M  V30 54 1 30 51
M  V30 55 1 30 52
M  V30 END BOND
M  V30 END CTAB
M  END
>  <Dataset>  (422) 
ChEMBL_Kinases

>  <Ligand_Instance>  (422) 
nan

>  <PDB_ID>  (422) 
nan

>  <Standardized_SMILES>  (422) 
Cn1cc(-c2c(Br)cnn2C)cc1C(=O)NC1(c2ccc(Cl)c(Cl)c2)CCNCC1

>  <Name>  (422) 
nan

>  <Pocket>  (422) 
nan

>  <ATP_Site>  (422) 
nan

>  <Peripheral>  (422) 
nan

>  <Num_H_Atoms_ProtBoundConf>  (422) 
nan

>  <Num_Resolved_Atoms>  (422) 
nan

>  <Num_Not_Resolved_Atoms>  (422) 
nan

$$$$
CHEMBL380542
     RDKit          3D

  0  0  0  0  0  0  0  0  0  0999 V3000
M  V30 BEGIN CTAB
M  V30 COUNTS 55 59 0 0 0
M  V30 BEGIN ATOM
M  V30 1 N 2.796657 -3.873035 0.626343 0
M  V30 2 C 1.442163 -3.839443 0.224871 0 CFG=2
M  V30 3 C 0.500149 -3.035857 1.064143 0
M  V30 4 O 0.731875 -1.698505 1.201794 0
M  V30 5 C 1.693984 -0.928507 1.720584 0
M  V30 6 C 2.896485 -1.036027 2.375377 0
M  V30 7 N 3.631467 0.013145 2.764212 0
M  V30 8 C 3.253679 1.285297 2.546811 0
M  V30 9 C 2.053609 1.510571 1.893147 0
M  V30 10 C 1.732974 2.916867 1.705588 0
M  V30 11 C 2.759168 3.822915 1.529174 0
M  V30 12 C 2.476662 5.159876 1.351251 0
M  V30 13 C 1.166409 5.569564 1.352869 0
M  V30 14 C 0.070196 4.718288 1.524587 0
M  V30 15 N -1.276854 5.164666 1.524273 0
M  V30 16 C -2.324069 4.245652 1.677845 0
M  V30 17 N -2.603986 3.090962 1.827018 0
M  V30 18 C -3.828237 2.617287 1.935737 0
M  V30 19 C -4.930803 3.439790 1.885235 0
M  V30 20 S -4.034899 5.067277 1.653522 0
M  V30 21 C 0.444033 3.406312 1.694755 0
M  V30 22 C 1.295376 0.401395 1.491775 0
M  V30 23 C 0.881317 -5.245226 -0.038990 0
M  V30 24 C -0.535758 -5.079848 -0.450324 0
M  V30 25 C -1.650164 -5.329710 0.334925 0
M  V30 26 N -2.796150 -5.082955 -0.333143 0
M  V30 27 C -2.441082 -4.665249 -1.574136 0
M  V30 28 C -3.265243 -4.294339 -2.622753 0
M  V30 29 C -2.613656 -3.909385 -3.783278 0
M  V30 30 C -1.228887 -3.890534 -3.904577 0
M  V30 31 C -0.446987 -4.269592 -2.829980 0
M  V30 32 C -1.062682 -4.659913 -1.655662 0
M  V30 33 H 3.399315 -4.033567 -0.201662 0
M  V30 34 H 3.002968 -4.474461 1.434931 0
M  V30 35 H 1.402952 -3.361837 -0.804823 0
M  V30 36 H -0.546251 -3.153803 0.663999 0
M  V30 37 H 0.470511 -3.491751 2.093007 0
M  V30 38 H 3.162182 -2.059587 2.548132 0
M  V30 39 H 3.982213 1.977027 2.935499 0
M  V30 40 H 3.793385 3.514692 1.525544 0
M  V30 41 H 3.278609 5.869573 1.213160 0
M  V30 42 H 0.983650 6.626910 1.210315 0
M  V30 43 H -1.356731 6.218170 1.399719 0
M  V30 44 H -3.830588 1.520514 2.065723 0
M  V30 45 H -5.939222 3.000923 1.980399 0
M  V30 46 H -0.297461 2.639057 1.838641 0
M  V30 47 H 0.395297 0.808597 0.999259 0
M  V30 48 H 0.913332 -5.848153 0.880010 0
M  V30 49 H 1.450042 -5.653022 -0.876662 0
M  V30 50 H -1.595728 -5.679689 1.358399 0
M  V30 51 H -3.774025 -5.186358 0.016718 0
M  V30 52 H -4.344119 -4.299398 -2.555912 0
M  V30 53 H -3.263673 -3.616107 -4.612627 0
M  V30 54 H -0.755958 -3.582671 -4.830626 0
M  V30 55 H 0.627636 -4.267732 -2.886892 0
M  V30 END ATOM
M  V30 BEGIN BOND
M  V30 1 1 1 2
M  V30 2 1 2 3
M  V30 3 1 3 4
M  V30 4 1 4 5
M  V30 5 2 5 6
M  V30 6 1 6 7
M  V30 7 2 7 8
M  V30 8 1 8 9
M  V30 9 1 9 10
M  V30 10 2 10 11
M  V30 11 1 11 12
M  V30 12 2 12 13
M  V30 13 1 13 14
M  V30 14 1 14 15
M  V30 15 1 15 16
M  V30 16 2 16 17
M  V30 17 1 17 18
M  V30 18 2 18 19
M  V30 19 1 19 20
M  V30 20 2 14 21
M  V30 21 2 9 22
M  V30 22 1 2 23
M  V30 23 1 23 24
M  V30 24 2 24 25
M  V30 25 1 25 26
M  V30 26 1 26 27
M  V30 27 2 27 28
M  V30 28 1 28 29
M  V30 29 2 29 30
M  V30 30 1 30 31
M  V30 31 2 31 32
M  V30 32 1 22 5
M  V30 33 1 32 24
M  V30 34 1 21 10
M  V30 35 1 32 27
M  V30 36 1 20 16
M  V30 37 1 1 33
M  V30 38 1 1 34
M  V30 39 1 2 35 CFG=3
M  V30 40 1 3 36
M  V30 41 1 3 37
M  V30 42 1 6 38
M  V30 43 1 8 39
M  V30 44 1 11 40
M  V30 45 1 12 41
M  V30 46 1 13 42
M  V30 47 1 15 43
M  V30 48 1 18 44
M  V30 49 1 19 45
M  V30 50 1 21 46
M  V30 51 1 22 47
M  V30 52 1 23 48
M  V30 53 1 23 49
M  V30 54 1 25 50
M  V30 55 1 26 51
M  V30 56 1 28 52
M  V30 57 1 29 53
M  V30 58 1 30 54
M  V30 59 1 31 55
M  V30 END BOND
M  V30 END CTAB
M  END
>  <Dataset>  (423) 
ChEMBL_Kinases

>  <Ligand_Instance>  (423) 
nan

>  <PDB_ID>  (423) 
nan

>  <Standardized_SMILES>  (423) 
N[C@H](COc1cncc(-c2cccc(Nc3nccs3)c2)c1)Cc1c[nH]c2ccccc12

>  <Name>  (423) 
nan

>  <Pocket>  (423) 
nan

>  <ATP_Site>  (423) 
nan

>  <Peripheral>  (423) 
nan

>  <Num_H_Atoms_ProtBoundConf>  (423) 
nan

>  <Num_Resolved_Atoms>  (423) 
nan

>  <Num_Not_Resolved_Atoms>  (423) 
nan

$$$$
CHEMBL497564
     RDKit          3D

  0  0  0  0  0  0  0  0  0  0999 V3000
M  V30 BEGIN CTAB
M  V30 COUNTS 40 44 0 0 0
M  V30 BEGIN ATOM
M  V30 1 C 0.391215 -2.882188 4.263014 0
M  V30 2 C 0.691213 -2.536135 2.931792 0
M  V30 3 C -0.252276 -2.508163 1.932471 0
M  V30 4 N 0.010151 -2.144875 0.588852 0
M  V30 5 C 1.111941 -1.503442 -0.047324 0
M  V30 6 N 2.302181 -2.092500 -0.264168 0
M  V30 7 C 3.311911 -1.423218 -0.892640 0
M  V30 8 C 2.952116 -0.149610 -1.245125 0
M  V30 9 C 1.799226 0.542848 -1.083539 0
M  V30 10 C 1.376534 1.863272 -1.457999 0
M  V30 11 C 0.050192 2.268835 -1.277311 0
M  V30 12 N -0.093428 3.520951 -1.690981 0
M  V30 13 N 1.043547 4.003061 -2.143401 0
M  V30 14 N 1.436273 5.160600 -2.651424 0
M  V30 15 C 2.706359 5.373942 -3.036483 0
M  V30 16 C 3.640630 4.367466 -2.905822 0
M  V30 17 C 3.204677 3.191822 -2.379845 0
M  V30 18 C 1.905193 3.005282 -1.997177 0
M  V30 19 N 0.871427 -0.240547 -0.440204 0
M  V30 20 C -1.547237 -2.837748 2.264477 0
M  V30 21 C -1.839843 -3.172916 3.558540 0
M  V30 22 C -3.252711 -3.502318 3.877973 0
M  V30 23 C -3.834723 -3.863677 5.064300 0
M  V30 24 O -5.140177 -4.044883 4.846619 0
M  V30 25 C -5.371831 -3.807802 3.576590 0
M  V30 26 N -4.229479 -3.463410 2.913875 0
M  V30 27 C -0.905547 -3.200061 4.548595 0
M  V30 28 H 1.209938 -2.872428 4.984673 0
M  V30 29 H 1.722195 -2.281458 2.697016 0
M  V30 30 H -0.673930 -2.336318 -0.159429 0
M  V30 31 H 4.278630 -1.831923 -1.089680 0
M  V30 32 H 3.752002 0.369492 -1.749999 0
M  V30 33 H -0.860650 1.788923 -0.881290 0
M  V30 34 H 2.818108 6.397469 -3.432627 0
M  V30 35 H 4.625581 4.632360 -3.236566 0
M  V30 36 H 3.962199 2.443300 -2.290681 0
M  V30 37 H -2.284517 -2.815594 1.479658 0
M  V30 38 H -3.290116 -3.973257 5.999619 0
M  V30 39 H -6.252166 -3.825333 2.950669 0
M  V30 40 H -1.141333 -3.468265 5.580809 0
M  V30 END ATOM
M  V30 BEGIN BOND
M  V30 1 2 1 2
M  V30 2 1 2 3
M  V30 3 1 3 4
M  V30 4 1 4 5
M  V30 5 2 5 6
M  V30 6 1 6 7
M  V30 7 2 7 8
M  V30 8 1 8 9
M  V30 9 1 9 10
M  V30 10 1 10 11
M  V30 11 2 11 12
M  V30 12 1 12 13
M  V30 13 1 13 14
M  V30 14 2 14 15
M  V30 15 1 15 16
M  V30 16 2 16 17
M  V30 17 1 17 18
M  V30 18 2 9 19
M  V30 19 2 3 20
M  V30 20 1 20 21
M  V30 21 1 21 22
M  V30 22 2 22 23
M  V30 23 1 23 24
M  V30 24 1 24 25
M  V30 25 2 25 26
M  V30 26 2 21 27
M  V30 27 1 27 1
M  V30 28 1 19 5
M  V30 29 1 26 22
M  V30 30 2 18 10
M  V30 31 1 18 13
M  V30 32 1 1 28
M  V30 33 1 2 29
M  V30 34 1 4 30
M  V30 35 1 7 31
M  V30 36 1 8 32
M  V30 37 1 11 33
M  V30 38 1 15 34
M  V30 39 1 16 35
M  V30 40 1 17 36
M  V30 41 1 20 37
M  V30 42 1 23 38
M  V30 43 1 25 39
M  V30 44 1 27 40
M  V30 END BOND
M  V30 END CTAB
M  END
>  <Dataset>  (424) 
ChEMBL_Kinases

>  <Ligand_Instance>  (424) 
nan

>  <PDB_ID>  (424) 
nan

>  <Standardized_SMILES>  (424) 
c1cc(Nc2nccc(-c3cnn4ncccc34)n2)cc(-c2cocn2)c1

>  <Name>  (424) 
nan

>  <Pocket>  (424) 
nan

>  <ATP_Site>  (424) 
nan

>  <Peripheral>  (424) 
nan

>  <Num_H_Atoms_ProtBoundConf>  (424) 
nan

>  <Num_Resolved_Atoms>  (424) 
nan

>  <Num_Not_Resolved_Atoms>  (424) 
nan

$$$$
CHEMBL3805319
     RDKit          3D

  0  0  0  0  0  0  0  0  0  0999 V3000
M  V30 BEGIN CTAB
M  V30 COUNTS 52 55 0 0 0
M  V30 BEGIN ATOM
M  V30 1 C 5.268385 -1.315437 1.952541 0
M  V30 2 N 5.628116 -1.116050 0.565609 0
M  V30 3 N 6.937914 -1.183363 0.250375 0
M  V30 4 C 7.070733 -1.017929 -1.088695 0
M  V30 5 C 5.775213 -0.854262 -1.503426 0
M  V30 6 Cl 5.882023 -0.590485 -3.223409 0
M  V30 7 C 4.851073 -0.909533 -0.500365 0
M  V30 8 C 3.443037 -0.848561 -0.693721 0
M  V30 9 C 2.380400 -0.799844 0.147030 0
M  V30 10 Cl 2.355667 -0.571736 1.876983 0
M  V30 11 C 1.131198 -0.882069 -0.421526 0
M  V30 12 C -0.231794 -0.879568 0.082026 0
M  V30 13 O -1.249545 -0.964628 -0.692332 0
M  V30 14 N -0.742871 -0.794769 1.383709 0
M  V30 15 C -2.195641 -0.812208 1.709551 0
M  V30 16 C -2.850576 0.332591 1.018812 0
M  V30 17 C -4.120963 0.513004 0.583102 0
M  V30 18 C -4.537544 1.667181 -0.039281 0
M  V30 19 C -3.686609 2.725501 -0.263888 0
M  V30 20 Cl -4.275403 4.158099 -1.056561 0
M  V30 21 C -2.387810 2.608485 0.151917 0
M  V30 22 Cl -1.282930 3.916350 -0.110774 0
M  V30 23 C -2.017655 1.432663 0.770816 0
M  V30 24 C -2.259026 -0.655156 3.205525 0
M  V30 25 C -3.346323 -1.401195 3.894626 0
M  V30 26 N -3.365981 -2.810786 3.502252 0
M  V30 27 C -3.780687 -2.772781 2.094836 0
M  V30 28 C -2.686688 -2.146986 1.303072 0
M  V30 29 N 1.400093 -0.992653 -1.761299 0
M  V30 30 C 0.340658 -1.107377 -2.766050 0
M  V30 31 C 2.748532 -0.969348 -1.874775 0
M  V30 32 Cl 3.287055 -1.145025 -3.555301 0
M  V30 33 H 4.576148 -2.164751 2.112195 0
M  V30 34 H 6.206424 -1.713926 2.498242 0
M  V30 35 H 5.075725 -0.392108 2.517053 0
M  V30 36 H 8.111489 -1.069337 -1.366487 0
M  V30 37 H -0.034753 -0.718178 2.131832 0
M  V30 38 H -4.780786 -0.321371 0.761156 0
M  V30 39 H -5.594771 1.693891 -0.347737 0
M  V30 40 H -0.959634 1.411727 1.077145 0
M  V30 41 H -2.463099 0.440121 3.380977 0
M  V30 42 H -1.285925 -0.926889 3.690862 0
M  V30 43 H -4.351544 -0.973780 3.778707 0
M  V30 44 H -3.113716 -1.406779 4.972174 0
M  V30 45 H -2.365277 -3.122039 3.541741 0
M  V30 46 H -4.740414 -2.259233 2.086581 0
M  V30 47 H -3.864577 -3.832266 1.723029 0
M  V30 48 H -2.946587 -2.193920 0.207071 0
M  V30 49 H -1.817551 -2.874901 1.376846 0
M  V30 50 H -0.235442 -2.054396 -2.653277 0
M  V30 51 H -0.328519 -0.210391 -2.682505 0
M  V30 52 H 0.795100 -1.020146 -3.763297 0
M  V30 END ATOM
M  V30 BEGIN BOND
M  V30 1 1 1 2
M  V30 2 1 2 3
M  V30 3 2 3 4
M  V30 4 1 4 5
M  V30 5 1 5 6
M  V30 6 2 5 7
M  V30 7 1 7 8
M  V30 8 1 8 9
M  V30 9 1 9 10
M  V30 10 2 9 11
M  V30 11 1 11 12
M  V30 12 2 12 13
M  V30 13 1 12 14
M  V30 14 1 14 15
M  V30 15 1 15 16
M  V30 16 2 16 17
M  V30 17 1 17 18
M  V30 18 2 18 19
M  V30 19 1 19 20
M  V30 20 1 19 21
M  V30 21 1 21 22
M  V30 22 2 21 23
M  V30 23 1 15 24
M  V30 24 1 24 25
M  V30 25 1 25 26
M  V30 26 1 26 27
M  V30 27 1 27 28
M  V30 28 1 11 29
M  V30 29 1 29 30
M  V30 30 1 29 31
M  V30 31 1 31 32
M  V30 32 1 7 2
M  V30 33 2 31 8
M  V30 34 1 28 15
M  V30 35 1 23 16
M  V30 36 1 1 33
M  V30 37 1 1 34
M  V30 38 1 1 35
M  V30 39 1 4 36
M  V30 40 1 14 37
M  V30 41 1 17 38
M  V30 42 1 18 39
M  V30 43 1 23 40
M  V30 44 1 24 41
M  V30 45 1 24 42
M  V30 46 1 25 43
M  V30 47 1 25 44
M  V30 48 1 26 45
M  V30 49 1 27 46
M  V30 50 1 27 47
M  V30 51 1 28 48
M  V30 52 1 28 49
M  V30 53 1 30 50
M  V30 54 1 30 51
M  V30 55 1 30 52
M  V30 END BOND
M  V30 END CTAB
M  END
>  <Dataset>  (425) 
ChEMBL_Kinases

>  <Ligand_Instance>  (425) 
nan

>  <PDB_ID>  (425) 
nan

>  <Standardized_SMILES>  (425) 
Cn1ncc(Cl)c1-c1c(Cl)c(C(=O)NC2(c3ccc(Cl)c(Cl)c3)CCNCC2)n(C)c1Cl

>  <Name>  (425) 
nan

>  <Pocket>  (425) 
nan

>  <ATP_Site>  (425) 
nan

>  <Peripheral>  (425) 
nan

>  <Num_H_Atoms_ProtBoundConf>  (425) 
nan

>  <Num_Resolved_Atoms>  (425) 
nan

>  <Num_Not_Resolved_Atoms>  (425) 
nan

$$$$
CHEMBL380531
     RDKit          3D

  0  0  0  0  0  0  0  0  0  0999 V3000
M  V30 BEGIN CTAB
M  V30 COUNTS 41 43 0 0 0
M  V30 BEGIN ATOM
M  V30 1 N 3.818689 -5.957792 1.827007 0
M  V30 2 C 3.579938 -4.873677 0.895624 0
M  V30 3 C 3.995915 -3.535216 1.451395 0
M  V30 4 C 3.751204 -2.426239 0.497314 0
M  V30 5 C 4.738878 -2.073100 -0.395293 0
M  V30 6 C 4.493355 -1.040532 -1.273599 0
M  V30 7 C 3.272453 -0.373476 -1.253675 0
M  V30 8 C 2.254598 -0.706971 -0.363216 0
M  V30 9 C 1.022839 0.040678 -0.427958 0
M  V30 10 O 0.781697 0.497550 -1.597147 0
M  V30 11 C 0.045585 0.344577 0.601474 0
M  V30 12 C -0.004752 0.069488 1.948446 0
M  V30 13 N -1.132837 0.590192 2.435779 0
M  V30 14 N -1.811287 1.192197 1.446996 0
M  V30 15 C -3.058323 1.843487 1.650561 0
M  V30 16 C -4.176985 1.071638 1.886490 0
M  V30 17 C -5.449205 1.560552 2.101059 0
M  V30 18 C -5.616226 2.935629 2.077661 0
M  V30 19 F -6.853261 3.476066 2.283667 0
M  V30 20 C -4.520237 3.744127 1.844470 0
M  V30 21 C -3.247201 3.215557 1.631300 0
M  V30 22 C -1.095359 1.052230 0.291952 0
M  V30 23 N -1.619600 1.618238 -0.918734 0
M  V30 24 C 2.571208 -1.733373 0.469136 0
M  V30 25 H 3.954530 -5.629633 2.811545 0
M  V30 26 H 3.012497 -6.620271 1.855990 0
M  V30 27 H 4.198321 -5.094564 -0.010080 0
M  V30 28 H 2.493017 -4.890678 0.647441 0
M  V30 29 H 3.432790 -3.336525 2.387407 0
M  V30 30 H 5.076901 -3.605719 1.711185 0
M  V30 31 H 5.683682 -2.596844 -0.403104 0
M  V30 32 H 5.251959 -0.748673 -1.979587 0
M  V30 33 H 3.149811 0.425632 -1.970857 0
M  V30 34 H 0.741866 -0.468607 2.506602 0
M  V30 35 H -4.094544 -0.019700 1.914247 0
M  V30 36 H -6.286901 0.892522 2.281324 0
M  V30 37 H -4.620409 4.836191 1.819947 0
M  V30 38 H -2.369833 3.841465 1.445465 0
M  V30 39 H -1.693580 2.614366 -1.238051 0
M  V30 40 H -1.958721 0.831515 -1.515017 0
M  V30 41 H 1.840362 -2.058357 1.179916 0
M  V30 END ATOM
M  V30 BEGIN BOND
M  V30 1 1 1 2
M  V30 2 1 2 3
M  V30 3 1 3 4
M  V30 4 2 4 5
M  V30 5 1 5 6
M  V30 6 2 6 7
M  V30 7 1 7 8
M  V30 8 1 8 9
M  V30 9 2 9 10
M  V30 10 1 9 11
M  V30 11 1 11 12
M  V30 12 2 12 13
M  V30 13 1 13 14
M  V30 14 1 14 15
M  V30 15 2 15 16
M  V30 16 1 16 17
M  V30 17 2 17 18
M  V30 18 1 18 19
M  V30 19 1 18 20
M  V30 20 2 20 21
M  V30 21 1 14 22
M  V30 22 1 22 23
M  V30 23 2 8 24
M  V30 24 1 24 4
M  V30 25 2 22 11
M  V30 26 1 21 15
M  V30 27 1 1 25
M  V30 28 1 1 26
M  V30 29 1 2 27
M  V30 30 1 2 28
M  V30 31 1 3 29
M  V30 32 1 3 30
M  V30 33 1 5 31
M  V30 34 1 6 32
M  V30 35 1 7 33
M  V30 36 1 12 34
M  V30 37 1 16 35
M  V30 38 1 17 36
M  V30 39 1 20 37
M  V30 40 1 21 38
M  V30 41 1 23 39
M  V30 42 1 23 40
M  V30 43 1 24 41
M  V30 END BOND
M  V30 END CTAB
M  END
>  <Dataset>  (426) 
ChEMBL_Kinases

>  <Ligand_Instance>  (426) 
nan

>  <PDB_ID>  (426) 
nan

>  <Standardized_SMILES>  (426) 
NCCc1cccc(C(=O)c2cnn(-c3ccc(F)cc3)c2N)c1

>  <Name>  (426) 
nan

>  <Pocket>  (426) 
nan

>  <ATP_Site>  (426) 
nan

>  <Peripheral>  (426) 
nan

>  <Num_H_Atoms_ProtBoundConf>  (426) 
nan

>  <Num_Resolved_Atoms>  (426) 
nan

>  <Num_Not_Resolved_Atoms>  (426) 
nan

$$$$
CHEMBL3805292
     RDKit          3D

  0  0  0  0  0  0  0  0  0  0999 V3000
M  V30 BEGIN CTAB
M  V30 COUNTS 48 51 0 0 0
M  V30 BEGIN ATOM
M  V30 1 C 4.637295 -3.379562 0.075379 0
M  V30 2 N 4.134061 -4.142839 -1.021575 0
M  V30 3 N 4.794819 -5.163673 -1.585037 0
M  V30 4 C 4.092262 -5.699680 -2.591907 0
M  V30 5 C 2.934070 -4.954418 -2.638403 0
M  V30 6 C 2.961517 -3.987136 -1.661745 0
M  V30 7 C 1.908379 -3.021097 -1.418427 0
M  V30 8 C 0.725401 -3.066635 -2.264881 0
M  V30 9 S -0.340620 -1.816530 -1.749102 0
M  V30 10 C 0.745198 -1.211839 -0.414774 0
M  V30 11 C 0.478879 -0.109036 0.496824 0
M  V30 12 O 1.362051 0.122275 1.324150 0
M  V30 13 N -0.725634 0.531183 0.314912 0
M  V30 14 C -1.185110 1.739459 1.198761 0
M  V30 15 C -1.694989 1.076137 2.488020 0
M  V30 16 C -2.351198 -0.085724 2.153882 0
M  V30 17 C -2.950912 -0.965670 3.020677 0
M  V30 18 C -2.850590 -0.592816 4.335957 0
M  V30 19 F -3.403728 -1.386236 5.281366 0
M  V30 20 C -2.233013 0.524270 4.803777 0
M  V30 21 C -1.678179 1.315895 3.851522 0
M  V30 22 C -0.124102 2.528801 0.850263 0
M  V30 23 C -0.922501 2.597878 1.812581 0
M  V30 24 N -2.330932 2.924153 1.831831 0
M  V30 25 C -3.245631 2.406735 1.084105 0
M  V30 26 C -2.194649 2.444198 0.286382 0
M  V30 27 C 1.747334 -2.033552 -0.549612 0
M  V30 28 H 5.649683 -3.805906 0.364972 0
M  V30 29 H 4.872029 -2.319382 -0.148752 0
M  V30 30 H 4.038404 -3.535433 0.995974 0
M  V30 31 H 4.379691 -6.529103 -3.218705 0
M  V30 32 H 2.178430 -5.206603 -3.400117 0
M  V30 33 H 0.442632 -3.838481 -3.220741 0
M  V30 34 H -1.396777 0.239999 -0.422075 0
M  V30 35 H -2.484500 -0.479810 1.115127 0
M  V30 36 H -3.470908 -1.882273 2.777971 0
M  V30 37 H -2.132211 0.853064 5.829035 0
M  V30 38 H -1.184610 2.215509 4.182993 0
M  V30 39 H -0.182604 3.537972 0.366838 0
M  V30 40 H 0.690753 2.114617 0.350482 0
M  V30 41 H -0.394680 3.561775 2.449834 0
M  V30 42 H -0.131325 2.102736 2.350835 0
M  V30 43 H -2.903474 3.477171 2.389220 0
M  V30 44 H -4.060171 3.007033 0.632230 0
M  V30 45 H -3.807637 1.478656 1.354364 0
M  V30 46 H -1.866671 3.377849 -0.126057 0
M  V30 47 H -2.356419 1.776335 -0.579379 0
M  V30 48 H 2.574912 -1.907477 0.135751 0
M  V30 END ATOM
M  V30 BEGIN BOND
M  V30 1 1 1 2
M  V30 2 1 2 3
M  V30 3 2 3 4
M  V30 4 1 4 5
M  V30 5 2 5 6
M  V30 6 1 6 7
M  V30 7 2 7 8
M  V30 8 1 8 9
M  V30 9 1 9 10
M  V30 10 1 10 11
M  V30 11 2 11 12
M  V30 12 1 11 13
M  V30 13 1 13 14
M  V30 14 1 14 15
M  V30 15 2 15 16
M  V30 16 1 16 17
M  V30 17 2 17 18
M  V30 18 1 18 19
M  V30 19 1 18 20
M  V30 20 2 20 21
M  V30 21 1 14 22
M  V30 22 1 22 23
M  V30 23 1 23 24
M  V30 24 1 24 25
M  V30 25 1 25 26
M  V30 26 2 10 27
M  V30 27 1 6 2
M  V30 28 1 27 7
M  V30 29 1 26 14
M  V30 30 1 21 15
M  V30 31 1 1 28
M  V30 32 1 1 29
M  V30 33 1 1 30
M  V30 34 1 4 31
M  V30 35 1 5 32
M  V30 36 1 8 33
M  V30 37 1 13 34
M  V30 38 1 16 35
M  V30 39 1 17 36
M  V30 40 1 20 37
M  V30 41 1 21 38
M  V30 42 1 22 39
M  V30 43 1 22 40
M  V30 44 1 23 41
M  V30 45 1 23 42
M  V30 46 1 24 43
M  V30 47 1 25 44
M  V30 48 1 25 45
M  V30 49 1 26 46
M  V30 50 1 26 47
M  V30 51 1 27 48
M  V30 END BOND
M  V30 END CTAB
M  END
>  <Dataset>  (427) 
ChEMBL_Kinases

>  <Ligand_Instance>  (427) 
nan

>  <PDB_ID>  (427) 
nan

>  <Standardized_SMILES>  (427) 
Cn1nccc1-c1csc(C(=O)NC2(c3ccc(F)cc3)CCNCC2)c1

>  <Name>  (427) 
nan

>  <Pocket>  (427) 
nan

>  <ATP_Site>  (427) 
nan

>  <Peripheral>  (427) 
nan

>  <Num_H_Atoms_ProtBoundConf>  (427) 
nan

>  <Num_Resolved_Atoms>  (427) 
nan

>  <Num_Not_Resolved_Atoms>  (427) 
nan

$$$$
CHEMBL3805232
     RDKit          3D

  0  0  0  0  0  0  0  0  0  0999 V3000
M  V30 BEGIN CTAB
M  V30 COUNTS 48 51 0 0 0
M  V30 BEGIN ATOM
M  V30 1 C 3.479517 -4.013204 -4.410529 0
M  V30 2 N 4.038337 -3.053960 -3.479122 0
M  V30 3 N 5.346124 -2.792365 -3.440580 0
M  V30 4 C 5.603483 -1.878350 -2.500466 0
M  V30 5 C 4.359981 -1.604109 -1.971708 0
M  V30 6 Br 4.312096 -0.328694 -0.583928 0
M  V30 7 C 3.365119 -2.335924 -2.577118 0
M  V30 8 C 1.957058 -2.280091 -2.253086 0
M  V30 9 C 1.065114 -3.080603 -2.953390 0
M  V30 10 S -0.606868 -2.675545 -2.199952 0
M  V30 11 C 0.078703 -1.510101 -1.065237 0
M  V30 12 C -0.847233 -0.829017 -0.152579 0
M  V30 13 O -2.057985 -1.098764 -0.217283 0
M  V30 14 N -0.507518 0.121579 0.814230 0
M  V30 15 C -1.192042 0.903974 1.798566 0
M  V30 16 C -1.817122 0.001490 2.787395 0
M  V30 17 C -2.995739 -0.703732 2.718040 0
M  V30 18 C -3.504026 -1.547707 3.672560 0
M  V30 19 C -2.787667 -1.731270 4.833489 0
M  V30 20 F -3.291585 -2.561792 5.768164 0
M  V30 21 C -1.589360 -1.056761 4.983966 0
M  V30 22 C -1.116759 -0.208652 3.979784 0
M  V30 23 C -0.150457 1.801293 2.476092 0
M  V30 24 C -0.803610 2.756190 3.412952 0
M  V30 25 N -2.198342 2.594892 3.577278 0
M  V30 26 C -3.002538 2.399133 2.430281 0
M  V30 27 C -2.221061 1.863007 1.254268 0
M  V30 28 C 1.371543 -1.501036 -1.298393 0
M  V30 29 H 3.041394 -4.912498 -3.898523 0
M  V30 30 H 4.335782 -4.458138 -5.012213 0
M  V30 31 H 2.820060 -3.571445 -5.161602 0
M  V30 32 H 6.608819 -1.557527 -2.341375 0
M  V30 33 H 1.024265 -3.821299 -3.749137 0
M  V30 34 H 0.558777 0.253954 0.750720 0
M  V30 35 H -3.594308 -0.569606 1.837696 0
M  V30 36 H -4.439925 -2.051127 3.512344 0
M  V30 37 H -1.105711 -1.262499 5.917968 0
M  V30 38 H -0.192500 0.212782 4.278906 0
M  V30 39 H 0.251221 2.425549 1.625761 0
M  V30 40 H 0.726543 1.258362 2.845882 0
M  V30 41 H -0.600795 3.830457 3.172454 0
M  V30 42 H -0.331629 2.604943 4.418179 0
M  V30 43 H -2.547217 2.263157 4.479210 0
M  V30 44 H -3.918219 1.799126 2.623576 0
M  V30 45 H -3.409897 3.409698 2.127331 0
M  V30 46 H -1.725125 2.762915 0.784199 0
M  V30 47 H -2.897284 1.370876 0.513447 0
M  V30 48 H 1.852610 -0.804776 -0.633791 0
M  V30 END ATOM
M  V30 BEGIN BOND
M  V30 1 1 1 2
M  V30 2 1 2 3
M  V30 3 2 3 4
M  V30 4 1 4 5
M  V30 5 1 5 6
M  V30 6 2 5 7
M  V30 7 1 7 8
M  V30 8 2 8 9
M  V30 9 1 9 10
M  V30 10 1 10 11
M  V30 11 1 11 12
M  V30 12 2 12 13
M  V30 13 1 12 14
M  V30 14 1 14 15
M  V30 15 1 15 16
M  V30 16 2 16 17
M  V30 17 1 17 18
M  V30 18 2 18 19
M  V30 19 1 19 20
M  V30 20 1 19 21
M  V30 21 2 21 22
M  V30 22 1 15 23
M  V30 23 1 23 24
M  V30 24 1 24 25
M  V30 25 1 25 26
M  V30 26 1 26 27
M  V30 27 2 11 28
M  V30 28 1 7 2
M  V30 29 1 28 8
M  V30 30 1 27 15
M  V30 31 1 22 16
M  V30 32 1 1 29
M  V30 33 1 1 30
M  V30 34 1 1 31
M  V30 35 1 4 32
M  V30 36 1 9 33
M  V30 37 1 14 34
M  V30 38 1 17 35
M  V30 39 1 18 36
M  V30 40 1 21 37
M  V30 41 1 22 38
M  V30 42 1 23 39
M  V30 43 1 23 40
M  V30 44 1 24 41
M  V30 45 1 24 42
M  V30 46 1 25 43
M  V30 47 1 26 44
M  V30 48 1 26 45
M  V30 49 1 27 46
M  V30 50 1 27 47
M  V30 51 1 28 48
M  V30 END BOND
M  V30 END CTAB
M  END
>  <Dataset>  (428) 
ChEMBL_Kinases

>  <Ligand_Instance>  (428) 
nan

>  <PDB_ID>  (428) 
nan

>  <Standardized_SMILES>  (428) 
Cn1ncc(Br)c1-c1csc(C(=O)NC2(c3ccc(F)cc3)CCNCC2)c1

>  <Name>  (428) 
nan

>  <Pocket>  (428) 
nan

>  <ATP_Site>  (428) 
nan

>  <Peripheral>  (428) 
nan

>  <Num_H_Atoms_ProtBoundConf>  (428) 
nan

>  <Num_Resolved_Atoms>  (428) 
nan

>  <Num_Not_Resolved_Atoms>  (428) 
nan

$$$$
CHEMBL3805228
     RDKit          3D

  0  0  0  0  0  0  0  0  0  0999 V3000
M  V30 BEGIN CTAB
M  V30 COUNTS 48 51 0 0 0
M  V30 BEGIN ATOM
M  V30 1 C 2.967669 -1.972367 3.918817 0
M  V30 2 N 4.269752 -1.442782 3.550724 0
M  V30 3 N 5.324669 -1.645439 4.330697 0
M  V30 4 C 6.430976 -1.080849 3.823927 0
M  V30 5 C 5.947886 -0.519820 2.668517 0
M  V30 6 Cl 7.152305 0.319469 1.733342 0
M  V30 7 C 4.611261 -0.725650 2.468785 0
M  V30 8 C 3.768530 -0.293277 1.386108 0
M  V30 9 C 2.424292 -0.574641 1.309190 0
M  V30 10 C 1.837481 -0.037323 0.155849 0
M  V30 11 C 0.479907 -0.050026 -0.382253 0
M  V30 12 O 0.169307 0.508513 -1.457415 0
M  V30 13 N -0.575748 -0.726538 0.329756 0
M  V30 14 C -1.917185 -0.731188 -0.215270 0
M  V30 15 C -2.495246 0.629456 -0.289417 0
M  V30 16 C -2.025613 1.594387 0.589615 0
M  V30 17 C -2.485898 2.897675 0.616013 0
M  V30 18 C -3.482069 3.275107 -0.291456 0
M  V30 19 Cl -4.093914 4.915880 -0.292551 0
M  V30 20 C -3.940457 2.315833 -1.156340 0
M  V30 21 Cl -5.189500 2.733500 -2.316117 0
M  V30 22 C -3.477115 1.009606 -1.180669 0
M  V30 23 C -2.753888 -1.518083 0.774252 0
M  V30 24 C -2.329004 -2.962433 0.711937 0
M  V30 25 N -2.771870 -3.506169 -0.547143 0
M  V30 26 C -3.035530 -2.480803 -1.540914 0
M  V30 27 C -1.916464 -1.461913 -1.507813 0
M  V30 28 O 2.830161 0.567908 -0.461559 0
M  V30 29 C 3.934338 0.425348 0.235478 0
M  V30 30 Cl 5.412078 1.125255 -0.342423 0
M  V30 31 H 2.594117 -2.758860 3.256088 0
M  V30 32 H 2.225740 -1.165473 4.158855 0
M  V30 33 H 3.089985 -2.483805 4.921027 0
M  V30 34 H 7.361395 -1.165342 4.351216 0
M  V30 35 H 1.709204 -1.094409 1.895269 0
M  V30 36 H -0.284115 -1.183431 1.224698 0
M  V30 37 H -1.247879 1.314343 1.303863 0
M  V30 38 H -2.068044 3.603496 1.337828 0
M  V30 39 H -3.860746 0.277504 -1.877076 0
M  V30 40 H -2.515681 -1.071244 1.770666 0
M  V30 41 H -3.802411 -1.405706 0.495877 0
M  V30 42 H -2.799741 -3.473105 1.602371 0
M  V30 43 H -1.243809 -3.097255 0.772090 0
M  V30 44 H -3.592709 -4.132254 -0.405662 0
M  V30 45 H -2.953615 -2.992329 -2.524288 0
M  V30 46 H -4.034898 -2.067287 -1.415549 0
M  V30 47 H -1.922169 -0.806923 -2.400812 0
M  V30 48 H -0.981709 -2.053766 -1.593401 0
M  V30 END ATOM
M  V30 BEGIN BOND
M  V30 1 1 1 2
M  V30 2 1 2 3
M  V30 3 2 3 4
M  V30 4 1 4 5
M  V30 5 1 5 6
M  V30 6 2 5 7
M  V30 7 1 7 8
M  V30 8 1 8 9
M  V30 9 2 9 10
M  V30 10 1 10 11
M  V30 11 2 11 12
M  V30 12 1 11 13
M  V30 13 1 13 14
M  V30 14 1 14 15
M  V30 15 2 15 16
M  V30 16 1 16 17
M  V30 17 2 17 18
M  V30 18 1 18 19
M  V30 19 1 18 20
M  V30 20 1 20 21
M  V30 21 2 20 22
M  V30 22 1 14 23
M  V30 23 1 23 24
M  V30 24 1 24 25
M  V30 25 1 25 26
M  V30 26 1 26 27
M  V30 27 1 10 28
M  V30 28 1 28 29
M  V30 29 1 29 30
M  V30 30 1 7 2
M  V30 31 2 29 8
M  V30 32 1 27 14
M  V30 33 1 22 15
M  V30 34 1 1 31
M  V30 35 1 1 32
M  V30 36 1 1 33
M  V30 37 1 4 34
M  V30 38 1 9 35
M  V30 39 1 13 36
M  V30 40 1 16 37
M  V30 41 1 17 38
M  V30 42 1 22 39
M  V30 43 1 23 40
M  V30 44 1 23 41
M  V30 45 1 24 42
M  V30 46 1 24 43
M  V30 47 1 25 44
M  V30 48 1 26 45
M  V30 49 1 26 46
M  V30 50 1 27 47
M  V30 51 1 27 48
M  V30 END BOND
M  V30 END CTAB
M  END
>  <Dataset>  (429) 
ChEMBL_Kinases

>  <Ligand_Instance>  (429) 
nan

>  <PDB_ID>  (429) 
nan

>  <Standardized_SMILES>  (429) 
Cn1ncc(Cl)c1-c1cc(C(=O)NC2(c3ccc(Cl)c(Cl)c3)CCNCC2)oc1Cl

>  <Name>  (429) 
nan

>  <Pocket>  (429) 
nan

>  <ATP_Site>  (429) 
nan

>  <Peripheral>  (429) 
nan

>  <Num_H_Atoms_ProtBoundConf>  (429) 
nan

>  <Num_Resolved_Atoms>  (429) 
nan

>  <Num_Not_Resolved_Atoms>  (429) 
nan

$$$$
CHEMBL3805163
     RDKit          3D

  0  0  0  0  0  0  0  0  0  0999 V3000
M  V30 BEGIN CTAB
M  V30 COUNTS 48 51 0 0 0
M  V30 BEGIN ATOM
M  V30 1 C -1.440694 -5.203321 -1.391344 0
M  V30 2 N -0.383400 -5.310579 -2.375888 0
M  V30 3 N -0.292588 -6.384537 -3.140570 0
M  V30 4 C 0.755678 -6.240496 -3.957189 0
M  V30 5 C 1.296758 -4.993429 -3.629555 0
M  V30 6 C 0.568733 -4.402540 -2.620876 0
M  V30 7 C 0.840898 -3.102944 -2.030529 0
M  V30 8 C 1.939994 -2.410792 -2.543867 0
M  V30 9 S 1.939405 -0.824792 -1.530255 0
M  V30 10 C 0.554192 -1.266642 -0.607812 0
M  V30 11 C -0.043580 -0.404110 0.463811 0
M  V30 12 O -1.059681 -0.741111 1.132929 0
M  V30 13 N 0.567217 0.848504 0.732903 0
M  V30 14 C -0.017814 1.678808 1.772282 0
M  V30 15 C 0.170730 0.937854 3.045882 0
M  V30 16 C 1.149327 -0.011705 3.262995 0
M  V30 17 C 1.324064 -0.697385 4.438636 0
M  V30 18 C 0.464591 -0.420168 5.473828 0
M  V30 19 Cl 0.625521 -1.254396 7.004317 0
M  V30 20 C -0.524571 0.525290 5.285361 0
M  V30 21 Cl -1.591179 0.836708 6.645213 0
M  V30 22 C -0.694123 1.209175 4.104244 0
M  V30 23 C 0.820267 2.934534 1.854265 0
M  V30 24 C 0.302019 4.005744 0.915860 0
M  V30 25 N -1.056002 4.378407 1.239998 0
M  V30 26 C -1.946905 3.306721 1.480866 0
M  V30 27 C -1.435441 1.927519 1.430539 0
M  V30 28 C 0.179298 -2.447138 -1.036281 0
M  V30 29 H -1.102694 -5.177777 -0.357488 0
M  V30 30 H -2.094609 -4.340312 -1.693211 0
M  V30 31 H -2.148351 -6.084661 -1.456319 0
M  V30 32 H 1.090509 -6.948133 -4.698663 0
M  V30 33 H 2.169981 -4.666742 -4.178674 0
M  V30 34 H 2.711847 -2.568655 -3.316604 0
M  V30 35 H 1.414935 1.145465 0.183092 0
M  V30 36 H 1.796084 -0.187564 2.412793 0
M  V30 37 H 2.099274 -1.434490 4.579221 0
M  V30 38 H -1.491694 1.923144 4.059519 0
M  V30 39 H 1.872007 2.736922 1.560093 0
M  V30 40 H 0.850863 3.351468 2.881130 0
M  V30 41 H 0.407809 3.697035 -0.140519 0
M  V30 42 H 0.936746 4.901886 1.059685 0
M  V30 43 H -1.084591 5.149867 1.944926 0
M  V30 44 H -2.461161 3.522295 2.464374 0
M  V30 45 H -2.793980 3.417127 0.740946 0
M  V30 46 H -2.070605 1.321699 2.147200 0
M  V30 47 H -1.684058 1.476458 0.437886 0
M  V30 48 H -0.687001 -2.875427 -0.554421 0
M  V30 END ATOM
M  V30 BEGIN BOND
M  V30 1 1 1 2
M  V30 2 1 2 3
M  V30 3 2 3 4
M  V30 4 1 4 5
M  V30 5 2 5 6
M  V30 6 1 6 7
M  V30 7 2 7 8
M  V30 8 1 8 9
M  V30 9 1 9 10
M  V30 10 1 10 11
M  V30 11 2 11 12
M  V30 12 1 11 13
M  V30 13 1 13 14
M  V30 14 1 14 15
M  V30 15 2 15 16
M  V30 16 1 16 17
M  V30 17 2 17 18
M  V30 18 1 18 19
M  V30 19 1 18 20
M  V30 20 1 20 21
M  V30 21 2 20 22
M  V30 22 1 14 23
M  V30 23 1 23 24
M  V30 24 1 24 25
M  V30 25 1 25 26
M  V30 26 1 26 27
M  V30 27 2 10 28
M  V30 28 1 6 2
M  V30 29 1 28 7
M  V30 30 1 27 14
M  V30 31 1 22 15
M  V30 32 1 1 29
M  V30 33 1 1 30
M  V30 34 1 1 31
M  V30 35 1 4 32
M  V30 36 1 5 33
M  V30 37 1 8 34
M  V30 38 1 13 35
M  V30 39 1 16 36
M  V30 40 1 17 37
M  V30 41 1 22 38
M  V30 42 1 23 39
M  V30 43 1 23 40
M  V30 44 1 24 41
M  V30 45 1 24 42
M  V30 46 1 25 43
M  V30 47 1 26 44
M  V30 48 1 26 45
M  V30 49 1 27 46
M  V30 50 1 27 47
M  V30 51 1 28 48
M  V30 END BOND
M  V30 END CTAB
M  END
>  <Dataset>  (430) 
ChEMBL_Kinases

>  <Ligand_Instance>  (430) 
nan

>  <PDB_ID>  (430) 
nan

>  <Standardized_SMILES>  (430) 
Cn1nccc1-c1csc(C(=O)NC2(c3ccc(Cl)c(Cl)c3)CCNCC2)c1

>  <Name>  (430) 
nan

>  <Pocket>  (430) 
nan

>  <ATP_Site>  (430) 
nan

>  <Peripheral>  (430) 
nan

>  <Num_H_Atoms_ProtBoundConf>  (430) 
nan

>  <Num_Resolved_Atoms>  (430) 
nan

>  <Num_Not_Resolved_Atoms>  (430) 
nan

$$$$
CHEMBL498207
     RDKit          3D

  0  0  0  0  0  0  0  0  0  0999 V3000
M  V30 BEGIN CTAB
M  V30 COUNTS 48 51 0 0 0
M  V30 BEGIN ATOM
M  V30 1 N 5.744743 -3.885318 1.338444 0
M  V30 2 C 4.806831 -4.062663 0.281976 0
M  V30 3 N 4.939543 -5.190251 -0.475245 0
M  V30 4 C 4.035108 -5.324575 -1.465143 0
M  V30 5 C 3.038597 -4.398816 -1.711193 0
M  V30 6 C 2.937595 -3.270765 -0.922606 0
M  V30 7 C 1.901407 -2.266238 -1.145471 0
M  V30 8 C 0.948846 -2.347917 -2.141038 0
M  V30 9 C 0.203291 -1.196623 -1.964320 0
M  V30 10 C 0.725960 -0.480317 -0.889849 0
M  V30 11 N 1.774768 -1.155869 -0.395832 0
M  V30 12 C 0.074036 0.821175 -0.503671 0
M  V30 13 C 0.232183 0.957870 0.996421 0
M  V30 14 C -0.365819 2.208864 1.554650 0
M  V30 15 O -0.207281 2.300323 2.908331 0
M  V30 16 C -0.786627 1.324495 3.671996 0
M  V30 17 C -2.264203 1.234217 3.549656 0
M  V30 18 C -3.009930 0.471082 2.676879 0
M  V30 19 C -4.377709 0.493713 2.679648 0
M  V30 20 C -5.102300 1.278148 3.552072 0
M  V30 21 C -4.416879 2.066462 4.452325 0
M  V30 22 C -3.039252 2.015655 4.417910 0
M  V30 23 C -1.390867 0.847357 -0.860860 0
M  V30 24 N -1.540021 0.554844 -2.290454 0
M  V30 25 C -0.967025 -0.698429 -2.716382 0
M  V30 26 O -1.421202 -1.380354 -3.696901 0
M  V30 27 N 3.839575 -3.133801 0.066968 0
M  V30 28 H 6.772889 -3.654765 1.429824 0
M  V30 29 H 5.165611 -4.046543 2.212562 0
M  V30 30 H 4.051908 -6.188414 -2.128216 0
M  V30 31 H 2.317605 -4.524947 -2.515292 0
M  V30 32 H 0.807996 -3.105793 -2.874918 0
M  V30 33 H 2.366067 -0.867624 0.409033 0
M  V30 34 H 0.591255 1.600666 -1.059511 0
M  V30 35 H 1.327359 0.997540 1.192645 0
M  V30 36 H -0.130124 0.063422 1.531886 0
M  V30 37 H 0.129935 3.086024 1.076888 0
M  V30 38 H -1.442569 2.314640 1.308156 0
M  V30 39 H -0.288190 0.335161 3.532251 0
M  V30 40 H -0.563994 1.575148 4.752271 0
M  V30 41 H -2.449661 -0.137876 2.001405 0
M  V30 42 H -4.901837 -0.136596 1.960235 0
M  V30 43 H -6.173916 1.279169 3.535409 0
M  V30 44 H -4.908575 2.708807 5.168448 0
M  V30 45 H -2.510748 2.649218 5.141062 0
M  V30 46 H -1.994536 0.103606 -0.341475 0
M  V30 47 H -1.733703 1.883569 -0.740399 0
M  V30 48 H -2.002113 1.116106 -3.065851 0
M  V30 END ATOM
M  V30 BEGIN BOND
M  V30 1 1 1 2
M  V30 2 2 2 3
M  V30 3 1 3 4
M  V30 4 2 4 5
M  V30 5 1 5 6
M  V30 6 1 6 7
M  V30 7 2 7 8
M  V30 8 1 8 9
M  V30 9 2 9 10
M  V30 10 1 10 11
M  V30 11 1 10 12
M  V30 12 1 12 13
M  V30 13 1 13 14
M  V30 14 1 14 15
M  V30 15 1 15 16
M  V30 16 1 16 17
M  V30 17 2 17 18
M  V30 18 1 18 19
M  V30 19 2 19 20
M  V30 20 1 20 21
M  V30 21 2 21 22
M  V30 22 1 12 23
M  V30 23 1 23 24
M  V30 24 1 24 25
M  V30 25 2 25 26
M  V30 26 2 6 27
M  V30 27 1 27 2
M  V30 28 1 11 7
M  V30 29 1 22 17
M  V30 30 1 25 9
M  V30 31 1 1 28
M  V30 32 1 1 29
M  V30 33 1 4 30
M  V30 34 1 5 31
M  V30 35 1 8 32
M  V30 36 1 11 33
M  V30 37 1 12 34
M  V30 38 1 13 35
M  V30 39 1 13 36
M  V30 40 1 14 37
M  V30 41 1 14 38
M  V30 42 1 16 39
M  V30 43 1 16 40
M  V30 44 1 18 41
M  V30 45 1 19 42
M  V30 46 1 20 43
M  V30 47 1 21 44
M  V30 48 1 22 45
M  V30 49 1 23 46
M  V30 50 1 23 47
M  V30 51 1 24 48
M  V30 END BOND
M  V30 END CTAB
M  END
>  <Dataset>  (431) 
ChEMBL_Kinases

>  <Ligand_Instance>  (431) 
nan

>  <PDB_ID>  (431) 
nan

>  <Standardized_SMILES>  (431) 
Nc1nccc(-c2cc3c([nH]2)C(CCOCc2ccccc2)CNC3=O)n1

>  <Name>  (431) 
nan

>  <Pocket>  (431) 
nan

>  <ATP_Site>  (431) 
nan

>  <Peripheral>  (431) 
nan

>  <Num_H_Atoms_ProtBoundConf>  (431) 
nan

>  <Num_Resolved_Atoms>  (431) 
nan

>  <Num_Not_Resolved_Atoms>  (431) 
nan

$$$$
CHEMBL3805094
     RDKit          3D

  0  0  0  0  0  0  0  0  0  0999 V3000
M  V30 BEGIN CTAB
M  V30 COUNTS 69 72 0 0 0
M  V30 BEGIN ATOM
M  V30 1 C 3.819784 -3.019989 2.955715 0
M  V30 2 C 4.093737 -1.626124 2.456800 0
M  V30 3 N 4.774199 -1.550421 1.229468 0
M  V30 4 C 4.035023 -1.995879 0.097625 0
M  V30 5 C 3.526720 -0.904663 -0.807009 0
M  V30 6 N 4.350126 0.286005 -0.746384 0
M  V30 7 C 4.220830 1.132940 -1.903055 0
M  V30 8 C 2.849156 1.616366 -2.115984 0
M  V30 9 C 1.990341 1.131609 -3.081334 0
M  V30 10 C 0.705219 1.582908 -3.281837 0
M  V30 11 C 0.222773 2.589411 -2.472052 0
M  V30 12 C -1.140802 3.189654 -2.549457 0
M  V30 13 C -2.047530 2.361933 -1.678714 0
M  V30 14 O -0.916899 1.777127 -1.558602 0
M  V30 15 N -3.392081 2.287418 -1.247906 0
M  V30 16 C -3.475968 1.161964 -0.389050 0
M  V30 17 C -3.263627 1.273277 0.964209 0
M  V30 18 C -3.371495 0.111673 1.696001 0
M  V30 19 C -3.676276 -1.074124 1.071632 0
M  V30 20 O -3.811862 -2.308563 1.703564 0
M  V30 21 C -5.036452 -2.712967 2.172471 0
M  V30 22 C -5.087082 -3.960032 2.794346 0
M  V30 23 C -6.250526 -4.460563 3.296683 0
M  V30 24 N -6.397654 -5.720266 3.947180 0
M  V30 25 C -6.709841 -6.874011 3.103327 0
M  V30 26 N -7.375535 -3.744083 3.194682 0
M  V30 27 C -7.345904 -2.537437 2.597480 0
M  V30 28 N -6.209511 -2.053007 2.108895 0
M  V30 29 C -3.888992 -1.174675 -0.297980 0
M  V30 30 C -3.781366 0.000438 -1.049607 0
M  V30 31 C 1.094926 3.079973 -1.493785 0
M  V30 32 C 2.405151 2.636040 -1.272322 0
M  V30 33 C 3.189561 3.270115 -0.188103 0
M  V30 34 F 2.449257 4.264798 0.468813 0
M  V30 35 F 4.206578 3.977406 -0.814193 0
M  V30 36 F 3.788893 2.423304 0.681985 0
M  V30 37 C 5.679949 -0.142750 -0.461983 0
M  V30 38 C 5.700154 -0.517265 1.002516 0
M  V30 39 H 3.463193 -2.915963 4.008152 0
M  V30 40 H 4.715704 -3.662862 3.035009 0
M  V30 41 H 3.000852 -3.536796 2.415053 0
M  V30 42 H 3.068039 -1.177999 2.293551 0
M  V30 43 H 4.554413 -1.040625 3.259192 0
M  V30 44 H 3.151079 -2.546622 0.480247 0
M  V30 45 H 4.604751 -2.778009 -0.482941 0
M  V30 46 H 3.546350 -1.315235 -1.845450 0
M  V30 47 H 2.469688 -0.699335 -0.571418 0
M  V30 48 H 4.999488 1.885939 -1.989109 0
M  V30 49 H 4.437358 0.441233 -2.774792 0
M  V30 50 H 2.354265 0.334873 -3.732374 0
M  V30 51 H 0.035553 1.200959 -4.038990 0
M  V30 52 H -1.545146 3.165270 -3.571047 0
M  V30 53 H -1.081502 4.229455 -2.182313 0
M  V30 54 H -3.813891 3.102596 -1.735822 0
M  V30 55 H -3.025849 2.210160 1.436864 0
M  V30 56 H -3.225283 0.079526 2.767234 0
M  V30 57 H -4.198877 -4.569461 2.895992 0
M  V30 58 H -6.243423 -5.571878 4.985679 0
M  V30 59 H -6.972972 -7.754829 3.731247 0
M  V30 60 H -5.852343 -7.093178 2.435498 0
M  V30 61 H -7.631246 -6.594492 2.534514 0
M  V30 62 H -8.172419 -1.848673 2.443321 0
M  V30 63 H -4.132445 -2.100499 -0.825664 0
M  V30 64 H -3.947453 -0.070433 -2.130166 0
M  V30 65 H 0.723418 3.884509 -0.838937 0
M  V30 66 H 6.465480 0.558896 -0.769472 0
M  V30 67 H 5.880759 -1.099357 -1.023239 0
M  V30 68 H 6.720263 -0.686355 1.384169 0
M  V30 69 H 5.338061 0.385867 1.576301 0
M  V30 END ATOM
M  V30 BEGIN BOND
M  V30 1 1 1 2
M  V30 2 1 2 3
M  V30 3 1 3 4
M  V30 4 1 4 5
M  V30 5 1 5 6
M  V30 6 1 6 7
M  V30 7 1 7 8
M  V30 8 2 8 9
M  V30 9 1 9 10
M  V30 10 2 10 11
M  V30 11 1 11 12
M  V30 12 1 12 13
M  V30 13 2 13 14
M  V30 14 1 13 15
M  V30 15 1 15 16
M  V30 16 2 16 17
M  V30 17 1 17 18
M  V30 18 2 18 19
M  V30 19 1 19 20
M  V30 20 1 20 21
M  V30 21 2 21 22
M  V30 22 1 22 23
M  V30 23 1 23 24
M  V30 24 1 24 25
M  V30 25 2 23 26
M  V30 26 1 26 27
M  V30 27 2 27 28
M  V30 28 1 19 29
M  V30 29 2 29 30
M  V30 30 1 11 31
M  V30 31 2 31 32
M  V30 32 1 32 33
M  V30 33 1 33 34
M  V30 34 1 33 35
M  V30 35 1 33 36
M  V30 36 1 6 37
M  V30 37 1 37 38
M  V30 38 1 38 3
M  V30 39 1 32 8
M  V30 40 1 30 16
M  V30 41 1 28 21
M  V30 42 1 1 39
M  V30 43 1 1 40
M  V30 44 1 1 41
M  V30 45 1 2 42
M  V30 46 1 2 43
M  V30 47 1 4 44
M  V30 48 1 4 45
M  V30 49 1 5 46
M  V30 50 1 5 47
M  V30 51 1 7 48
M  V30 52 1 7 49
M  V30 53 1 9 50
M  V30 54 1 10 51
M  V30 55 1 12 52
M  V30 56 1 12 53
M  V30 57 1 15 54
M  V30 58 1 17 55
M  V30 59 1 18 56
M  V30 60 1 22 57
M  V30 61 1 24 58
M  V30 62 1 25 59
M  V30 63 1 25 60
M  V30 64 1 25 61
M  V30 65 1 27 62
M  V30 66 1 29 63
M  V30 67 1 30 64
M  V30 68 1 31 65
M  V30 69 1 37 66
M  V30 70 1 37 67
M  V30 71 1 38 68
M  V30 72 1 38 69
M  V30 END BOND
M  V30 END CTAB
M  END
>  <Dataset>  (432) 
ChEMBL_Kinases

>  <Ligand_Instance>  (432) 
nan

>  <PDB_ID>  (432) 
nan

>  <Standardized_SMILES>  (432) 
CCN1CCN(Cc2ccc(CC(=O)Nc3ccc(Oc4cc(NC)ncn4)cc3)cc2C(F)(F)F)CC1

>  <Name>  (432) 
nan

>  <Pocket>  (432) 
nan

>  <ATP_Site>  (432) 
nan

>  <Peripheral>  (432) 
nan

>  <Num_H_Atoms_ProtBoundConf>  (432) 
nan

>  <Num_Resolved_Atoms>  (432) 
nan

>  <Num_Not_Resolved_Atoms>  (432) 
nan

$$$$
CHEMBL498211
     RDKit          3D

  0  0  0  0  0  0  0  0  0  0999 V3000
M  V30 BEGIN CTAB
M  V30 COUNTS 55 58 0 0 0
M  V30 BEGIN ATOM
M  V30 1 C 0.192757 0.561164 5.200206 0
M  V30 2 N 1.083545 -0.285284 4.346498 0
M  V30 3 C 1.435884 -1.425995 5.201964 0
M  V30 4 C 2.207598 0.522204 3.968359 0
M  V30 5 C 2.973173 -0.006559 2.806444 0
M  V30 6 C 3.603478 -1.323250 2.862351 0
M  V30 7 C 4.038376 1.023027 2.370078 0
M  V30 8 C 1.989016 0.004875 1.643264 0
M  V30 9 C 1.852779 1.035285 0.718210 0
M  V30 10 C 0.911156 0.894958 -0.274740 0
M  V30 11 N 0.144125 -0.200740 -0.351935 0
M  V30 12 C -0.818104 -0.510912 -1.236410 0
M  V30 13 C -1.362414 0.173666 -2.400312 0
M  V30 14 C -2.719788 0.417161 -2.339533 0
M  V30 15 C -3.353148 1.053164 -3.387114 0
M  V30 16 N -2.669252 1.445961 -4.479541 0
M  V30 17 C -1.349304 1.203637 -4.523943 0
M  V30 18 N -0.579259 1.607626 -5.671281 0
M  V30 19 N -0.740314 0.593830 -3.520188 0
M  V30 20 C -1.307943 -1.729750 -0.890762 0
M  V30 21 C -2.319683 -2.675592 -1.348279 0
M  V30 22 C -3.463991 -2.609704 -0.533487 0
M  V30 23 C -4.599441 -3.408821 -0.723001 0
M  V30 24 C -4.540165 -4.292216 -1.781375 0
M  V30 25 F -5.604433 -5.115273 -2.046343 0
M  V30 26 C -3.427188 -4.370111 -2.590795 0
M  V30 27 C -2.317450 -3.576868 -2.391185 0
M  V30 28 N -0.620507 -2.143045 0.215457 0
M  V30 29 C 0.275436 -1.193818 0.541229 0
M  V30 30 C 1.209772 -1.133830 1.583549 0
M  V30 31 H -0.819893 0.187180 5.065800 0
M  V30 32 H 0.271628 1.596037 4.864531 0
M  V30 33 H 0.609689 0.481810 6.219145 0
M  V30 34 H 0.650898 -1.474794 6.013202 0
M  V30 35 H 2.413067 -1.312754 5.685287 0
M  V30 36 H 1.297701 -2.337009 4.607114 0
M  V30 37 H 2.861541 0.558467 4.900457 0
M  V30 38 H 1.850407 1.559527 3.766092 0
M  V30 39 H 3.384620 -1.917761 3.757726 0
M  V30 40 H 3.355195 -1.934777 1.936125 0
M  V30 41 H 4.736559 -1.192403 2.806299 0
M  V30 42 H 4.948346 0.832638 2.952661 0
M  V30 43 H 3.684556 2.054958 2.547309 0
M  V30 44 H 4.208431 0.894678 1.288269 0
M  V30 45 H 2.497762 1.881927 0.841313 0
M  V30 46 H 0.792106 1.689325 -1.006761 0
M  V30 47 H -3.383192 0.156607 -1.531141 0
M  V30 48 H -4.403105 1.292556 -3.455082 0
M  V30 49 H -0.239533 0.765979 -6.203852 0
M  V30 50 H -0.330413 2.584450 -6.013514 0
M  V30 51 H -3.592439 -1.936617 0.329202 0
M  V30 52 H -5.467307 -3.357674 -0.105616 0
M  V30 53 H -3.353281 -5.048084 -3.428041 0
M  V30 54 H -1.393625 -3.537373 -2.941272 0
M  V30 55 H 1.240653 -1.962615 2.244610 0
M  V30 END ATOM
M  V30 BEGIN BOND
M  V30 1 1 1 2
M  V30 2 1 2 3
M  V30 3 1 2 4
M  V30 4 1 4 5
M  V30 5 1 5 6
M  V30 6 1 5 7
M  V30 7 1 5 8
M  V30 8 1 8 9
M  V30 9 2 9 10
M  V30 10 1 10 11
M  V30 11 1 11 12
M  V30 12 1 12 13
M  V30 13 2 13 14
M  V30 14 1 14 15
M  V30 15 2 15 16
M  V30 16 1 16 17
M  V30 17 1 17 18
M  V30 18 2 17 19
M  V30 19 2 12 20
M  V30 20 1 20 21
M  V30 21 2 21 22
M  V30 22 1 22 23
M  V30 23 2 23 24
M  V30 24 1 24 25
M  V30 25 1 24 26
M  V30 26 2 26 27
M  V30 27 1 20 28
M  V30 28 2 28 29
M  V30 29 1 29 30
M  V30 30 2 30 8
M  V30 31 1 29 11
M  V30 32 1 19 13
M  V30 33 1 27 21
M  V30 34 1 1 31
M  V30 35 1 1 32
M  V30 36 1 1 33
M  V30 37 1 3 34
M  V30 38 1 3 35
M  V30 39 1 3 36
M  V30 40 1 4 37
M  V30 41 1 4 38
M  V30 42 1 6 39
M  V30 43 1 6 40
M  V30 44 1 6 41
M  V30 45 1 7 42
M  V30 46 1 7 43
M  V30 47 1 7 44
M  V30 48 1 9 45
M  V30 49 1 10 46
M  V30 50 1 14 47
M  V30 51 1 15 48
M  V30 52 1 18 49
M  V30 53 1 18 50
M  V30 54 1 22 51
M  V30 55 1 23 52
M  V30 56 1 26 53
M  V30 57 1 27 54
M  V30 58 1 30 55
M  V30 END BOND
M  V30 END CTAB
M  END
>  <Dataset>  (433) 
ChEMBL_Kinases

>  <Ligand_Instance>  (433) 
nan

>  <PDB_ID>  (433) 
nan

>  <Standardized_SMILES>  (433) 
CN(C)CC(C)(C)c1ccn2c(-c3ccnc(N)n3)c(-c3ccc(F)cc3)nc2c1

>  <Name>  (433) 
nan

>  <Pocket>  (433) 
nan

>  <ATP_Site>  (433) 
nan

>  <Peripheral>  (433) 
nan

>  <Num_H_Atoms_ProtBoundConf>  (433) 
nan

>  <Num_Resolved_Atoms>  (433) 
nan

>  <Num_Not_Resolved_Atoms>  (433) 
nan

$$$$
CHEMBL3805037
     RDKit          3D

  0  0  0  0  0  0  0  0  0  0999 V3000
M  V30 BEGIN CTAB
M  V30 COUNTS 51 54 0 0 0
M  V30 BEGIN ATOM
M  V30 1 C 4.026649 3.751745 3.127800 0
M  V30 2 N 4.979651 2.677129 2.986442 0
M  V30 3 N 6.232125 2.806210 3.452008 0
M  V30 4 C 6.910997 1.664231 3.192250 0
M  V30 5 C 6.036617 0.822220 2.549515 0
M  V30 6 Br 6.312313 -0.952669 1.890024 0
M  V30 7 C 4.806463 1.458788 2.414795 0
M  V30 8 C 3.596705 0.963366 1.808466 0
M  V30 9 C 3.184357 -0.321895 2.100812 0
M  V30 10 C 2.028740 -0.876711 1.558041 0
M  V30 11 C 1.253104 -0.130938 0.693929 0
M  V30 12 C 0.018939 -0.560294 0.041345 0
M  V30 13 O -0.630583 0.192662 -0.739651 0
M  V30 14 N -0.543574 -1.853255 0.234384 0
M  V30 15 C -1.796929 -2.254115 -0.444427 0
M  V30 16 C -2.916304 -1.405995 0.074785 0
M  V30 17 C -2.720648 -0.921785 1.367336 0
M  V30 18 C -3.599336 -0.119431 2.064297 0
M  V30 19 C -4.771752 0.241074 1.443402 0
M  V30 20 Cl -5.948541 1.254394 2.243235 0
M  V30 21 C -4.998770 -0.218838 0.166086 0
M  V30 22 Cl -6.463957 0.189161 -0.702751 0
M  V30 23 C -4.088375 -1.013725 -0.476621 0
M  V30 24 C -2.071648 -3.661087 -0.001111 0
M  V30 25 C -3.050295 -4.367389 -0.902470 0
M  V30 26 N -2.319385 -4.497850 -2.181160 0
M  V30 27 C -2.344574 -3.163520 -2.737756 0
M  V30 28 C -1.611426 -2.186236 -1.919519 0
M  V30 29 C 1.695806 1.156417 0.421418 0
M  V30 30 C 2.832830 1.715068 0.949745 0
M  V30 31 H 2.975704 3.408649 3.041389 0
M  V30 32 H 4.259551 4.635266 2.488312 0
M  V30 33 H 4.085023 4.170012 4.172635 0
M  V30 34 H 7.917855 1.312449 3.374018 0
M  V30 35 H 3.728737 -0.986617 2.770438 0
M  V30 36 H 1.694792 -1.860689 1.769342 0
M  V30 37 H -0.021845 -2.490229 0.876881 0
M  V30 38 H -1.811775 -1.159279 1.940287 0
M  V30 39 H -3.419139 0.232902 3.050335 0
M  V30 40 H -4.259426 -1.366664 -1.459498 0
M  V30 41 H -2.475553 -3.695985 1.046462 0
M  V30 42 H -1.139776 -4.288247 -0.029026 0
M  V30 43 H -3.990121 -3.773643 -1.053722 0
M  V30 44 H -3.280587 -5.356021 -0.463268 0
M  V30 45 H -2.847119 -5.123412 -2.833129 0
M  V30 46 H -3.415934 -2.949860 -2.941746 0
M  V30 47 H -1.842648 -3.202976 -3.759893 0
M  V30 48 H -0.502129 -2.395100 -2.092970 0
M  V30 49 H -1.725550 -1.138906 -2.312208 0
M  V30 50 H 1.139217 1.796273 -0.245451 0
M  V30 51 H 3.139226 2.718639 0.710823 0
M  V30 END ATOM
M  V30 BEGIN BOND
M  V30 1 1 1 2
M  V30 2 1 2 3
M  V30 3 2 3 4
M  V30 4 1 4 5
M  V30 5 1 5 6
M  V30 6 2 5 7
M  V30 7 1 7 8
M  V30 8 2 8 9
M  V30 9 1 9 10
M  V30 10 2 10 11
M  V30 11 1 11 12
M  V30 12 2 12 13
M  V30 13 1 12 14
M  V30 14 1 14 15
M  V30 15 1 15 16
M  V30 16 2 16 17
M  V30 17 1 17 18
M  V30 18 2 18 19
M  V30 19 1 19 20
M  V30 20 1 19 21
M  V30 21 1 21 22
M  V30 22 2 21 23
M  V30 23 1 15 24
M  V30 24 1 24 25
M  V30 25 1 25 26
M  V30 26 1 26 27
M  V30 27 1 27 28
M  V30 28 1 11 29
M  V30 29 2 29 30
M  V30 30 1 7 2
M  V30 31 1 30 8
M  V30 32 1 28 15
M  V30 33 1 23 16
M  V30 34 1 1 31
M  V30 35 1 1 32
M  V30 36 1 1 33
M  V30 37 1 4 34
M  V30 38 1 9 35
M  V30 39 1 10 36
M  V30 40 1 14 37
M  V30 41 1 17 38
M  V30 42 1 18 39
M  V30 43 1 23 40
M  V30 44 1 24 41
M  V30 45 1 24 42
M  V30 46 1 25 43
M  V30 47 1 25 44
M  V30 48 1 26 45
M  V30 49 1 27 46
M  V30 50 1 27 47
M  V30 51 1 28 48
M  V30 52 1 28 49
M  V30 53 1 29 50
M  V30 54 1 30 51
M  V30 END BOND
M  V30 END CTAB
M  END
>  <Dataset>  (434) 
ChEMBL_Kinases

>  <Ligand_Instance>  (434) 
nan

>  <PDB_ID>  (434) 
nan

>  <Standardized_SMILES>  (434) 
Cn1ncc(Br)c1-c1ccc(C(=O)NC2(c3ccc(Cl)c(Cl)c3)CCNCC2)cc1

>  <Name>  (434) 
nan

>  <Pocket>  (434) 
nan

>  <ATP_Site>  (434) 
nan

>  <Peripheral>  (434) 
nan

>  <Num_H_Atoms_ProtBoundConf>  (434) 
nan

>  <Num_Resolved_Atoms>  (434) 
nan

>  <Num_Not_Resolved_Atoms>  (434) 
nan

$$$$
CHEMBL498200
     RDKit          3D

  0  0  0  0  0  0  0  0  0  0999 V3000
M  V30 BEGIN CTAB
M  V30 COUNTS 37 39 0 0 0
M  V30 BEGIN ATOM
M  V30 1 N 2.999046 -5.226987 3.295944 0
M  V30 2 C 3.062152 -4.434687 2.115957 0
M  V30 3 N 4.056660 -4.450963 1.202550 0
M  V30 4 C 3.980892 -3.634896 0.119761 0
M  V30 5 C 2.870024 -2.832895 0.031513 0
M  V30 6 C 1.837165 -2.791620 0.945675 0
M  V30 7 C 0.685456 -1.909425 0.782410 0
M  V30 8 C -0.346697 -1.883173 1.716984 0
M  V30 9 C -1.227665 -0.944433 1.218787 0
M  V30 10 C -0.754250 -0.420972 0.032829 0
M  V30 11 N 0.419823 -1.029893 -0.211342 0
M  V30 12 C -1.456730 0.613842 -0.769179 0
M  V30 13 C -1.051434 1.988770 -0.295676 0
M  V30 14 C 0.410069 2.258256 -0.414571 0
M  V30 15 C 0.671414 3.675049 0.097172 0
M  V30 16 F 0.281614 3.776183 1.401547 0
M  V30 17 F 2.016009 4.022895 -0.064301 0
M  V30 18 F -0.034758 4.601733 -0.641842 0
M  V30 19 C -2.946800 0.463515 -0.484265 0
M  V30 20 N -3.185574 0.552522 0.944670 0
M  V30 21 C -2.521691 -0.450593 1.738469 0
M  V30 22 O -3.028970 -0.883914 2.828892 0
M  V30 23 N 2.008359 -3.636413 1.979237 0
M  V30 24 H 2.271451 -5.998702 3.363630 0
M  V30 25 H 3.417422 -5.388461 4.236667 0
M  V30 26 H 4.764953 -3.634765 -0.618718 0
M  V30 27 H 2.845342 -2.196599 -0.845146 0
M  V30 28 H -0.521070 -2.413300 2.630851 0
M  V30 29 H 1.078864 -0.910136 -1.001135 0
M  V30 30 H -1.264249 0.527269 -1.838946 0
M  V30 31 H -1.581368 2.708506 -0.963482 0
M  V30 32 H -1.390876 2.209128 0.716932 0
M  V30 33 H 1.053610 1.536912 0.093709 0
M  V30 34 H 0.707830 2.236711 -1.497526 0
M  V30 35 H -3.209188 -0.544744 -0.864690 0
M  V30 36 H -3.538147 1.234882 -1.017131 0
M  V30 37 H -3.781040 1.254972 1.476734 0
M  V30 END ATOM
M  V30 BEGIN BOND
M  V30 1 1 1 2
M  V30 2 2 2 3
M  V30 3 1 3 4
M  V30 4 2 4 5
M  V30 5 1 5 6
M  V30 6 1 6 7
M  V30 7 2 7 8
M  V30 8 1 8 9
M  V30 9 2 9 10
M  V30 10 1 10 11
M  V30 11 1 10 12
M  V30 12 1 12 13
M  V30 13 1 13 14
M  V30 14 1 14 15
M  V30 15 1 15 16
M  V30 16 1 15 17
M  V30 17 1 15 18
M  V30 18 1 12 19
M  V30 19 1 19 20
M  V30 20 1 20 21
M  V30 21 2 21 22
M  V30 22 2 6 23
M  V30 23 1 23 2
M  V30 24 1 11 7
M  V30 25 1 21 9
M  V30 26 1 1 24
M  V30 27 1 1 25
M  V30 28 1 4 26
M  V30 29 1 5 27
M  V30 30 1 8 28
M  V30 31 1 11 29
M  V30 32 1 12 30
M  V30 33 1 13 31
M  V30 34 1 13 32
M  V30 35 1 14 33
M  V30 36 1 14 34
M  V30 37 1 19 35
M  V30 38 1 19 36
M  V30 39 1 20 37
M  V30 END BOND
M  V30 END CTAB
M  END
>  <Dataset>  (435) 
ChEMBL_Kinases

>  <Ligand_Instance>  (435) 
nan

>  <PDB_ID>  (435) 
nan

>  <Standardized_SMILES>  (435) 
Nc1nccc(-c2cc3c([nH]2)C(CCC(F)(F)F)CNC3=O)n1

>  <Name>  (435) 
nan

>  <Pocket>  (435) 
nan

>  <ATP_Site>  (435) 
nan

>  <Peripheral>  (435) 
nan

>  <Num_H_Atoms_ProtBoundConf>  (435) 
nan

>  <Num_Resolved_Atoms>  (435) 
nan

>  <Num_Not_Resolved_Atoms>  (435) 
nan

$$$$
CHEMBL591764
     RDKit          3D

  0  0  0  0  0  0  0  0  0  0999 V3000
M  V30 BEGIN CTAB
M  V30 COUNTS 67 72 0 0 0
M  V30 BEGIN ATOM
M  V30 1 C 4.563298 -3.287034 4.016555 0
M  V30 2 N 5.159809 -2.480073 5.061511 0
M  V30 3 C 4.157072 -1.719385 5.781871 0
M  V30 4 C 3.450068 -0.737396 4.839305 0
M  V30 5 N 4.431966 -0.235188 3.939465 0
M  V30 6 C 4.063719 0.283308 2.650461 0
M  V30 7 C 2.781125 0.363935 2.214510 0
M  V30 8 C 2.385412 0.852971 0.986842 0
M  V30 9 C 0.976143 0.897048 0.619094 0
M  V30 10 O 0.125190 0.483994 1.448016 0
M  V30 11 N 0.537696 1.383371 -0.624240 0
M  V30 12 C -0.885705 1.328718 -0.753423 0
M  V30 13 C -1.542867 2.485152 -0.312977 0
M  V30 14 C -2.927193 2.608968 -0.364181 0
M  V30 15 C -3.677384 1.543971 -0.871393 0
M  V30 16 C -3.025397 0.408477 -1.303500 0
M  V30 17 C -1.655633 0.292862 -1.249794 0
M  V30 18 C -3.818564 -0.665764 -1.819392 0
M  V30 19 C -5.166901 -0.512863 -1.857160 0
M  V30 20 C -5.686829 -1.670704 -2.387121 0
M  V30 21 C -7.075033 -2.085916 -2.668425 0
M  V30 22 N -8.094435 -1.132625 -2.340086 0
M  V30 23 O -7.465454 -3.166494 -3.157276 0
M  V30 24 N -4.613825 -2.467978 -2.643269 0
M  V30 25 N -3.487223 -1.853015 -2.297190 0
M  V30 26 C -2.262653 -2.520967 -2.487474 0
M  V30 27 C -1.819113 -3.310376 -1.418958 0
M  V30 28 C -0.633215 -3.997340 -1.542666 0
M  V30 29 C 0.120871 -3.930657 -2.675538 0
M  V30 30 F 1.297540 -4.576534 -2.873719 0
M  V30 31 C -0.291205 -3.166402 -3.732797 0
M  V30 32 C -1.473015 -2.465422 -3.643727 0
M  V30 33 C -5.941336 0.658300 -1.420897 0
M  V30 34 C -5.141890 1.788579 -0.875978 0
M  V30 35 C 3.389179 1.291132 0.147349 0
M  V30 36 C 4.697463 1.214136 0.579643 0
M  V30 37 N 5.004743 0.723547 1.794138 0
M  V30 38 C 5.833932 -0.234136 4.310047 0
M  V30 39 C 6.236218 -1.661427 4.581690 0
M  V30 40 H 5.189347 -3.310749 3.099013 0
M  V30 41 H 4.482572 -4.325525 4.367826 0
M  V30 42 H 3.553538 -2.934698 3.748160 0
M  V30 43 H 3.392655 -2.424484 6.127447 0
M  V30 44 H 4.623678 -1.211132 6.632245 0
M  V30 45 H 2.561352 -1.207627 4.379661 0
M  V30 46 H 3.062313 0.095900 5.459570 0
M  V30 47 H 1.987194 0.024227 2.862597 0
M  V30 48 H 1.194614 1.734576 -1.345560 0
M  V30 49 H -0.993808 3.333103 0.087118 0
M  V30 50 H -3.383683 3.533269 -0.006947 0
M  V30 51 H -1.086383 -0.537379 -1.558395 0
M  V30 52 H -8.616640 -0.947563 -1.445947 0
M  V30 53 H -8.840055 -0.428961 -2.115287 0
M  V30 54 H -2.388102 -3.391983 -0.498686 0
M  V30 55 H -0.285016 -4.604555 -0.728831 0
M  V30 56 H 0.215183 -3.042195 -4.660954 0
M  V30 57 H -1.929090 -1.823605 -4.386527 0
M  V30 58 H -6.454142 1.047530 -2.348099 0
M  V30 59 H -6.757222 0.381896 -0.723505 0
M  V30 60 H -5.289954 2.740666 -1.435239 0
M  V30 61 H -5.501130 1.988248 0.177071 0
M  V30 62 H 3.159972 1.686921 -0.829230 0
M  V30 63 H 5.522834 1.547163 -0.046156 0
M  V30 64 H 6.462592 0.247289 3.538160 0
M  V30 65 H 5.917297 0.396570 5.239484 0
M  V30 66 H 6.575450 -2.092165 3.599557 0
M  V30 67 H 7.108820 -1.705724 5.266917 0
M  V30 END ATOM
M  V30 BEGIN BOND
M  V30 1 1 1 2
M  V30 2 1 2 3
M  V30 3 1 3 4
M  V30 4 1 4 5
M  V30 5 1 5 6
M  V30 6 2 6 7
M  V30 7 1 7 8
M  V30 8 1 8 9
M  V30 9 2 9 10
M  V30 10 1 9 11
M  V30 11 1 11 12
M  V30 12 2 12 13
M  V30 13 1 13 14
M  V30 14 2 14 15
M  V30 15 1 15 16
M  V30 16 2 16 17
M  V30 17 1 16 18
M  V30 18 2 18 19
M  V30 19 1 19 20
M  V30 20 1 20 21
M  V30 21 1 21 22
M  V30 22 2 21 23
M  V30 23 2 20 24
M  V30 24 1 24 25
M  V30 25 1 25 26
M  V30 26 2 26 27
M  V30 27 1 27 28
M  V30 28 2 28 29
M  V30 29 1 29 30
M  V30 30 1 29 31
M  V30 31 2 31 32
M  V30 32 1 19 33
M  V30 33 1 33 34
M  V30 34 2 8 35
M  V30 35 1 35 36
M  V30 36 2 36 37
M  V30 37 1 5 38
M  V30 38 1 38 39
M  V30 39 1 39 2
M  V30 40 1 37 6
M  V30 41 1 17 12
M  V30 42 1 25 18
M  V30 43 1 32 26
M  V30 44 1 34 15
M  V30 45 1 1 40
M  V30 46 1 1 41
M  V30 47 1 1 42
M  V30 48 1 3 43
M  V30 49 1 3 44
M  V30 50 1 4 45
M  V30 51 1 4 46
M  V30 52 1 7 47
M  V30 53 1 11 48
M  V30 54 1 13 49
M  V30 55 1 14 50
M  V30 56 1 17 51
M  V30 57 1 22 52
M  V30 58 1 22 53
M  V30 59 1 27 54
M  V30 60 1 28 55
M  V30 61 1 31 56
M  V30 62 1 32 57
M  V30 63 1 33 58
M  V30 64 1 33 59
M  V30 65 1 34 60
M  V30 66 1 34 61
M  V30 67 1 35 62
M  V30 68 1 36 63
M  V30 69 1 38 64
M  V30 70 1 38 65
M  V30 71 1 39 66
M  V30 72 1 39 67
M  V30 END BOND
M  V30 END CTAB
M  END
>  <Dataset>  (436) 
ChEMBL_Kinases

>  <Ligand_Instance>  (436) 
nan

>  <PDB_ID>  (436) 
nan

>  <Standardized_SMILES>  (436) 
CN1CCN(c2cc(C(=O)Nc3ccc4c(c3)-c3c(c(C(N)=O)nn3-c3ccc(F)cc3)CC4)ccn2)CC1

>  <Name>  (436) 
nan

>  <Pocket>  (436) 
nan

>  <ATP_Site>  (436) 
nan

>  <Peripheral>  (436) 
nan

>  <Num_H_Atoms_ProtBoundConf>  (436) 
nan

>  <Num_Resolved_Atoms>  (436) 
nan

>  <Num_Not_Resolved_Atoms>  (436) 
nan

$$$$
CHEMBL380806
     RDKit          3D

  0  0  0  0  0  0  0  0  0  0999 V3000
M  V30 BEGIN CTAB
M  V30 COUNTS 66 71 0 0 0
M  V30 BEGIN ATOM
M  V30 1 C 4.486057 -2.442370 3.462756 0
M  V30 2 C 3.762707 -3.386935 2.491745 0
M  V30 3 C 3.451263 -4.632025 3.228993 0
M  V30 4 N 2.723583 -2.654309 1.907651 0
M  V30 5 C 1.728695 -2.109310 2.748036 0
M  V30 6 C 0.572974 -3.079766 2.666314 0
M  V30 7 C 0.924080 -4.020414 1.562812 0
M  V30 8 C 1.993194 -3.234646 0.831560 0
M  V30 9 C 1.283376 -2.187822 0.014819 0
M  V30 10 C 1.340298 -0.813344 0.614232 0
M  V30 11 C 0.285869 0.020802 -0.021096 0
M  V30 12 C 0.649914 1.070333 -0.860442 0
M  V30 13 C -0.299409 1.865362 -1.467302 0
M  V30 14 C -0.008839 2.978534 -2.355181 0
M  V30 15 C 0.174618 4.296379 -1.969487 0
M  V30 16 C 0.444848 5.227577 -2.955042 0
M  V30 17 C 0.534964 4.885021 -4.288364 0
M  V30 18 F 0.799699 5.807952 -5.237213 0
M  V30 19 C 0.348410 3.566021 -4.648159 0
M  V30 20 C 0.076860 2.604213 -3.697888 0
M  V30 21 Cl -0.144098 0.956637 -4.256127 0
M  V30 22 C -1.619913 1.539685 -1.178299 0
M  V30 23 C -2.599443 2.312500 -1.766916 0
M  V30 24 C -3.952278 2.124462 -1.586166 0
M  V30 25 C -4.281015 1.064142 -0.739116 0
M  V30 26 O -5.463226 0.785764 -0.490897 0
M  V30 27 N -3.335532 0.297820 -0.154824 0
M  V30 28 C -3.683737 -0.781785 0.708001 0
M  V30 29 C -3.697674 -2.026378 0.165075 0
M  V30 30 Cl -3.307541 -2.302632 -1.515216 0
M  V30 31 C -4.036220 -3.085443 0.999201 0
M  V30 32 C -4.335874 -2.818410 2.316370 0
M  V30 33 C -4.325402 -1.554891 2.882067 0
M  V30 34 C -3.984556 -0.489104 2.042134 0
M  V30 35 Cl -3.944619 1.156538 2.674745 0
M  V30 36 C -2.013459 0.511851 -0.355438 0
M  V30 37 C -1.036121 -0.271277 0.241312 0
M  V30 38 C 1.357486 -0.763541 2.106662 0
M  V30 39 H 4.010283 -2.625429 4.460545 0
M  V30 40 H 4.292921 -1.394540 3.224338 0
M  V30 41 H 5.547629 -2.694744 3.566396 0
M  V30 42 H 4.539324 -3.636996 1.731878 0
M  V30 43 H 3.446278 -5.550744 2.607015 0
M  V30 44 H 2.565703 -4.639832 3.859572 0
M  V30 45 H 4.312028 -4.807519 3.941311 0
M  V30 46 H 1.994708 -1.888695 3.782516 0
M  V30 47 H -0.390953 -2.595815 2.410986 0
M  V30 48 H 0.400929 -3.643852 3.585972 0
M  V30 49 H 1.224794 -5.022887 1.870867 0
M  V30 50 H 0.090516 -4.151782 0.824447 0
M  V30 51 H 2.667314 -3.865517 0.229798 0
M  V30 52 H 1.750691 -2.199497 -0.992246 0
M  V30 53 H 0.223469 -2.470039 -0.153000 0
M  V30 54 H 2.311197 -0.382676 0.246802 0
M  V30 55 H 1.693034 1.297785 -1.065164 0
M  V30 56 H 0.093086 4.507012 -0.915589 0
M  V30 57 H 0.589643 6.268132 -2.649727 0
M  V30 58 H 0.422452 3.314313 -5.697840 0
M  V30 59 H -2.340265 3.142908 -2.430380 0
M  V30 60 H -4.708654 2.740082 -2.055654 0
M  V30 61 H -4.062608 -4.098212 0.617157 0
M  V30 62 H -4.597800 -3.660007 2.950785 0
M  V30 63 H -4.564655 -1.369529 3.920092 0
M  V30 64 H -1.384347 -1.051853 0.867256 0
M  V30 65 H 2.139707 -0.062265 2.471552 0
M  V30 66 H 0.420420 -0.449298 2.586240 0
M  V30 END ATOM
M  V30 BEGIN BOND
M  V30 1 1 1 2
M  V30 2 1 2 3
M  V30 3 1 2 4
M  V30 4 1 4 5
M  V30 5 1 5 6
M  V30 6 1 6 7
M  V30 7 1 7 8
M  V30 8 1 8 9
M  V30 9 1 9 10
M  V30 10 1 10 11
M  V30 11 2 11 12
M  V30 12 1 12 13
M  V30 13 1 13 14
M  V30 14 2 14 15
M  V30 15 1 15 16
M  V30 16 2 16 17
M  V30 17 1 17 18
M  V30 18 1 17 19
M  V30 19 2 19 20
M  V30 20 1 20 21
M  V30 21 2 13 22
M  V30 22 1 22 23
M  V30 23 2 23 24
M  V30 24 1 24 25
M  V30 25 2 25 26
M  V30 26 1 25 27
M  V30 27 1 27 28
M  V30 28 2 28 29
M  V30 29 1 29 30
M  V30 30 1 29 31
M  V30 31 2 31 32
M  V30 32 1 32 33
M  V30 33 2 33 34
M  V30 34 1 34 35
M  V30 35 1 27 36
M  V30 36 2 36 37
M  V30 37 1 10 38
M  V30 38 1 8 4
M  V30 39 1 37 11
M  V30 40 1 38 5
M  V30 41 1 20 14
M  V30 42 1 36 22
M  V30 43 1 34 28
M  V30 44 1 1 39
M  V30 45 1 1 40
M  V30 46 1 1 41
M  V30 47 1 2 42
M  V30 48 1 3 43
M  V30 49 1 3 44
M  V30 50 1 3 45
M  V30 51 1 5 46
M  V30 52 1 6 47
M  V30 53 1 6 48
M  V30 54 1 7 49
M  V30 55 1 7 50
M  V30 56 1 8 51
M  V30 57 1 9 52
M  V30 58 1 9 53
M  V30 59 1 10 54
M  V30 60 1 12 55
M  V30 61 1 15 56
M  V30 62 1 16 57
M  V30 63 1 19 58
M  V30 64 1 23 59
M  V30 65 1 24 60
M  V30 66 1 31 61
M  V30 67 1 32 62
M  V30 68 1 33 63
M  V30 69 1 37 64
M  V30 70 1 38 65
M  V30 71 1 38 66
M  V30 END BOND
M  V30 END CTAB
M  END
>  <Dataset>  (437) 
ChEMBL_Kinases

>  <Ligand_Instance>  (437) 
nan

>  <PDB_ID>  (437) 
nan

>  <Standardized_SMILES>  (437) 
CC(C)N1C2CCC1CC(c1cc(-c3ccc(F)cc3Cl)c3ccc(=O)n(-c4c(Cl)cccc4Cl)c3c1)C2

>  <Name>  (437) 
nan

>  <Pocket>  (437) 
nan

>  <ATP_Site>  (437) 
nan

>  <Peripheral>  (437) 
nan

>  <Num_H_Atoms_ProtBoundConf>  (437) 
nan

>  <Num_Resolved_Atoms>  (437) 
nan

>  <Num_Not_Resolved_Atoms>  (437) 
nan

$$$$
CHEMBL497615
     RDKit          3D

  0  0  0  0  0  0  0  0  0  0999 V3000
M  V30 BEGIN CTAB
M  V30 COUNTS 68 72 0 0 0
M  V30 BEGIN ATOM
M  V30 1 C 2.528921 2.947633 0.712223 0
M  V30 2 C 2.161564 2.101859 -0.463181 0
M  V30 3 C 3.203250 1.450176 -1.097160 0
M  V30 4 C 2.914708 0.658299 -2.182596 0
M  V30 5 C 1.634137 0.490926 -2.657406 0
M  V30 6 C 0.592501 1.137808 -2.028471 0
M  V30 7 N -0.783328 1.081964 -2.373019 0
M  V30 8 N -1.704802 2.025067 -2.383088 0
M  V30 9 C -2.884524 1.531839 -2.773513 0
M  V30 10 C -4.157605 2.323557 -2.892608 0
M  V30 11 C -4.912782 2.200113 -1.580959 0
M  V30 12 C -4.983121 1.801207 -4.036476 0
M  V30 13 C -3.766796 3.788753 -3.083772 0
M  V30 14 C -2.705357 0.178417 -3.031515 0
M  V30 15 C -1.359266 -0.083682 -2.769013 0
M  V30 16 N -0.754853 -1.371767 -2.897513 0
M  V30 17 C -0.688078 -2.231860 -1.745174 0
M  V30 18 O -1.155224 -1.810769 -0.656781 0
M  V30 19 N -0.139288 -3.546671 -1.680631 0
M  V30 20 C -0.258826 -4.050721 -0.332094 0
M  V30 21 C -1.324983 -4.701030 0.247944 0
M  V30 22 C -1.274007 -5.121646 1.554918 0
M  V30 23 C -0.133380 -4.885252 2.292897 0
M  V30 24 C 0.977618 -4.227964 1.746750 0
M  V30 25 N 2.132483 -4.015020 2.547137 0
M  V30 26 C 2.116189 -4.226834 3.952872 0
M  V30 27 N 2.119013 -5.424595 4.566367 0
M  V30 28 C 2.119592 -5.545107 5.919184 0
M  V30 29 N 2.117144 -4.402171 6.673455 0
M  V30 30 C 2.114250 -3.181075 6.071579 0
M  V30 31 C 2.120585 -2.052234 6.910867 0
M  V30 32 C 2.125581 -0.872089 6.209009 0
M  V30 33 C 2.124410 -0.636309 4.849733 0
M  V30 34 N 2.127893 0.680042 4.338779 0
M  V30 35 C 2.118657 -1.798340 4.096210 0
M  V30 36 C 2.113564 -3.049904 4.682719 0
M  V30 37 C 0.893655 -3.818996 0.433367 0
M  V30 38 C 0.871305 1.952607 -0.917332 0
M  V30 39 H 1.765307 2.869448 1.506001 0
M  V30 40 H 2.560587 4.002533 0.401134 0
M  V30 41 H 3.507977 2.644499 1.123457 0
M  V30 42 H 4.263635 1.493180 -0.826788 0
M  V30 43 H 3.637766 0.105156 -2.755701 0
M  V30 44 H 1.318187 -0.108443 -3.500625 0
M  V30 45 H -5.594977 1.319945 -1.603667 0
M  V30 46 H -4.203098 2.004479 -0.729509 0
M  V30 47 H -5.498261 3.110951 -1.372357 0
M  V30 48 H -4.324360 1.323040 -4.810729 0
M  V30 49 H -5.712856 1.061887 -3.647371 0
M  V30 50 H -5.559306 2.652700 -4.499339 0
M  V30 51 H -4.609639 4.334394 -3.530961 0
M  V30 52 H -3.465168 4.179988 -2.071340 0
M  V30 53 H -2.872619 3.854097 -3.723770 0
M  V30 54 H -3.451053 -0.505990 -3.362415 0
M  V30 55 H -0.320125 -1.873631 -3.713881 0
M  V30 56 H 0.241045 -3.904674 -2.600650 0
M  V30 57 H -2.123100 -4.793923 -0.487698 0
M  V30 58 H -2.148751 -5.612996 1.898338 0
M  V30 59 H -0.110773 -5.227011 3.336387 0
M  V30 60 H 3.011348 -3.694631 2.082825 0
M  V30 61 H 2.119949 -6.530133 6.363790 0
M  V30 62 H 2.122701 -2.111177 7.987589 0
M  V30 63 H 2.132524 0.035879 6.839602 0
M  V30 64 H 2.520148 1.447393 4.906953 0
M  V30 65 H 1.755911 0.951419 3.405420 0
M  V30 66 H 2.116077 -1.692307 3.022670 0
M  V30 67 H 1.755277 -3.316004 0.033641 0
M  V30 68 H 0.107624 2.502839 -0.359947 0
M  V30 END ATOM
M  V30 BEGIN BOND
M  V30 1 1 1 2
M  V30 2 2 2 3
M  V30 3 1 3 4
M  V30 4 2 4 5
M  V30 5 1 5 6
M  V30 6 1 6 7
M  V30 7 1 7 8
M  V30 8 2 8 9
M  V30 9 1 9 10
M  V30 10 1 10 11
M  V30 11 1 10 12
M  V30 12 1 10 13
M  V30 13 1 9 14
M  V30 14 2 14 15
M  V30 15 1 15 16
M  V30 16 1 16 17
M  V30 17 2 17 18
M  V30 18 1 17 19
M  V30 19 1 19 20
M  V30 20 2 20 21
M  V30 21 1 21 22
M  V30 22 2 22 23
M  V30 23 1 23 24
M  V30 24 1 24 25
M  V30 25 1 25 26
M  V30 26 2 26 27
M  V30 27 1 27 28
M  V30 28 2 28 29
M  V30 29 1 29 30
M  V30 30 2 30 31
M  V30 31 1 31 32
M  V30 32 2 32 33
M  V30 33 1 33 34
M  V30 34 1 33 35
M  V30 35 2 35 36
M  V30 36 2 24 37
M  V30 37 2 6 38
M  V30 38 1 38 2
M  V30 39 1 15 7
M  V30 40 1 37 20
M  V30 41 1 36 26
M  V30 42 1 36 30
M  V30 43 1 1 39
M  V30 44 1 1 40
M  V30 45 1 1 41
M  V30 46 1 3 42
M  V30 47 1 4 43
M  V30 48 1 5 44
M  V30 49 1 11 45
M  V30 50 1 11 46
M  V30 51 1 11 47
M  V30 52 1 12 48
M  V30 53 1 12 49
M  V30 54 1 12 50
M  V30 55 1 13 51
M  V30 56 1 13 52
M  V30 57 1 13 53
M  V30 58 1 14 54
M  V30 59 1 16 55
M  V30 60 1 19 56
M  V30 61 1 21 57
M  V30 62 1 22 58
M  V30 63 1 23 59
M  V30 64 1 25 60
M  V30 65 1 28 61
M  V30 66 1 31 62
M  V30 67 1 32 63
M  V30 68 1 34 64
M  V30 69 1 34 65
M  V30 70 1 35 66
M  V30 71 1 37 67
M  V30 72 1 38 68
M  V30 END BOND
M  V30 END CTAB
M  END
>  <Dataset>  (438) 
ChEMBL_Kinases

>  <Ligand_Instance>  (438) 
nan

>  <PDB_ID>  (438) 
nan

>  <Standardized_SMILES>  (438) 
Cc1cccc(-n2nc(C(C)(C)C)cc2NC(=O)Nc2cccc(Nc3ncnc4ccc(N)cc34)c2)c1

>  <Name>  (438) 
nan

>  <Pocket>  (438) 
nan

>  <ATP_Site>  (438) 
nan

>  <Peripheral>  (438) 
nan

>  <Num_H_Atoms_ProtBoundConf>  (438) 
nan

>  <Num_Resolved_Atoms>  (438) 
nan

>  <Num_Not_Resolved_Atoms>  (438) 
nan

$$$$
CHEMBL380755
     RDKit          3D

  0  0  0  0  0  0  0  0  0  0999 V3000
M  V30 BEGIN CTAB
M  V30 COUNTS 43 46 0 0 0
M  V30 BEGIN ATOM
M  V30 1 N 0.997014 -3.278871 2.083180 0
M  V30 2 C -0.060511 -2.981433 1.222758 0
M  V30 3 C -0.239216 -1.844194 0.470048 0
M  V30 4 C 0.644567 -0.697486 0.436740 0
M  V30 5 O 1.612886 -0.784465 1.263910 0
M  V30 6 C 0.578959 0.476133 -0.369045 0
M  V30 7 C -0.005728 0.691280 -1.596262 0
M  V30 8 C -0.049649 1.862675 -2.314177 0
M  V30 9 C 0.562782 2.957860 -1.745355 0
M  V30 10 C 1.175704 2.855063 -0.526254 0
M  V30 11 C 1.840249 3.999286 0.113009 0
M  V30 12 C 2.930435 3.730281 0.928195 0
M  V30 13 C 3.534938 4.835844 1.514668 0
M  V30 14 C 3.119999 6.137713 1.332806 0
M  V30 15 N 2.055653 6.325196 0.528276 0 CHG=1 VAL=4
M  V30 16 O 1.644617 7.611797 0.346459 0 CHG=-1 VAL=1
M  V30 17 C 1.422809 5.300184 -0.071104 0
M  V30 18 C 1.174211 1.646075 0.126063 0
M  V30 19 C -1.420553 -2.089815 -0.170758 0
M  V30 20 N -1.897166 -3.291451 0.187109 0
M  V30 21 N -1.073448 -3.859785 1.047159 0
M  V30 22 C -1.224483 -5.140600 1.664832 0
M  V30 23 C -0.553151 -6.311219 1.348078 0
M  V30 24 C -0.810914 -7.469725 2.046535 0
M  V30 25 C -1.745565 -7.473438 3.073380 0
M  V30 26 F -2.007841 -8.619444 3.773241 0
M  V30 27 C -2.409893 -6.291174 3.377821 0
M  V30 28 C -2.171653 -5.096916 2.688215 0
M  V30 29 F -2.872551 -4.025199 3.072571 0
M  V30 30 H 1.765567 -3.546419 2.686615 0
M  V30 31 H 1.505834 -2.689449 2.808762 0
M  V30 32 H -0.475155 -0.164484 -2.052247 0
M  V30 33 H -0.546471 1.891432 -3.273530 0
M  V30 34 H 0.551279 3.893801 -2.274246 0
M  V30 35 H 3.343461 2.745152 1.142257 0
M  V30 36 H 4.402048 4.664817 2.168410 0
M  V30 37 H 3.637949 6.942679 1.821342 0
M  V30 38 H 0.563709 5.496224 -0.715618 0
M  V30 39 H 1.675173 1.593749 1.106053 0
M  V30 40 H -1.964930 -1.476383 -0.862129 0
M  V30 41 H 0.153813 -6.206678 0.535889 0
M  V30 42 H -0.262697 -8.366887 1.767105 0
M  V30 43 H -3.127113 -6.331107 4.178029 0
M  V30 END ATOM
M  V30 BEGIN BOND
M  V30 1 1 1 2
M  V30 2 2 2 3
M  V30 3 1 3 4
M  V30 4 2 4 5
M  V30 5 1 4 6
M  V30 6 2 6 7
M  V30 7 1 7 8
M  V30 8 2 8 9
M  V30 9 1 9 10
M  V30 10 1 10 11
M  V30 11 2 11 12
M  V30 12 1 12 13
M  V30 13 2 13 14
M  V30 14 1 14 15
M  V30 15 1 15 16
M  V30 16 2 15 17
M  V30 17 2 10 18
M  V30 18 1 3 19
M  V30 19 2 19 20
M  V30 20 1 20 21
M  V30 21 1 21 22
M  V30 22 2 22 23
M  V30 23 1 23 24
M  V30 24 2 24 25
M  V30 25 1 25 26
M  V30 26 1 25 27
M  V30 27 2 27 28
M  V30 28 1 28 29
M  V30 29 1 21 2
M  V30 30 1 28 22
M  V30 31 1 18 6
M  V30 32 1 17 11
M  V30 33 1 1 30
M  V30 34 1 1 31
M  V30 35 1 7 32
M  V30 36 1 8 33
M  V30 37 1 9 34
M  V30 38 1 12 35
M  V30 39 1 13 36
M  V30 40 1 14 37
M  V30 41 1 17 38
M  V30 42 1 18 39
M  V30 43 1 19 40
M  V30 44 1 23 41
M  V30 45 1 24 42
M  V30 46 1 27 43
M  V30 END BOND
M  V30 END CTAB
M  END
>  <Dataset>  (439) 
ChEMBL_Kinases

>  <Ligand_Instance>  (439) 
nan

>  <PDB_ID>  (439) 
nan

>  <Standardized_SMILES>  (439) 
Nc1c(C(=O)c2cccc(-c3ccc[n+]([O-])c3)c2)cnn1-c1ccc(F)cc1F

>  <Name>  (439) 
nan

>  <Pocket>  (439) 
nan

>  <ATP_Site>  (439) 
nan

>  <Peripheral>  (439) 
nan

>  <Num_H_Atoms_ProtBoundConf>  (439) 
nan

>  <Num_Resolved_Atoms>  (439) 
nan

>  <Num_Not_Resolved_Atoms>  (439) 
nan

$$$$
CHEMBL497791
     RDKit          3D

  0  0  0  0  0  0  0  0  0  0999 V3000
M  V30 BEGIN CTAB
M  V30 COUNTS 44 48 0 0 0
M  V30 BEGIN ATOM
M  V30 1 C -0.063282 -2.149036 5.636905 0
M  V30 2 O 0.475018 -1.374752 4.591248 0
M  V30 3 C 1.844119 -1.167483 4.444636 0
M  V30 4 C 2.764863 -1.716060 5.327193 0
M  V30 5 C 4.111928 -1.458773 5.106856 0
M  V30 6 C 4.540996 -0.675226 4.036091 0
M  V30 7 C 3.629540 -0.127988 3.156451 0
M  V30 8 C 2.282195 -0.392923 3.387664 0
M  V30 9 C 1.380223 0.226377 2.406238 0
M  V30 10 C 1.715763 0.133604 1.069321 0
M  V30 11 C 0.931312 0.683503 0.075883 0
M  V30 12 C -0.230117 1.351784 0.407158 0
M  V30 13 O -1.192746 1.989088 -0.359723 0
M  V30 14 C -1.181406 2.039225 -1.745257 0
M  V30 15 C -1.112482 3.254768 -2.373194 0
M  V30 16 N -1.090268 3.525839 -3.688855 0
M  V30 17 C -1.142614 2.463453 -4.502907 0
M  V30 18 C -1.215712 1.166706 -3.930936 0
M  V30 19 S -1.300758 -0.435201 -4.695541 0
M  V30 20 C -1.361835 -1.376199 -3.160166 0
M  V30 21 C -1.443020 -2.818278 -3.039374 0
M  V30 22 N -0.449040 -3.701089 -3.207340 0
M  V30 23 N -0.881579 -4.934360 -3.019866 0
M  V30 24 N -2.178417 -4.812420 -2.727893 0
M  V30 25 N -2.519221 -3.533794 -2.739319 0
M  V30 26 C -1.311792 -0.381547 -2.174052 0
M  V30 27 C -1.236463 0.928767 -2.560902 0
M  V30 28 C -0.587895 1.456797 1.758577 0
M  V30 29 C 0.221009 0.892144 2.754592 0
M  V30 30 H -0.033951 -1.543583 6.556612 0
M  V30 31 H -1.148973 -2.316404 5.382862 0
M  V30 32 H 0.469107 -3.110395 5.714248 0
M  V30 33 H 2.438046 -2.325717 6.161093 0
M  V30 34 H 4.838253 -1.884032 5.792384 0
M  V30 35 H 5.612955 -0.522575 3.935043 0
M  V30 36 H 4.026823 0.459438 2.361920 0
M  V30 37 H 2.597614 -0.363719 0.691328 0
M  V30 38 H 1.086701 0.680089 -0.987267 0
M  V30 39 H -1.068290 4.147578 -1.731496 0
M  V30 40 H -1.135634 2.476879 -5.567104 0
M  V30 41 H -2.885845 -5.563685 -2.510788 0
M  V30 42 H -1.337739 -0.744401 -1.155977 0
M  V30 43 H -1.458089 1.942801 2.190681 0
M  V30 44 H -0.001414 0.939983 3.810562 0
M  V30 END ATOM
M  V30 BEGIN BOND
M  V30 1 1 1 2
M  V30 2 1 2 3
M  V30 3 2 3 4
M  V30 4 1 4 5
M  V30 5 2 5 6
M  V30 6 1 6 7
M  V30 7 2 7 8
M  V30 8 1 8 9
M  V30 9 2 9 10
M  V30 10 1 10 11
M  V30 11 2 11 12
M  V30 12 1 12 13
M  V30 13 1 13 14
M  V30 14 2 14 15
M  V30 15 1 15 16
M  V30 16 2 16 17
M  V30 17 1 17 18
M  V30 18 1 18 19
M  V30 19 1 19 20
M  V30 20 1 20 21
M  V30 21 1 21 22
M  V30 22 2 22 23
M  V30 23 1 23 24
M  V30 24 1 24 25
M  V30 25 2 20 26
M  V30 26 1 26 27
M  V30 27 1 12 28
M  V30 28 2 28 29
M  V30 29 1 8 3
M  V30 30 1 29 9
M  V30 31 1 27 14
M  V30 32 2 27 18
M  V30 33 2 25 21
M  V30 34 1 1 30
M  V30 35 1 1 31
M  V30 36 1 1 32
M  V30 37 1 4 33
M  V30 38 1 5 34
M  V30 39 1 6 35
M  V30 40 1 7 36
M  V30 41 1 10 37
M  V30 42 1 11 38
M  V30 43 1 15 39
M  V30 44 1 17 40
M  V30 45 1 24 41
M  V30 46 1 26 42
M  V30 47 1 28 43
M  V30 48 1 29 44
M  V30 END BOND
M  V30 END CTAB
M  END
>  <Dataset>  (440) 
ChEMBL_Kinases

>  <Ligand_Instance>  (440) 
nan

>  <PDB_ID>  (440) 
nan

>  <Standardized_SMILES>  (440) 
COc1ccccc1-c1ccc(Oc2cncc3sc(-c4nn[nH]n4)cc23)cc1

>  <Name>  (440) 
nan

>  <Pocket>  (440) 
nan

>  <ATP_Site>  (440) 
nan

>  <Peripheral>  (440) 
nan

>  <Num_H_Atoms_ProtBoundConf>  (440) 
nan

>  <Num_Resolved_Atoms>  (440) 
nan

>  <Num_Not_Resolved_Atoms>  (440) 
nan

$$$$
CHEMBL380661
     RDKit          3D

  0  0  0  0  0  0  0  0  0  0999 V3000
M  V30 BEGIN CTAB
M  V30 COUNTS 63 64 0 0 0
M  V30 BEGIN ATOM
M  V30 1 C 2.973017 -1.525869 4.052025 0
M  V30 2 C 2.158817 -1.265249 2.768628 0
M  V30 3 C 0.935668 -0.457199 3.146865 0
M  V30 4 C 1.756062 -2.599231 2.161506 0
M  V30 5 C 0.948159 -2.421567 0.920797 0
M  V30 6 C 1.826318 -1.637074 -0.072001 0
M  V30 7 C 1.092458 -1.418769 -1.372100 0
M  V30 8 C 0.859564 -0.151673 -1.762639 0
M  V30 9 C 1.285152 1.053039 -0.984145 0
M  V30 10 C 0.953274 2.208188 -1.869307 0
M  V30 11 C 2.158555 3.101880 -2.009437 0
M  V30 12 O 2.531415 3.540653 -0.745363 0
M  V30 13 C -0.218878 2.944634 -1.246878 0
M  V30 14 O -1.301195 2.048414 -1.087967 0
M  V30 15 C -2.484833 2.539847 -0.525916 0
M  V30 16 O -2.534696 3.753514 -0.187506 0
M  V30 17 C -3.583331 1.592134 -0.374637 0
M  V30 18 C -3.482542 0.256022 -0.763957 0
M  V30 19 C -4.565892 -0.579512 -0.588555 0
M  V30 20 C -5.731098 -0.113466 -0.039865 0
M  V30 21 C -5.803340 1.206981 0.334893 0
M  V30 22 C -4.742416 2.092229 0.180802 0
M  V30 23 O 0.520998 1.727782 -3.106992 0
M  V30 24 C 0.188487 0.387229 -2.945312 0
M  V30 25 O -0.572910 -0.347379 -3.661116 0
M  V30 26 C 0.531649 -3.646444 0.207050 0
M  V30 27 C -0.305452 -4.651889 0.887307 0
M  V30 28 C 0.268751 -5.302491 2.114239 0
M  V30 29 C -1.732849 -4.182610 1.123555 0
M  V30 30 H 2.303912 -1.745736 4.909443 0
M  V30 31 H 3.623359 -2.433198 3.931631 0
M  V30 32 H 3.559285 -0.622686 4.318742 0
M  V30 33 H 2.818747 -0.665772 2.125733 0
M  V30 34 H 0.189760 -1.224305 3.505290 0
M  V30 35 H 0.537521 -0.017629 2.191683 0
M  V30 36 H 1.143753 0.298388 3.909453 0
M  V30 37 H 1.195171 -3.102920 2.980925 0
M  V30 38 H 2.704470 -3.160240 1.990950 0
M  V30 39 H 0.100207 -1.741114 1.177508 0
M  V30 40 H 2.164170 -0.678931 0.315123 0
M  V30 41 H 2.712255 -2.277241 -0.254901 0
M  V30 42 H 0.692211 -2.100458 -2.104771 0
M  V30 43 H 0.713636 1.069668 -0.036537 0
M  V30 44 H 2.376500 1.025735 -0.785443 0
M  V30 45 H 2.951831 2.482383 -2.487728 0
M  V30 46 H 1.958971 3.922370 -2.729950 0
M  V30 47 H 2.295659 4.479150 -0.584066 0
M  V30 48 H -0.471191 3.776190 -1.943725 0
M  V30 49 H 0.109864 3.380756 -0.287550 0
M  V30 50 H -2.520536 -0.054996 -1.197482 0
M  V30 51 H -4.406082 -1.607617 -0.918187 0
M  V30 52 H -6.574100 -0.804760 0.085770 0
M  V30 53 H -6.719536 1.564021 0.763864 0
M  V30 54 H -4.845808 3.124153 0.490829 0
M  V30 55 H -0.077099 -3.289172 -0.682716 0
M  V30 56 H 1.463983 -4.149748 -0.163321 0
M  V30 57 H -0.439670 -5.500213 0.144764 0
M  V30 58 H 0.024464 -6.418751 2.128923 0
M  V30 59 H 1.367459 -5.290823 2.167877 0
M  V30 60 H -0.256939 -4.939577 3.021314 0
M  V30 61 H -2.299304 -5.073534 1.467442 0
M  V30 62 H -1.821197 -3.396266 1.884200 0
M  V30 63 H -2.160105 -3.911821 0.131235 0
M  V30 END ATOM
M  V30 BEGIN BOND
M  V30 1 1 1 2
M  V30 2 1 2 3
M  V30 3 1 2 4
M  V30 4 1 4 5
M  V30 5 1 5 6
M  V30 6 1 6 7
M  V30 7 2 7 8
M  V30 8 1 8 9
M  V30 9 1 9 10
M  V30 10 1 10 11
M  V30 11 1 11 12
M  V30 12 1 10 13
M  V30 13 1 13 14
M  V30 14 1 14 15
M  V30 15 2 15 16
M  V30 16 1 15 17
M  V30 17 2 17 18
M  V30 18 1 18 19
M  V30 19 2 19 20
M  V30 20 1 20 21
M  V30 21 2 21 22
M  V30 22 1 10 23
M  V30 23 1 23 24
M  V30 24 2 24 25
M  V30 25 1 5 26
M  V30 26 1 26 27
M  V30 27 1 27 28
M  V30 28 1 27 29
M  V30 29 1 24 8
M  V30 30 1 22 17
M  V30 31 1 1 30
M  V30 32 1 1 31
M  V30 33 1 1 32
M  V30 34 1 2 33
M  V30 35 1 3 34
M  V30 36 1 3 35
M  V30 37 1 3 36
M  V30 38 1 4 37
M  V30 39 1 4 38
M  V30 40 1 5 39
M  V30 41 1 6 40
M  V30 42 1 6 41
M  V30 43 1 7 42
M  V30 44 1 9 43
M  V30 45 1 9 44
M  V30 46 1 11 45
M  V30 47 1 11 46
M  V30 48 1 12 47
M  V30 49 1 13 48
M  V30 50 1 13 49
M  V30 51 1 18 50
M  V30 52 1 19 51
M  V30 53 1 20 52
M  V30 54 1 21 53
M  V30 55 1 22 54
M  V30 56 1 26 55
M  V30 57 1 26 56
M  V30 58 1 27 57
M  V30 59 1 28 58
M  V30 60 1 28 59
M  V30 61 1 28 60
M  V30 62 1 29 61
M  V30 63 1 29 62
M  V30 64 1 29 63
M  V30 END BOND
M  V30 END CTAB
M  END
>  <Dataset>  (441) 
ChEMBL_Kinases

>  <Ligand_Instance>  (441) 
nan

>  <PDB_ID>  (441) 
nan

>  <Standardized_SMILES>  (441) 
CC(C)CC(C/C=C1\CC(CO)(COC(=O)c2ccccc2)OC1=O)CC(C)C

>  <Name>  (441) 
nan

>  <Pocket>  (441) 
nan

>  <ATP_Site>  (441) 
nan

>  <Peripheral>  (441) 
nan

>  <Num_H_Atoms_ProtBoundConf>  (441) 
nan

>  <Num_Resolved_Atoms>  (441) 
nan

>  <Num_Not_Resolved_Atoms>  (441) 
nan

$$$$
CHEMBL497792
     RDKit          3D

  0  0  0  0  0  0  0  0  0  0999 V3000
M  V30 BEGIN CTAB
M  V30 COUNTS 41 45 0 0 0
M  V30 BEGIN ATOM
M  V30 1 N 5.326863 -7.317352 1.452838 0
M  V30 2 C 4.748321 -6.323931 1.209364 0
M  V30 3 C 4.058121 -5.101862 0.896136 0
M  V30 4 C 4.314216 -4.405393 -0.276457 0
M  V30 5 C 3.669057 -3.230020 -0.606481 0
M  V30 6 C 2.731795 -2.755560 0.296111 0
M  V30 7 C 2.049028 -1.512917 -0.051490 0
M  V30 8 C 1.661386 -0.697290 1.014672 0
M  V30 9 C 1.009760 0.499332 0.807660 0
M  V30 10 C 0.724131 0.919597 -0.472319 0
M  V30 11 O 0.094023 2.048548 -0.962906 0
M  V30 12 C -0.452210 2.945440 -0.062916 0
M  V30 13 C 0.016580 4.229479 -0.019821 0
M  V30 14 N -0.411274 5.212232 0.794862 0
M  V30 15 C -1.389090 4.909393 1.646462 0
M  V30 16 C -1.874838 3.601577 1.610478 0
M  V30 17 S -3.239515 2.839546 2.655034 0
M  V30 18 C -3.093901 1.264020 1.882449 0
M  V30 19 C -3.918502 0.088260 2.228344 0
M  V30 20 N -5.223967 0.151036 2.448833 0
M  V30 21 N -5.615520 -1.077717 2.726856 0
M  V30 22 N -4.584374 -1.917342 2.686875 0
M  V30 23 N -3.512588 -1.197597 2.374836 0
M  V30 24 C -2.123147 1.378044 0.968822 0
M  V30 25 C -1.464805 2.564041 0.791733 0
M  V30 26 C 1.116886 0.095133 -1.533840 0
M  V30 27 C 1.767961 -1.101191 -1.337593 0
M  V30 28 C 2.428004 -3.397936 1.481069 0
M  V30 29 C 3.113944 -4.584912 1.761663 0
M  V30 30 H 5.060976 -4.850363 -0.920645 0
M  V30 31 H 3.912284 -2.733870 -1.534511 0
M  V30 32 H 1.824876 -0.909898 2.064429 0
M  V30 33 H 0.676186 1.197961 1.546557 0
M  V30 34 H 0.827444 4.493943 -0.720746 0
M  V30 35 H -1.823346 5.599692 2.351776 0
M  V30 36 H -4.595558 -2.953746 2.865145 0
M  V30 37 H -1.863446 0.495110 0.359954 0
M  V30 38 H 0.964754 0.285132 -2.608115 0
M  V30 39 H 2.091825 -1.773777 -2.118979 0
M  V30 40 H 1.682162 -2.986006 2.161095 0
M  V30 41 H 2.868331 -5.084885 2.697847 0
M  V30 END ATOM
M  V30 BEGIN BOND
M  V30 1 3 1 2
M  V30 2 1 2 3
M  V30 3 2 3 4
M  V30 4 1 4 5
M  V30 5 2 5 6
M  V30 6 1 6 7
M  V30 7 2 7 8
M  V30 8 1 8 9
M  V30 9 2 9 10
M  V30 10 1 10 11
M  V30 11 1 11 12
M  V30 12 2 12 13
M  V30 13 1 13 14
M  V30 14 2 14 15
M  V30 15 1 15 16
M  V30 16 1 16 17
M  V30 17 1 17 18
M  V30 18 1 18 19
M  V30 19 1 19 20
M  V30 20 2 20 21
M  V30 21 1 21 22
M  V30 22 1 22 23
M  V30 23 2 18 24
M  V30 24 1 24 25
M  V30 25 1 10 26
M  V30 26 2 26 27
M  V30 27 1 6 28
M  V30 28 2 28 29
M  V30 29 1 29 3
M  V30 30 1 27 7
M  V30 31 1 25 12
M  V30 32 2 25 16
M  V30 33 2 23 19
M  V30 34 1 4 30
M  V30 35 1 5 31
M  V30 36 1 8 32
M  V30 37 1 9 33
M  V30 38 1 13 34
M  V30 39 1 15 35
M  V30 40 1 22 36
M  V30 41 1 24 37
M  V30 42 1 26 38
M  V30 43 1 27 39
M  V30 44 1 28 40
M  V30 45 1 29 41
M  V30 END BOND
M  V30 END CTAB
M  END
>  <Dataset>  (442) 
ChEMBL_Kinases

>  <Ligand_Instance>  (442) 
nan

>  <PDB_ID>  (442) 
nan

>  <Standardized_SMILES>  (442) 
N#Cc1ccc(-c2ccc(Oc3cncc4sc(-c5nn[nH]n5)cc34)cc2)cc1

>  <Name>  (442) 
nan

>  <Pocket>  (442) 
nan

>  <ATP_Site>  (442) 
nan

>  <Peripheral>  (442) 
nan

>  <Num_H_Atoms_ProtBoundConf>  (442) 
nan

>  <Num_Resolved_Atoms>  (442) 
nan

>  <Num_Not_Resolved_Atoms>  (442) 
nan

$$$$
CHEMBL3806302
     RDKit          3D

  0  0  0  0  0  0  0  0  0  0999 V3000
M  V30 BEGIN CTAB
M  V30 COUNTS 72 75 0 0 0
M  V30 BEGIN ATOM
M  V30 1 C 4.114816 -5.676318 2.851180 0
M  V30 2 C 3.110004 -5.280232 1.819654 0
M  V30 3 N 3.365456 -3.987760 1.226145 0
M  V30 4 C 2.297244 -3.775180 0.254818 0
M  V30 5 C 2.395301 -2.423326 -0.418536 0
M  V30 6 N 3.690831 -2.253608 -0.947156 0
M  V30 7 C 3.801096 -1.572013 -2.194950 0
M  V30 8 C 3.268871 -0.219487 -2.230881 0
M  V30 9 C 2.044614 0.012030 -2.869846 0
M  V30 10 C 1.433137 1.247099 -2.974217 0
M  V30 11 C 2.103350 2.305157 -2.396543 0
M  V30 12 N 1.417902 3.568323 -2.533899 0
M  V30 13 C 0.564844 3.692965 -1.401115 0
M  V30 14 O 0.752275 2.626061 -0.714286 0
M  V30 15 C -0.313491 4.906136 -1.212160 0
M  V30 16 O -1.015856 4.690447 -0.002677 0
M  V30 17 C -1.884859 3.636107 0.201115 0
M  V30 18 C -2.216292 2.654290 -0.710232 0
M  V30 19 C -3.106075 1.671143 -0.328564 0
M  V30 20 C -3.675091 1.633518 0.925555 0
M  V30 21 C -4.607043 0.561362 1.251131 0
M  V30 22 C -4.516069 -0.713445 0.717759 0
M  V30 23 C -5.433171 -1.715981 1.059296 0
M  V30 24 C -6.455112 -1.443703 1.945451 0
M  V30 25 C -7.412808 -2.475208 2.312143 0
M  V30 26 O -7.525048 -3.664266 1.958265 0
M  V30 27 N -8.459905 -2.156428 3.250809 0
M  V30 28 C -9.393830 -3.206000 3.591821 0
M  V30 29 N -6.556386 -0.198753 2.476120 0
M  V30 30 C -5.669630 0.751274 2.138780 0
M  V30 31 C -3.355901 2.618173 1.868334 0
M  V30 32 C -2.451188 3.605132 1.459622 0
M  V30 33 C 3.304333 2.138574 -1.757733 0
M  V30 34 C 3.886396 0.882370 -1.674303 0
M  V30 35 C 5.182335 0.714237 -0.982880 0
M  V30 36 F 6.139727 0.215929 -1.835443 0
M  V30 37 F 5.065197 -0.048191 0.165794 0
M  V30 38 F 5.645582 1.953840 -0.560017 0
M  V30 39 C 4.589633 -3.366516 -0.804396 0
M  V30 40 C 4.653614 -3.894929 0.600911 0
M  V30 41 H 3.791112 -6.657562 3.259702 0
M  V30 42 H 5.114852 -5.887809 2.380207 0
M  V30 43 H 4.187980 -4.981321 3.689574 0
M  V30 44 H 3.037548 -6.075970 1.057358 0
M  V30 45 H 2.111025 -5.222582 2.314109 0
M  V30 46 H 2.400490 -4.543175 -0.519953 0
M  V30 47 H 1.331204 -3.899852 0.790296 0
M  V30 48 H 2.094975 -1.677930 0.342544 0
M  V30 49 H 1.659137 -2.466639 -1.264537 0
M  V30 50 H 3.291649 -2.202940 -2.958912 0
M  V30 51 H 4.868099 -1.568674 -2.498789 0
M  V30 52 H 1.543604 -0.837850 -3.313049 0
M  V30 53 H 0.473166 1.311511 -3.497875 0
M  V30 54 H 1.461371 4.328437 -3.281792 0
M  V30 55 H 0.245807 5.839866 -1.187531 0
M  V30 56 H -1.026715 4.882870 -2.076699 0
M  V30 57 H -1.772928 2.698115 -1.683060 0
M  V30 58 H -3.355533 0.910536 -1.052936 0
M  V30 59 H -3.704937 -0.881617 0.031774 0
M  V30 60 H -5.299882 -2.672748 0.608211 0
M  V30 61 H -8.570571 -1.200911 3.693353 0
M  V30 62 H -10.279168 -2.796463 4.118097 0
M  V30 63 H -8.924574 -4.047548 4.135900 0
M  V30 64 H -9.776557 -3.627554 2.630182 0
M  V30 65 H -5.793263 1.743148 2.595487 0
M  V30 66 H -3.801605 2.587552 2.847289 0
M  V30 67 H -2.260051 4.331414 2.257438 0
M  V30 68 H 3.762484 3.028919 -1.330136 0
M  V30 69 H 5.617675 -3.077433 -1.078949 0
M  V30 70 H 4.203271 -4.193704 -1.441265 0
M  V30 71 H 5.279879 -3.211462 1.204544 0
M  V30 72 H 5.193927 -4.861581 0.575180 0
M  V30 END ATOM
M  V30 BEGIN BOND
M  V30 1 1 1 2
M  V30 2 1 2 3
M  V30 3 1 3 4
M  V30 4 1 4 5
M  V30 5 1 5 6
M  V30 6 1 6 7
M  V30 7 1 7 8
M  V30 8 2 8 9
M  V30 9 1 9 10
M  V30 10 2 10 11
M  V30 11 1 11 12
M  V30 12 1 12 13
M  V30 13 2 13 14
M  V30 14 1 13 15
M  V30 15 1 15 16
M  V30 16 1 16 17
M  V30 17 2 17 18
M  V30 18 1 18 19
M  V30 19 2 19 20
M  V30 20 1 20 21
M  V30 21 2 21 22
M  V30 22 1 22 23
M  V30 23 2 23 24
M  V30 24 1 24 25
M  V30 25 2 25 26
M  V30 26 1 25 27
M  V30 27 1 27 28
M  V30 28 1 24 29
M  V30 29 2 29 30
M  V30 30 1 20 31
M  V30 31 2 31 32
M  V30 32 1 11 33
M  V30 33 2 33 34
M  V30 34 1 34 35
M  V30 35 1 35 36
M  V30 36 1 35 37
M  V30 37 1 35 38
M  V30 38 1 6 39
M  V30 39 1 39 40
M  V30 40 1 40 3
M  V30 41 1 34 8
M  V30 42 1 32 17
M  V30 43 1 30 21
M  V30 44 1 1 41
M  V30 45 1 1 42
M  V30 46 1 1 43
M  V30 47 1 2 44
M  V30 48 1 2 45
M  V30 49 1 4 46
M  V30 50 1 4 47
M  V30 51 1 5 48
M  V30 52 1 5 49
M  V30 53 1 7 50
M  V30 54 1 7 51
M  V30 55 1 9 52
M  V30 56 1 10 53
M  V30 57 1 12 54
M  V30 58 1 15 55
M  V30 59 1 15 56
M  V30 60 1 18 57
M  V30 61 1 19 58
M  V30 62 1 22 59
M  V30 63 1 23 60
M  V30 64 1 27 61
M  V30 65 1 28 62
M  V30 66 1 28 63
M  V30 67 1 28 64
M  V30 68 1 30 65
M  V30 69 1 31 66
M  V30 70 1 32 67
M  V30 71 1 33 68
M  V30 72 1 39 69
M  V30 73 1 39 70
M  V30 74 1 40 71
M  V30 75 1 40 72
M  V30 END BOND
M  V30 END CTAB
M  END
>  <Dataset>  (443) 
ChEMBL_Kinases

>  <Ligand_Instance>  (443) 
nan

>  <PDB_ID>  (443) 
nan

>  <Standardized_SMILES>  (443) 
CCN1CCN(Cc2ccc(NC(=O)COc3ccc(-c4ccc(C(=O)NC)nc4)cc3)cc2C(F)(F)F)CC1

>  <Name>  (443) 
nan

>  <Pocket>  (443) 
nan

>  <ATP_Site>  (443) 
nan

>  <Peripheral>  (443) 
nan

>  <Num_H_Atoms_ProtBoundConf>  (443) 
nan

>  <Num_Resolved_Atoms>  (443) 
nan

>  <Num_Not_Resolved_Atoms>  (443) 
nan

$$$$
CHEMBL497794
     RDKit          3D

  0  0  0  0  0  0  0  0  0  0999 V3000
M  V30 BEGIN CTAB
M  V30 COUNTS 37 39 0 0 0
M  V30 BEGIN ATOM
M  V30 1 C -0.631465 -3.421148 2.174799 0
M  V30 2 O 0.730974 -3.304351 1.846464 0
M  V30 3 C 0.919717 -3.731145 0.545148 0
M  V30 4 C 2.378012 -3.621328 0.150986 0
M  V30 5 N 2.900190 -2.291857 0.221428 0
M  V30 6 C 2.392736 -1.193562 -0.528717 0
M  V30 7 C 2.890681 -0.890658 -1.783516 0
M  V30 8 C 2.425925 0.159479 -2.534158 0
M  V30 9 C 1.410765 0.973839 -2.040606 0
M  V30 10 N 0.776400 2.038923 -2.534124 0
M  V30 11 C -0.117353 2.408144 -1.598151 0
M  V30 12 C -0.021426 1.543188 -0.508620 0
M  V30 13 C -0.782289 1.536003 0.751813 0
M  V30 14 C -1.069136 2.640469 1.533870 0
M  V30 15 C -1.796188 2.484996 2.697131 0
M  V30 16 C -2.215327 1.211901 3.039769 0
M  V30 17 C -2.981605 0.981990 4.247425 0
M  V30 18 N -3.578406 0.797494 5.225268 0
M  V30 19 C -1.943589 0.093103 2.278814 0
M  V30 20 C -1.216214 0.255943 1.117039 0
M  V30 21 N 0.959269 0.643383 -0.822393 0
M  V30 22 N 1.415288 -0.365503 -0.116885 0
M  V30 23 H -1.273715 -2.809909 1.509565 0
M  V30 24 H -0.793347 -3.065189 3.221320 0
M  V30 25 H -0.960277 -4.490964 2.138341 0
M  V30 26 H 0.278706 -3.198049 -0.170185 0
M  V30 27 H 0.668533 -4.818166 0.479152 0
M  V30 28 H 2.989159 -4.265062 0.815788 0
M  V30 29 H 2.520362 -3.969235 -0.891703 0
M  V30 30 H 3.671288 -1.823326 0.751685 0
M  V30 31 H 3.679696 -1.480864 -2.228730 0
M  V30 32 H 2.812302 0.402041 -3.518678 0
M  V30 33 H -0.817278 3.226466 -1.628179 0
M  V30 34 H -0.700353 3.572648 1.180386 0
M  V30 35 H -2.022336 3.342122 3.309867 0
M  V30 36 H -2.288312 -0.895938 2.576681 0
M  V30 37 H -1.013735 -0.632302 0.534877 0
M  V30 END ATOM
M  V30 BEGIN BOND
M  V30 1 1 1 2
M  V30 2 1 2 3
M  V30 3 1 3 4
M  V30 4 1 4 5
M  V30 5 1 5 6
M  V30 6 1 6 7
M  V30 7 2 7 8
M  V30 8 1 8 9
M  V30 9 2 9 10
M  V30 10 1 10 11
M  V30 11 2 11 12
M  V30 12 1 12 13
M  V30 13 2 13 14
M  V30 14 1 14 15
M  V30 15 2 15 16
M  V30 16 1 16 17
M  V30 17 3 17 18
M  V30 18 1 16 19
M  V30 19 2 19 20
M  V30 20 1 12 21
M  V30 21 1 21 22
M  V30 22 2 22 6
M  V30 23 1 21 9
M  V30 24 1 20 13
M  V30 25 1 1 23
M  V30 26 1 1 24
M  V30 27 1 1 25
M  V30 28 1 3 26
M  V30 29 1 3 27
M  V30 30 1 4 28
M  V30 31 1 4 29
M  V30 32 1 5 30
M  V30 33 1 7 31
M  V30 34 1 8 32
M  V30 35 1 11 33
M  V30 36 1 14 34
M  V30 37 1 15 35
M  V30 38 1 19 36
M  V30 39 1 20 37
M  V30 END BOND
M  V30 END CTAB
M  END
>  <Dataset>  (444) 
ChEMBL_Kinases

>  <Ligand_Instance>  (444) 
nan

>  <PDB_ID>  (444) 
nan

>  <Standardized_SMILES>  (444) 
COCCNc1ccc2ncc(-c3ccc(C#N)cc3)n2n1

>  <Name>  (444) 
nan

>  <Pocket>  (444) 
nan

>  <ATP_Site>  (444) 
nan

>  <Peripheral>  (444) 
nan

>  <Num_H_Atoms_ProtBoundConf>  (444) 
nan

>  <Num_Resolved_Atoms>  (444) 
nan

>  <Num_Not_Resolved_Atoms>  (444) 
nan

$$$$
CHEMBL591754
     RDKit          3D

  0  0  0  0  0  0  0  0  0  0999 V3000
M  V30 BEGIN CTAB
M  V30 COUNTS 52 55 0 0 0
M  V30 BEGIN ATOM
M  V30 1 C 0.132631 -4.801849 3.445449 0
M  V30 2 N 0.082208 -3.474680 2.881391 0
M  V30 3 C -0.023278 -2.441472 3.859983 0
M  V30 4 C 0.385829 -1.129981 3.235106 0
M  V30 5 C 1.258428 -1.436160 2.041625 0
M  V30 6 N 0.408197 -1.502276 0.839416 0
M  V30 7 C 0.351560 -0.268088 0.161998 0
M  V30 8 N 1.377437 0.586058 0.309250 0
M  V30 9 C 1.434127 1.760575 -0.340202 0
M  V30 10 C 2.600210 2.600092 -0.097894 0
M  V30 11 C 3.573081 2.156140 0.772744 0
M  V30 12 C 4.706717 2.894972 1.051774 0
M  V30 13 N 4.885733 4.108929 0.453367 0
M  V30 14 C 3.933512 4.545092 -0.399750 0
M  V30 15 C 2.792437 3.826308 -0.695189 0
M  V30 16 C 0.402890 2.102067 -1.187946 0
M  V30 17 N -0.640368 1.253520 -1.348214 0
M  V30 18 C -0.676986 0.063361 -0.676250 0
M  V30 19 N -1.851521 -0.696142 -0.909507 0
M  V30 20 C -3.002009 -1.114754 -0.129316 0
M  V30 21 C -4.299751 -0.809241 -0.840897 0
M  V30 22 O -4.175059 -0.905291 -2.221317 0
M  V30 23 C -3.164303 -1.814477 -2.549192 0
M  V30 24 C -1.855687 -1.111334 -2.285413 0
M  V30 25 C -0.165979 -2.796562 0.571651 0
M  V30 26 C -0.882942 -3.339060 1.806063 0
M  V30 27 H -0.592570 -5.506765 3.025310 0
M  V30 28 H 1.167901 -5.188414 3.263081 0
M  V30 29 H 0.009744 -4.734278 4.548589 0
M  V30 30 H -1.122004 -2.339183 4.095013 0
M  V30 31 H 0.543973 -2.633385 4.779993 0
M  V30 32 H 0.963644 -0.496999 3.958860 0
M  V30 33 H -0.490876 -0.568757 2.845163 0
M  V30 34 H 1.891512 -2.325959 2.162906 0
M  V30 35 H 1.972953 -0.582237 1.955213 0
M  V30 36 H 3.489995 1.210763 1.274099 0
M  V30 37 H 5.486854 2.566850 1.733804 0
M  V30 38 H 4.063508 5.501584 -0.878116 0
M  V30 39 H 2.057473 4.188144 -1.368765 0
M  V30 40 H 0.428464 3.034876 -1.716039 0
M  V30 41 H -3.016129 -0.553000 0.823848 0
M  V30 42 H -2.946293 -2.178936 0.095309 0
M  V30 43 H -5.037283 -1.569751 -0.522202 0
M  V30 44 H -4.718772 0.182098 -0.589305 0
M  V30 45 H -3.277493 -2.105101 -3.612945 0
M  V30 46 H -3.265101 -2.665239 -1.858600 0
M  V30 47 H -0.987990 -1.738732 -2.558642 0
M  V30 48 H -1.846037 -0.178519 -2.912953 0
M  V30 49 H 0.731512 -3.477907 0.385164 0
M  V30 50 H -0.756254 -2.891080 -0.326591 0
M  V30 51 H -1.746859 -2.742775 2.086627 0
M  V30 52 H -1.226644 -4.359588 1.546136 0
M  V30 END ATOM
M  V30 BEGIN BOND
M  V30 1 1 1 2
M  V30 2 1 2 3
M  V30 3 1 3 4
M  V30 4 1 4 5
M  V30 5 1 5 6
M  V30 6 1 6 7
M  V30 7 2 7 8
M  V30 8 1 8 9
M  V30 9 1 9 10
M  V30 10 2 10 11
M  V30 11 1 11 12
M  V30 12 2 12 13
M  V30 13 1 13 14
M  V30 14 2 14 15
M  V30 15 2 9 16
M  V30 16 1 16 17
M  V30 17 2 17 18
M  V30 18 1 18 19
M  V30 19 1 19 20
M  V30 20 1 20 21
M  V30 21 1 21 22
M  V30 22 1 22 23
M  V30 23 1 23 24
M  V30 24 1 6 25
M  V30 25 1 25 26
M  V30 26 1 26 2
M  V30 27 1 18 7
M  V30 28 1 24 19
M  V30 29 1 15 10
M  V30 30 1 1 27
M  V30 31 1 1 28
M  V30 32 1 1 29
M  V30 33 1 3 30
M  V30 34 1 3 31
M  V30 35 1 4 32
M  V30 36 1 4 33
M  V30 37 1 5 34
M  V30 38 1 5 35
M  V30 39 1 11 36
M  V30 40 1 12 37
M  V30 41 1 14 38
M  V30 42 1 15 39
M  V30 43 1 16 40
M  V30 44 1 20 41
M  V30 45 1 20 42
M  V30 46 1 21 43
M  V30 47 1 21 44
M  V30 48 1 23 45
M  V30 49 1 23 46
M  V30 50 1 24 47
M  V30 51 1 24 48
M  V30 52 1 25 49
M  V30 53 1 25 50
M  V30 54 1 26 51
M  V30 55 1 26 52
M  V30 END BOND
M  V30 END CTAB
M  END
>  <Dataset>  (445) 
ChEMBL_Kinases

>  <Ligand_Instance>  (445) 
nan

>  <PDB_ID>  (445) 
nan

>  <Standardized_SMILES>  (445) 
CN1CCCN(c2nc(-c3ccncc3)cnc2N2CCOCC2)CC1

>  <Name>  (445) 
nan

>  <Pocket>  (445) 
nan

>  <ATP_Site>  (445) 
nan

>  <Peripheral>  (445) 
nan

>  <Num_H_Atoms_ProtBoundConf>  (445) 
nan

>  <Num_Resolved_Atoms>  (445) 
nan

>  <Num_Not_Resolved_Atoms>  (445) 
nan

$$$$
CHEMBL497995
     RDKit          3D

  0  0  0  0  0  0  0  0  0  0999 V3000
M  V30 BEGIN CTAB
M  V30 COUNTS 38 41 0 0 0
M  V30 BEGIN ATOM
M  V30 1 N 1.181484 -6.357280 2.948634 0
M  V30 2 C 1.609391 -4.987851 2.936285 0
M  V30 3 N 2.755829 -4.563884 3.511729 0
M  V30 4 C 3.127884 -3.268020 3.481345 0
M  V30 5 C 2.311025 -2.346623 2.842002 0
M  V30 6 C 1.129532 -2.778460 2.248025 0
M  V30 7 C 0.272196 -1.806354 1.575659 0
M  V30 8 C -0.918868 -2.143509 0.962512 0
M  V30 9 C -1.432334 -0.971618 0.452325 0
M  V30 10 C -0.583625 0.076153 0.738336 0
M  V30 11 N 0.433747 -0.480467 1.419650 0
M  V30 12 C -0.738023 1.510584 0.379746 0
M  V30 13 C -0.037624 1.680520 -0.954939 0
M  V30 14 C -0.077562 3.078225 -1.504834 0
M  V30 15 C 1.424203 3.118246 -1.472082 0
M  V30 16 C 1.449569 1.735675 -0.893734 0
M  V30 17 C -2.218148 1.791011 0.253044 0
M  V30 18 N -2.785082 0.801193 -0.641723 0
M  V30 19 C -2.638521 -0.572563 -0.304507 0
M  V30 20 O -3.472119 -1.472685 -0.610168 0
M  V30 21 N 0.820784 -4.086046 2.316744 0
M  V30 22 H 0.292931 -6.473488 3.488937 0
M  V30 23 H 1.626249 -7.213886 2.505617 0
M  V30 24 H 4.046521 -2.922966 3.941405 0
M  V30 25 H 2.560705 -1.278843 2.784353 0
M  V30 26 H -1.410297 -3.098544 0.861784 0
M  V30 27 H 1.284656 -0.007770 1.814191 0
M  V30 28 H -0.301252 2.154863 1.153051 0
M  V30 29 H -0.384692 0.954775 -1.718935 0
M  V30 30 H -0.580461 3.769070 -0.792179 0
M  V30 31 H -0.491447 3.160778 -2.541120 0
M  V30 32 H 1.868784 3.183454 -2.494382 0
M  V30 33 H 1.836551 3.854464 -0.752295 0
M  V30 34 H 1.933871 1.663468 0.101773 0
M  V30 35 H 1.981570 1.025030 -1.578959 0
M  V30 36 H -2.678554 1.626404 1.254092 0
M  V30 37 H -2.418249 2.825300 -0.094750 0
M  V30 38 H -3.305904 1.000510 -1.534452 0
M  V30 END ATOM
M  V30 BEGIN BOND
M  V30 1 1 1 2
M  V30 2 2 2 3
M  V30 3 1 3 4
M  V30 4 2 4 5
M  V30 5 1 5 6
M  V30 6 1 6 7
M  V30 7 2 7 8
M  V30 8 1 8 9
M  V30 9 2 9 10
M  V30 10 1 10 11
M  V30 11 1 10 12
M  V30 12 1 12 13
M  V30 13 1 13 14
M  V30 14 1 14 15
M  V30 15 1 15 16
M  V30 16 1 12 17
M  V30 17 1 17 18
M  V30 18 1 18 19
M  V30 19 2 19 20
M  V30 20 2 6 21
M  V30 21 1 21 2
M  V30 22 1 11 7
M  V30 23 1 16 13
M  V30 24 1 19 9
M  V30 25 1 1 22
M  V30 26 1 1 23
M  V30 27 1 4 24
M  V30 28 1 5 25
M  V30 29 1 8 26
M  V30 30 1 11 27
M  V30 31 1 12 28
M  V30 32 1 13 29
M  V30 33 1 14 30
M  V30 34 1 14 31
M  V30 35 1 15 32
M  V30 36 1 15 33
M  V30 37 1 16 34
M  V30 38 1 16 35
M  V30 39 1 17 36
M  V30 40 1 17 37
M  V30 41 1 18 38
M  V30 END BOND
M  V30 END CTAB
M  END
>  <Dataset>  (446) 
ChEMBL_Kinases

>  <Ligand_Instance>  (446) 
nan

>  <PDB_ID>  (446) 
nan

>  <Standardized_SMILES>  (446) 
Nc1nccc(-c2cc3c([nH]2)C(C2CCC2)CNC3=O)n1

>  <Name>  (446) 
nan

>  <Pocket>  (446) 
nan

>  <ATP_Site>  (446) 
nan

>  <Peripheral>  (446) 
nan

>  <Num_H_Atoms_ProtBoundConf>  (446) 
nan

>  <Num_Resolved_Atoms>  (446) 
nan

>  <Num_Not_Resolved_Atoms>  (446) 
nan

$$$$
CHEMBL3806240
     RDKit          3D

  0  0  0  0  0  0  0  0  0  0999 V3000
M  V30 BEGIN CTAB
M  V30 COUNTS 69 73 0 0 0
M  V30 BEGIN ATOM
M  V30 1 C 3.457037 -0.478275 5.831315 0
M  V30 2 C 2.886550 0.911602 5.787784 0
M  V30 3 N 1.748454 1.098919 4.969012 0
M  V30 4 C 1.344576 2.491686 5.041096 0
M  V30 5 C 0.201103 2.770861 4.073097 0
M  V30 6 N -0.836676 1.866599 4.236908 0
M  V30 7 C -1.836678 1.681453 3.278883 0
M  V30 8 C -1.301394 1.319770 1.948356 0
M  V30 9 C -1.133050 -0.048401 1.687730 0
M  V30 10 C -0.599716 -0.591427 0.535615 0
M  V30 11 C -0.194851 0.286732 -0.450080 0
M  V30 12 N 0.355513 -0.279106 -1.634423 0
M  V30 13 C 1.758675 -0.516228 -1.723707 0
M  V30 14 O 2.441422 -0.183202 -0.692027 0
M  V30 15 C 2.629990 -1.067868 -2.752975 0
M  V30 16 O 2.044970 -1.484585 -3.934198 0
M  V30 17 C 1.098718 -2.482799 -4.103014 0
M  V30 18 C 0.595964 -2.784645 -5.358037 0
M  V30 19 C -0.344710 -3.774765 -5.549918 0
M  V30 20 C -0.832232 -4.517336 -4.485510 0
M  V30 21 C -1.825383 -5.586165 -4.564950 0
M  V30 22 C -2.698708 -5.823643 -3.505322 0
M  V30 23 C -3.646392 -6.822218 -3.546284 0
M  V30 24 C -3.682491 -7.576102 -4.698301 0
M  V30 25 N -2.835292 -7.334461 -5.707770 0
M  V30 26 C -1.907409 -6.375308 -5.697467 0
M  V30 27 C -0.360799 -4.252979 -3.213944 0
M  V30 28 C 0.577989 -3.254050 -3.078082 0
M  V30 29 C -0.348126 1.640181 -0.224916 0
M  V30 30 C -0.885602 2.154138 0.936453 0
M  V30 31 C -1.056842 3.611760 1.056911 0
M  V30 32 C -2.481206 4.100086 0.667445 0
M  V30 33 C -1.363723 4.378936 -0.249301 0
M  V30 34 C -0.700769 0.800084 5.164523 0
M  V30 35 C 0.661026 0.197244 5.123748 0
M  V30 36 H 2.735006 -1.286356 5.920261 0
M  V30 37 H 4.098922 -0.536884 6.744846 0
M  V30 38 H 4.154607 -0.686507 4.979390 0
M  V30 39 H 2.705551 1.275794 6.796405 0
M  V30 40 H 3.705716 1.558760 5.359687 0
M  V30 41 H 2.217284 3.123259 4.895660 0
M  V30 42 H 0.947991 2.659693 6.062264 0
M  V30 43 H -0.023096 3.849989 4.123328 0
M  V30 44 H 0.681135 2.583684 3.064064 0
M  V30 45 H -2.556319 0.848506 3.558205 0
M  V30 46 H -2.529265 2.555199 3.153234 0
M  V30 47 H -1.446461 -0.775493 2.454355 0
M  V30 48 H -0.513263 -1.662543 0.433744 0
M  V30 49 H -0.128184 -0.556503 -2.505540 0
M  V30 50 H 3.281462 -1.851646 -2.311178 0
M  V30 51 H 3.353742 -0.243599 -3.028991 0
M  V30 52 H 0.941941 -2.235461 -6.226330 0
M  V30 53 H -0.754296 -4.033958 -6.505956 0
M  V30 54 H -2.670574 -5.229392 -2.596465 0
M  V30 55 H -4.334568 -7.024438 -2.735296 0
M  V30 56 H -4.390382 -8.384041 -4.829117 0
M  V30 57 H -1.210213 -6.161841 -6.504436 0
M  V30 58 H -0.667135 -4.766051 -2.307991 0
M  V30 59 H 0.968561 -3.024518 -2.080670 0
M  V30 60 H -0.007522 2.257730 -1.038879 0
M  V30 61 H -0.575599 4.214883 1.824231 0
M  V30 62 H -2.918885 4.887215 1.302769 0
M  V30 63 H -3.217051 3.329817 0.378999 0
M  V30 64 H -1.277689 3.824564 -1.191207 0
M  V30 65 H -1.002378 5.428791 -0.286793 0
M  V30 66 H -1.431684 -0.003184 4.852473 0
M  V30 67 H -1.002261 1.160005 6.168626 0
M  V30 68 H 0.868932 -0.477957 5.978851 0
M  V30 69 H 0.674872 -0.499781 4.233134 0
M  V30 END ATOM
M  V30 BEGIN BOND
M  V30 1 1 1 2
M  V30 2 1 2 3
M  V30 3 1 3 4
M  V30 4 1 4 5
M  V30 5 1 5 6
M  V30 6 1 6 7
M  V30 7 1 7 8
M  V30 8 2 8 9
M  V30 9 1 9 10
M  V30 10 2 10 11
M  V30 11 1 11 12
M  V30 12 1 12 13
M  V30 13 2 13 14
M  V30 14 1 13 15
M  V30 15 1 15 16
M  V30 16 1 16 17
M  V30 17 2 17 18
M  V30 18 1 18 19
M  V30 19 2 19 20
M  V30 20 1 20 21
M  V30 21 2 21 22
M  V30 22 1 22 23
M  V30 23 2 23 24
M  V30 24 1 24 25
M  V30 25 2 25 26
M  V30 26 1 20 27
M  V30 27 2 27 28
M  V30 28 1 11 29
M  V30 29 2 29 30
M  V30 30 1 30 31
M  V30 31 1 31 32
M  V30 32 1 32 33
M  V30 33 1 6 34
M  V30 34 1 34 35
M  V30 35 1 35 3
M  V30 36 1 30 8
M  V30 37 1 33 31
M  V30 38 1 28 17
M  V30 39 1 26 21
M  V30 40 1 1 36
M  V30 41 1 1 37
M  V30 42 1 1 38
M  V30 43 1 2 39
M  V30 44 1 2 40
M  V30 45 1 4 41
M  V30 46 1 4 42
M  V30 47 1 5 43
M  V30 48 1 5 44
M  V30 49 1 7 45
M  V30 50 1 7 46
M  V30 51 1 9 47
M  V30 52 1 10 48
M  V30 53 1 12 49
M  V30 54 1 15 50
M  V30 55 1 15 51
M  V30 56 1 18 52
M  V30 57 1 19 53
M  V30 58 1 22 54
M  V30 59 1 23 55
M  V30 60 1 24 56
M  V30 61 1 26 57
M  V30 62 1 27 58
M  V30 63 1 28 59
M  V30 64 1 29 60
M  V30 65 1 31 61
M  V30 66 1 32 62
M  V30 67 1 32 63
M  V30 68 1 33 64
M  V30 69 1 33 65
M  V30 70 1 34 66
M  V30 71 1 34 67
M  V30 72 1 35 68
M  V30 73 1 35 69
M  V30 END BOND
M  V30 END CTAB
M  END
>  <Dataset>  (447) 
ChEMBL_Kinases

>  <Ligand_Instance>  (447) 
nan

>  <PDB_ID>  (447) 
nan

>  <Standardized_SMILES>  (447) 
CCN1CCN(Cc2ccc(NC(=O)COc3ccc(-c4cccnc4)cc3)cc2C2CC2)CC1

>  <Name>  (447) 
nan

>  <Pocket>  (447) 
nan

>  <ATP_Site>  (447) 
nan

>  <Peripheral>  (447) 
nan

>  <Num_H_Atoms_ProtBoundConf>  (447) 
nan

>  <Num_Resolved_Atoms>  (447) 
nan

>  <Num_Not_Resolved_Atoms>  (447) 
nan

$$$$
CHEMBL3806229
     RDKit          3D

  0  0  0  0  0  0  0  0  0  0999 V3000
M  V30 BEGIN CTAB
M  V30 COUNTS 48 51 0 0 0
M  V30 BEGIN ATOM
M  V30 1 C 4.134920 -2.900896 0.769640 0
M  V30 2 N 4.767789 -2.685793 -0.503484 0
M  V30 3 N 5.955229 -3.204348 -0.860122 0
M  V30 4 C 6.266747 -2.819374 -2.101695 0
M  V30 5 C 5.224204 -2.031235 -2.521997 0
M  V30 6 Cl 5.277052 -1.334027 -4.124895 0
M  V30 7 C 4.287289 -1.952263 -1.513086 0
M  V30 8 C 3.048312 -1.198008 -1.610743 0
M  V30 9 C 2.591523 -0.453088 -2.675145 0
M  V30 10 O 1.410550 0.094255 -2.390890 0
M  V30 11 C 1.032237 -0.228571 -1.202670 0
M  V30 12 C -0.217532 0.178928 -0.523653 0
M  V30 13 O -0.939720 0.928668 -1.263394 0
M  V30 14 N -0.479850 -0.275673 0.807903 0
M  V30 15 C -1.765687 0.251327 1.268504 0
M  V30 16 C -1.990236 -0.378097 2.601917 0
M  V30 17 C -1.512381 -1.628489 2.937142 0
M  V30 18 C -1.709452 -2.227168 4.164465 0
M  V30 19 C -2.418803 -1.563778 5.128448 0
M  V30 20 F -2.594302 -2.181442 6.324982 0
M  V30 21 C -2.919905 -0.310415 4.847754 0
M  V30 22 C -2.697131 0.244664 3.609456 0
M  V30 23 C -2.917559 -0.176618 0.417101 0
M  V30 24 C -3.871337 0.866131 -0.013103 0
M  V30 25 N -4.009437 1.964466 0.923112 0
M  V30 26 C -2.698054 2.585399 0.941656 0
M  V30 27 C -1.618221 1.724537 1.486418 0
M  V30 28 C 2.043301 -1.043865 -0.682453 0
M  V30 29 H 4.059982 -1.952171 1.368742 0
M  V30 30 H 4.808154 -3.543913 1.411002 0
M  V30 31 H 3.189898 -3.470682 0.727864 0
M  V30 32 H 7.193313 -3.165043 -2.509908 0
M  V30 33 H 3.045174 -0.276881 -3.635469 0
M  V30 34 H 0.257128 -0.886933 1.225982 0
M  V30 35 H -0.945646 -2.197908 2.213167 0
M  V30 36 H -1.303314 -3.221133 4.365183 0
M  V30 37 H -3.480129 0.203015 5.621949 0
M  V30 38 H -3.114577 1.214746 3.465384 0
M  V30 39 H -3.522494 -1.020258 0.864530 0
M  V30 40 H -2.482486 -0.649040 -0.499007 0
M  V30 41 H -4.893312 0.455078 -0.145210 0
M  V30 42 H -3.645841 1.341385 -1.009412 0
M  V30 43 H -4.642423 2.664295 0.440960 0
M  V30 44 H -2.501455 2.962107 -0.083035 0
M  V30 45 H -2.811481 3.499556 1.567094 0
M  V30 46 H -0.663083 2.092778 1.004043 0
M  V30 47 H -1.466046 1.994017 2.559815 0
M  V30 48 H 1.983117 -1.455454 0.299882 0
M  V30 END ATOM
M  V30 BEGIN BOND
M  V30 1 1 1 2
M  V30 2 1 2 3
M  V30 3 2 3 4
M  V30 4 1 4 5
M  V30 5 1 5 6
M  V30 6 2 5 7
M  V30 7 1 7 8
M  V30 8 2 8 9
M  V30 9 1 9 10
M  V30 10 1 10 11
M  V30 11 1 11 12
M  V30 12 2 12 13
M  V30 13 1 12 14
M  V30 14 1 14 15
M  V30 15 1 15 16
M  V30 16 2 16 17
M  V30 17 1 17 18
M  V30 18 2 18 19
M  V30 19 1 19 20
M  V30 20 1 19 21
M  V30 21 2 21 22
M  V30 22 1 15 23
M  V30 23 1 23 24
M  V30 24 1 24 25
M  V30 25 1 25 26
M  V30 26 1 26 27
M  V30 27 2 11 28
M  V30 28 1 7 2
M  V30 29 1 28 8
M  V30 30 1 27 15
M  V30 31 1 22 16
M  V30 32 1 1 29
M  V30 33 1 1 30
M  V30 34 1 1 31
M  V30 35 1 4 32
M  V30 36 1 9 33
M  V30 37 1 14 34
M  V30 38 1 17 35
M  V30 39 1 18 36
M  V30 40 1 21 37
M  V30 41 1 22 38
M  V30 42 1 23 39
M  V30 43 1 23 40
M  V30 44 1 24 41
M  V30 45 1 24 42
M  V30 46 1 25 43
M  V30 47 1 26 44
M  V30 48 1 26 45
M  V30 49 1 27 46
M  V30 50 1 27 47
M  V30 51 1 28 48
M  V30 END BOND
M  V30 END CTAB
M  END
>  <Dataset>  (448) 
ChEMBL_Kinases

>  <Ligand_Instance>  (448) 
nan

>  <PDB_ID>  (448) 
nan

>  <Standardized_SMILES>  (448) 
Cn1ncc(Cl)c1-c1coc(C(=O)NC2(c3ccc(F)cc3)CCNCC2)c1

>  <Name>  (448) 
nan

>  <Pocket>  (448) 
nan

>  <ATP_Site>  (448) 
nan

>  <Peripheral>  (448) 
nan

>  <Num_H_Atoms_ProtBoundConf>  (448) 
nan

>  <Num_Resolved_Atoms>  (448) 
nan

>  <Num_Not_Resolved_Atoms>  (448) 
nan

$$$$
CHEMBL497806
     RDKit          3D

  0  0  0  0  0  0  0  0  0  0999 V3000
M  V30 BEGIN CTAB
M  V30 COUNTS 55 59 0 0 0
M  V30 BEGIN ATOM
M  V30 1 C 0.716318 1.935805 6.593219 0
M  V30 2 N 1.016165 0.797453 5.841539 0
M  V30 3 C 1.957929 -0.121360 6.342829 0
M  V30 4 C 2.874211 -0.511853 5.200230 0
M  V30 5 N 2.112466 -0.572031 4.006557 0
M  V30 6 C 2.766910 -0.704885 2.781023 0
M  V30 7 C 1.907823 -0.769406 1.580150 0
M  V30 8 C 1.584779 0.436022 0.966594 0
M  V30 9 C 0.784035 0.396497 -0.156945 0
M  V30 10 N 0.310489 -0.756795 -0.673243 0
M  V30 11 C -0.473110 -1.058858 -1.739238 0
M  V30 12 C -0.991115 -0.002513 -2.604714 0
M  V30 13 C -0.552805 -0.093006 -3.904962 0
M  V30 14 C -0.970934 0.849767 -4.830323 0
M  V30 15 N -1.800278 1.845857 -4.455776 0
M  V30 16 C -2.204817 1.902007 -3.186106 0
M  V30 17 N -3.079691 2.890226 -2.631142 0
M  V30 18 N -1.829429 1.010959 -2.242581 0
M  V30 19 C -0.640488 -2.441271 -1.794397 0
M  V30 20 C -1.440841 -3.074960 -2.842510 0
M  V30 21 C -2.796463 -2.727948 -2.845642 0
M  V30 22 C -3.671349 -3.243022 -3.771766 0
M  V30 23 C -3.135455 -4.106027 -4.677590 0
M  V30 24 F -3.883363 -4.687156 -5.644617 0
M  V30 25 C -1.817442 -4.475150 -4.714309 0
M  V30 26 C -0.933404 -3.956920 -3.781436 0
M  V30 27 N 0.063643 -2.939368 -0.735556 0
M  V30 28 C 0.638270 -1.928261 -0.057178 0
M  V30 29 C 1.440912 -1.973083 1.080108 0
M  V30 30 C 0.730138 -0.807390 4.124063 0
M  V30 31 C 0.018265 0.253411 4.977924 0
M  V30 32 H -0.081661 2.538041 6.114267 0
M  V30 33 H 0.441388 1.759578 7.646497 0
M  V30 34 H 1.621770 2.591536 6.611189 0
M  V30 35 H 1.505722 -1.077164 6.709652 0
M  V30 36 H 2.494153 0.317269 7.204337 0
M  V30 37 H 3.463387 -1.423288 5.423381 0
M  V30 38 H 3.576319 0.366106 5.087428 0
M  V30 39 H 3.395682 -1.621695 2.786065 0
M  V30 40 H 3.493916 0.139202 2.638308 0
M  V30 41 H 1.917786 1.415975 1.308256 0
M  V30 42 H 0.524596 1.348263 -0.647194 0
M  V30 43 H 0.119436 -0.874099 -4.276759 0
M  V30 44 H -0.672049 0.850019 -5.872709 0
M  V30 45 H -2.659619 3.851041 -2.736113 0
M  V30 46 H -3.976328 2.581298 -2.211373 0
M  V30 47 H -3.208903 -2.028135 -2.103789 0
M  V30 48 H -4.720142 -2.979503 -3.780935 0
M  V30 49 H -1.359373 -5.158065 -5.419254 0
M  V30 50 H 0.106417 -4.193019 -3.742135 0
M  V30 51 H 1.691087 -2.913758 1.555681 0
M  V30 52 H 0.229963 -0.897152 3.165315 0
M  V30 53 H 0.546060 -1.774711 4.648572 0
M  V30 54 H -0.846399 -0.206618 5.449310 0
M  V30 55 H -0.359495 1.081201 4.345044 0
M  V30 END ATOM
M  V30 BEGIN BOND
M  V30 1 1 1 2
M  V30 2 1 2 3
M  V30 3 1 3 4
M  V30 4 1 4 5
M  V30 5 1 5 6
M  V30 6 1 6 7
M  V30 7 1 7 8
M  V30 8 2 8 9
M  V30 9 1 9 10
M  V30 10 1 10 11
M  V30 11 1 11 12
M  V30 12 2 12 13
M  V30 13 1 13 14
M  V30 14 2 14 15
M  V30 15 1 15 16
M  V30 16 1 16 17
M  V30 17 2 16 18
M  V30 18 2 11 19
M  V30 19 1 19 20
M  V30 20 2 20 21
M  V30 21 1 21 22
M  V30 22 2 22 23
M  V30 23 1 23 24
M  V30 24 1 23 25
M  V30 25 2 25 26
M  V30 26 1 19 27
M  V30 27 2 27 28
M  V30 28 1 28 29
M  V30 29 1 5 30
M  V30 30 1 30 31
M  V30 31 1 31 2
M  V30 32 2 29 7
M  V30 33 1 28 10
M  V30 34 1 18 12
M  V30 35 1 26 20
M  V30 36 1 1 32
M  V30 37 1 1 33
M  V30 38 1 1 34
M  V30 39 1 3 35
M  V30 40 1 3 36
M  V30 41 1 4 37
M  V30 42 1 4 38
M  V30 43 1 6 39
M  V30 44 1 6 40
M  V30 45 1 8 41
M  V30 46 1 9 42
M  V30 47 1 13 43
M  V30 48 1 14 44
M  V30 49 1 17 45
M  V30 50 1 17 46
M  V30 51 1 21 47
M  V30 52 1 22 48
M  V30 53 1 25 49
M  V30 54 1 26 50
M  V30 55 1 29 51
M  V30 56 1 30 52
M  V30 57 1 30 53
M  V30 58 1 31 54
M  V30 59 1 31 55
M  V30 END BOND
M  V30 END CTAB
M  END
>  <Dataset>  (449) 
ChEMBL_Kinases

>  <Ligand_Instance>  (449) 
nan

>  <PDB_ID>  (449) 
nan

>  <Standardized_SMILES>  (449) 
CN1CCN(Cc2ccn3c(-c4ccnc(N)n4)c(-c4ccc(F)cc4)nc3c2)CC1

>  <Name>  (449) 
nan

>  <Pocket>  (449) 
nan

>  <ATP_Site>  (449) 
nan

>  <Peripheral>  (449) 
nan

>  <Num_H_Atoms_ProtBoundConf>  (449) 
nan

>  <Num_Resolved_Atoms>  (449) 
nan

>  <Num_Not_Resolved_Atoms>  (449) 
nan

$$$$
CHEMBL3806141
     RDKit          3D

  0  0  0  0  0  0  0  0  0  0999 V3000
M  V30 BEGIN CTAB
M  V30 COUNTS 65 68 0 0 0
M  V30 BEGIN ATOM
M  V30 1 C 2.891431 -3.895788 1.166985 0
M  V30 2 C 3.450873 -3.898846 -0.236324 0
M  V30 3 N 3.700507 -2.560733 -0.663473 0
M  V30 4 C 4.234286 -2.438691 -1.998992 0
M  V30 5 C 3.191675 -2.497256 -3.064933 0
M  V30 6 N 2.114993 -1.626892 -2.757376 0
M  V30 7 C 2.231066 -0.268767 -3.113113 0
M  V30 8 C 1.042091 0.511394 -2.764900 0
M  V30 9 C 1.030896 1.374718 -1.660077 0
M  V30 10 C -0.064499 2.148881 -1.265112 0
M  V30 11 C -1.226764 2.042051 -2.040299 0
M  V30 12 N -2.269741 2.878663 -1.529965 0
M  V30 13 C -2.999640 2.137561 -0.568439 0
M  V30 14 O -2.466284 0.976855 -0.500358 0
M  V30 15 C -4.170774 2.745721 0.161660 0
M  V30 16 O -4.723667 1.807006 1.064896 0
M  V30 17 C -4.042041 1.244905 2.109414 0
M  V30 18 C -4.816747 0.339910 2.845918 0
M  V30 19 C -4.283985 -0.333368 3.953580 0
M  V30 20 C -2.977181 -0.101661 4.324088 0
M  V30 21 C -2.269195 -0.717560 5.440446 0
M  V30 22 C -2.571266 -2.014229 5.836003 0
M  V30 23 C -1.944784 -2.643126 6.869734 0
M  V30 24 N -0.977313 -1.988521 7.557851 0
M  V30 25 C -0.671288 -0.718638 7.181425 0
M  V30 26 C -1.283920 -0.053459 6.142541 0
M  V30 27 C -2.208570 0.788587 3.603542 0
M  V30 28 C -2.740043 1.448305 2.514038 0
M  V30 29 C -1.262549 1.206418 -3.135985 0
M  V30 30 C -0.155258 0.461019 -3.487534 0
M  V30 31 C -0.230379 -0.423103 -4.679746 0
M  V30 32 F 0.719402 -0.042409 -5.607907 0
M  V30 33 F -1.501315 -0.353379 -5.219339 0
M  V30 34 F -0.063536 -1.718127 -4.231642 0
M  V30 35 C 1.563521 -1.966304 -1.504615 0
M  V30 36 C 2.588444 -1.658324 -0.437180 0
M  V30 37 H 3.121193 -4.864448 1.696863 0
M  V30 38 H 1.765352 -3.873976 1.171696 0
M  V30 39 H 3.307578 -3.090965 1.790395 0
M  V30 40 H 2.744588 -4.476001 -0.864537 0
M  V30 41 H 4.439917 -4.426334 -0.158612 0
M  V30 42 H 4.827684 -1.508746 -2.065552 0
M  V30 43 H 4.917287 -3.318434 -2.128132 0
M  V30 44 H 3.681287 -2.289524 -4.037197 0
M  V30 45 H 2.789001 -3.552589 -3.042417 0
M  V30 46 H 3.089795 0.155623 -2.524674 0
M  V30 47 H 2.521383 -0.207791 -4.182349 0
M  V30 48 H 1.941533 1.467480 -1.045195 0
M  V30 49 H 0.049011 2.781693 -0.388718 0
M  V30 50 H -2.525011 3.879062 -1.776152 0
M  V30 51 H -3.817164 3.604361 0.744497 0
M  V30 52 H -4.898600 3.093008 -0.576603 0
M  V30 53 H -5.843431 0.056105 2.681226 0
M  V30 54 H -4.832145 -1.040041 4.556962 0
M  V30 55 H -3.341151 -2.560659 5.302866 0
M  V30 56 H -2.129986 -3.642857 7.226297 0
M  V30 57 H 0.097893 -0.181736 7.720446 0
M  V30 58 H -1.014223 0.942678 5.881164 0
M  V30 59 H -1.180749 1.035119 3.815186 0
M  V30 60 H -2.182501 2.145155 1.938148 0
M  V30 61 H -2.201309 1.199771 -3.659435 0
M  V30 62 H 1.410366 -3.079427 -1.494187 0
M  V30 63 H 0.572371 -1.547215 -1.280721 0
M  V30 64 H 2.958107 -0.638553 -0.580771 0
M  V30 65 H 2.212412 -1.861381 0.579482 0
M  V30 END ATOM
M  V30 BEGIN BOND
M  V30 1 1 1 2
M  V30 2 1 2 3
M  V30 3 1 3 4
M  V30 4 1 4 5
M  V30 5 1 5 6
M  V30 6 1 6 7
M  V30 7 1 7 8
M  V30 8 2 8 9
M  V30 9 1 9 10
M  V30 10 2 10 11
M  V30 11 1 11 12
M  V30 12 1 12 13
M  V30 13 2 13 14
M  V30 14 1 13 15
M  V30 15 1 15 16
M  V30 16 1 16 17
M  V30 17 2 17 18
M  V30 18 1 18 19
M  V30 19 2 19 20
M  V30 20 1 20 21
M  V30 21 2 21 22
M  V30 22 1 22 23
M  V30 23 2 23 24
M  V30 24 1 24 25
M  V30 25 2 25 26
M  V30 26 1 20 27
M  V30 27 2 27 28
M  V30 28 1 11 29
M  V30 29 2 29 30
M  V30 30 1 30 31
M  V30 31 1 31 32
M  V30 32 1 31 33
M  V30 33 1 31 34
M  V30 34 1 6 35
M  V30 35 1 35 36
M  V30 36 1 36 3
M  V30 37 1 30 8
M  V30 38 1 28 17
M  V30 39 1 26 21
M  V30 40 1 1 37
M  V30 41 1 1 38
M  V30 42 1 1 39
M  V30 43 1 2 40
M  V30 44 1 2 41
M  V30 45 1 4 42
M  V30 46 1 4 43
M  V30 47 1 5 44
M  V30 48 1 5 45
M  V30 49 1 7 46
M  V30 50 1 7 47
M  V30 51 1 9 48
M  V30 52 1 10 49
M  V30 53 1 12 50
M  V30 54 1 15 51
M  V30 55 1 15 52
M  V30 56 1 18 53
M  V30 57 1 19 54
M  V30 58 1 22 55
M  V30 59 1 23 56
M  V30 60 1 25 57
M  V30 61 1 26 58
M  V30 62 1 27 59
M  V30 63 1 28 60
M  V30 64 1 29 61
M  V30 65 1 35 62
M  V30 66 1 35 63
M  V30 67 1 36 64
M  V30 68 1 36 65
M  V30 END BOND
M  V30 END CTAB
M  END
>  <Dataset>  (450) 
ChEMBL_Kinases

>  <Ligand_Instance>  (450) 
nan

>  <PDB_ID>  (450) 
nan

>  <Standardized_SMILES>  (450) 
CCN1CCN(Cc2ccc(NC(=O)COc3ccc(-c4ccncc4)cc3)cc2C(F)(F)F)CC1

>  <Name>  (450) 
nan

>  <Pocket>  (450) 
nan

>  <ATP_Site>  (450) 
nan

>  <Peripheral>  (450) 
nan

>  <Num_H_Atoms_ProtBoundConf>  (450) 
nan

>  <Num_Resolved_Atoms>  (450) 
nan

>  <Num_Not_Resolved_Atoms>  (450) 
nan

$$$$
CHEMBL3806131
     RDKit          3D

  0  0  0  0  0  0  0  0  0  0999 V3000
M  V30 BEGIN CTAB
M  V30 COUNTS 48 51 0 0 0
M  V30 BEGIN ATOM
M  V30 1 C 2.478255 -3.933226 -4.780975 0
M  V30 2 N 3.243462 -3.133408 -3.848660 0
M  V30 3 N 4.576950 -3.041325 -3.935403 0
M  V30 4 C 5.044643 -2.256996 -2.975925 0
M  V30 5 C 3.917336 -1.871339 -2.292511 0
M  V30 6 Cl 4.151127 -0.812335 -0.935113 0
M  V30 7 C 2.778433 -2.413675 -2.828821 0
M  V30 8 C 1.437157 -2.203052 -2.341606 0
M  V30 9 C 0.340644 -2.831593 -2.999537 0
M  V30 10 S -1.142966 -2.264177 -2.017546 0
M  V30 11 C -0.183155 -1.287872 -0.879005 0
M  V30 12 C -0.886804 -0.582714 0.162586 0
M  V30 13 O -2.118670 -0.661320 0.252162 0
M  V30 14 N -0.186577 0.219924 1.112508 0
M  V30 15 C -0.878263 0.956679 2.193753 0
M  V30 16 C -1.508629 -0.070989 3.054820 0
M  V30 17 C -0.976965 -1.372465 3.045269 0
M  V30 18 C -1.401229 -2.469970 3.763384 0
M  V30 19 C -2.481361 -2.255175 4.590813 0
M  V30 20 F -2.958159 -3.284316 5.329820 0
M  V30 21 C -3.071643 -1.011658 4.668511 0
M  V30 22 C -2.580867 0.029413 3.913897 0
M  V30 23 C 0.192552 1.672841 2.972621 0
M  V30 24 C -0.236651 2.931099 3.629971 0
M  V30 25 N -1.567295 3.326193 3.510947 0
M  V30 26 C -2.364511 2.998256 2.420225 0
M  V30 27 C -1.817240 1.905527 1.567863 0
M  V30 28 C 1.062479 -1.441329 -1.277056 0
M  V30 29 H 1.967758 -4.775121 -4.285351 0
M  V30 30 H 3.183337 -4.433247 -5.494795 0
M  V30 31 H 1.784487 -3.359136 -5.411916 0
M  V30 32 H 6.103094 -2.063796 -2.886653 0
M  V30 33 H 0.129094 -3.487676 -3.833104 0
M  V30 34 H 0.852377 0.250984 0.990738 0
M  V30 35 H -0.111966 -1.541189 2.381588 0
M  V30 36 H -0.888709 -3.412864 3.650490 0
M  V30 37 H -3.924839 -0.798560 5.307654 0
M  V30 38 H -3.036610 1.004425 3.972744 0
M  V30 39 H 1.028495 1.896900 2.275841 0
M  V30 40 H 0.612610 0.941349 3.696727 0
M  V30 41 H 0.393776 3.790512 3.309814 0
M  V30 42 H -0.014811 2.850206 4.718252 0
M  V30 43 H -2.115727 3.355981 4.392395 0
M  V30 44 H -2.384224 3.932912 1.760437 0
M  V30 45 H -3.456469 2.885079 2.636346 0
M  V30 46 H -1.244475 2.427207 0.743721 0
M  V30 47 H -2.727221 1.412059 1.139272 0
M  V30 48 H 1.731991 -0.884235 -0.646467 0
M  V30 END ATOM
M  V30 BEGIN BOND
M  V30 1 1 1 2
M  V30 2 1 2 3
M  V30 3 2 3 4
M  V30 4 1 4 5
M  V30 5 1 5 6
M  V30 6 2 5 7
M  V30 7 1 7 8
M  V30 8 2 8 9
M  V30 9 1 9 10
M  V30 10 1 10 11
M  V30 11 1 11 12
M  V30 12 2 12 13
M  V30 13 1 12 14
M  V30 14 1 14 15
M  V30 15 1 15 16
M  V30 16 2 16 17
M  V30 17 1 17 18
M  V30 18 2 18 19
M  V30 19 1 19 20
M  V30 20 1 19 21
M  V30 21 2 21 22
M  V30 22 1 15 23
M  V30 23 1 23 24
M  V30 24 1 24 25
M  V30 25 1 25 26
M  V30 26 1 26 27
M  V30 27 2 11 28
M  V30 28 1 7 2
M  V30 29 1 28 8
M  V30 30 1 27 15
M  V30 31 1 22 16
M  V30 32 1 1 29
M  V30 33 1 1 30
M  V30 34 1 1 31
M  V30 35 1 4 32
M  V30 36 1 9 33
M  V30 37 1 14 34
M  V30 38 1 17 35
M  V30 39 1 18 36
M  V30 40 1 21 37
M  V30 41 1 22 38
M  V30 42 1 23 39
M  V30 43 1 23 40
M  V30 44 1 24 41
M  V30 45 1 24 42
M  V30 46 1 25 43
M  V30 47 1 26 44
M  V30 48 1 26 45
M  V30 49 1 27 46
M  V30 50 1 27 47
M  V30 51 1 28 48
M  V30 END BOND
M  V30 END CTAB
M  END
>  <Dataset>  (451) 
ChEMBL_Kinases

>  <Ligand_Instance>  (451) 
nan

>  <PDB_ID>  (451) 
nan

>  <Standardized_SMILES>  (451) 
Cn1ncc(Cl)c1-c1csc(C(=O)NC2(c3ccc(F)cc3)CCNCC2)c1

>  <Name>  (451) 
nan

>  <Pocket>  (451) 
nan

>  <ATP_Site>  (451) 
nan

>  <Peripheral>  (451) 
nan

>  <Num_H_Atoms_ProtBoundConf>  (451) 
nan

>  <Num_Resolved_Atoms>  (451) 
nan

>  <Num_Not_Resolved_Atoms>  (451) 
nan

$$$$
CHEMBL3806108
     RDKit          3D

  0  0  0  0  0  0  0  0  0  0999 V3000
M  V30 BEGIN CTAB
M  V30 COUNTS 55 59 0 0 0
M  V30 BEGIN ATOM
M  V30 1 C 3.189733 -5.287312 -3.001403 0
M  V30 2 N 3.370350 -4.904968 -1.616307 0
M  V30 3 C 4.291834 -5.742747 -0.833447 0
M  V30 4 C 2.746517 -3.812400 -0.958966 0
M  V30 5 C 2.994800 -3.540057 0.367782 0
M  V30 6 C 2.383452 -2.478125 0.994573 0
M  V30 7 C 1.501383 -1.621649 0.380378 0
M  V30 8 C 0.809858 -0.488030 0.940237 0
M  V30 9 C -0.318419 0.008554 0.044201 0
M  V30 10 C -0.948914 0.981389 1.028218 0
M  V30 11 C -1.704333 2.182505 0.675704 0
M  V30 12 C -2.190157 2.925428 1.731746 0
M  V30 13 C -2.909930 4.068260 1.452964 0
M  V30 14 C -3.104429 4.406356 0.108390 0
M  V30 15 C -2.597511 3.629391 -0.916563 0
M  V30 16 C -1.882576 2.494495 -0.656730 0
M  V30 17 O -2.828177 4.023418 -2.218430 0
M  V30 18 C -3.960454 4.777421 -2.633559 0
M  V30 19 C -4.577262 5.555673 -1.503722 0
M  V30 20 O -3.803643 5.520462 -0.327651 0
M  V30 21 N -0.681033 0.531769 2.202721 0
M  V30 22 N 0.078299 -0.670483 2.166426 0
M  V30 23 C -0.118032 -1.558748 3.264415 0
M  V30 24 C -0.100775 -2.933682 3.182441 0
M  V30 25 C -0.259239 -3.797790 4.243319 0
M  V30 26 C -0.449106 -3.224612 5.473341 0
M  V30 27 C -0.483688 -1.864558 5.664074 0
M  V30 28 C -0.315189 -1.086704 4.541408 0
M  V30 29 C 1.272238 -1.927377 -0.966245 0
M  V30 30 C 1.869503 -2.985129 -1.624357 0
M  V30 31 H 2.581061 -6.213748 -3.110571 0
M  V30 32 H 4.219603 -5.562467 -3.375955 0
M  V30 33 H 2.750548 -4.521096 -3.639004 0
M  V30 34 H 4.471755 -6.709922 -1.327880 0
M  V30 35 H 3.771399 -5.992478 0.129601 0
M  V30 36 H 5.250271 -5.240974 -0.681694 0
M  V30 37 H 3.668773 -4.137119 0.965024 0
M  V30 38 H 2.583839 -2.263829 2.052930 0
M  V30 39 H 1.538152 0.368296 1.067007 0
M  V30 40 H -1.076523 -0.777503 -0.108641 0
M  V30 41 H 0.018681 0.527519 -0.850049 0
M  V30 42 H -2.030038 2.649496 2.748965 0
M  V30 43 H -3.335371 4.723430 2.180063 0
M  V30 44 H -1.483854 1.883345 -1.455087 0
M  V30 45 H -4.673696 4.015823 -3.037449 0
M  V30 46 H -3.694938 5.413536 -3.506327 0
M  V30 47 H -4.772041 6.615300 -1.742877 0
M  V30 48 H -5.565849 5.097781 -1.266371 0
M  V30 49 H 0.032340 -3.417829 2.229144 0
M  V30 50 H -0.236834 -4.867070 4.123606 0
M  V30 51 H -0.579340 -3.849673 6.346164 0
M  V30 52 H -0.635128 -1.418332 6.644147 0
M  V30 53 H -0.346408 -0.005229 4.714208 0
M  V30 54 H 0.580343 -1.299046 -1.544595 0
M  V30 55 H 1.633234 -3.139899 -2.652071 0
M  V30 END ATOM
M  V30 BEGIN BOND
M  V30 1 1 1 2
M  V30 2 1 2 3
M  V30 3 1 2 4
M  V30 4 2 4 5
M  V30 5 1 5 6
M  V30 6 2 6 7
M  V30 7 1 7 8
M  V30 8 1 8 9
M  V30 9 1 9 10
M  V30 10 1 10 11
M  V30 11 2 11 12
M  V30 12 1 12 13
M  V30 13 2 13 14
M  V30 14 1 14 15
M  V30 15 2 15 16
M  V30 16 1 15 17
M  V30 17 1 17 18
M  V30 18 1 18 19
M  V30 19 1 19 20
M  V30 20 2 10 21
M  V30 21 1 21 22
M  V30 22 1 22 23
M  V30 23 2 23 24
M  V30 24 1 24 25
M  V30 25 2 25 26
M  V30 26 1 26 27
M  V30 27 2 27 28
M  V30 28 1 7 29
M  V30 29 2 29 30
M  V30 30 1 30 4
M  V30 31 1 22 8
M  V30 32 1 28 23
M  V30 33 1 16 11
M  V30 34 1 20 14
M  V30 35 1 1 31
M  V30 36 1 1 32
M  V30 37 1 1 33
M  V30 38 1 3 34
M  V30 39 1 3 35
M  V30 40 1 3 36
M  V30 41 1 5 37
M  V30 42 1 6 38
M  V30 43 1 8 39
M  V30 44 1 9 40
M  V30 45 1 9 41
M  V30 46 1 12 42
M  V30 47 1 13 43
M  V30 48 1 16 44
M  V30 49 1 18 45
M  V30 50 1 18 46
M  V30 51 1 19 47
M  V30 52 1 19 48
M  V30 53 1 24 49
M  V30 54 1 25 50
M  V30 55 1 26 51
M  V30 56 1 27 52
M  V30 57 1 28 53
M  V30 58 1 29 54
M  V30 59 1 30 55
M  V30 END BOND
M  V30 END CTAB
M  END
>  <Dataset>  (452) 
ChEMBL_Kinases

>  <Ligand_Instance>  (452) 
nan

>  <PDB_ID>  (452) 
nan

>  <Standardized_SMILES>  (452) 
CN(C)c1ccc(C2CC(c3ccc4c(c3)OCCO4)=NN2c2ccccc2)cc1

>  <Name>  (452) 
nan

>  <Pocket>  (452) 
nan

>  <ATP_Site>  (452) 
nan

>  <Peripheral>  (452) 
nan

>  <Num_H_Atoms_ProtBoundConf>  (452) 
nan

>  <Num_Resolved_Atoms>  (452) 
nan

>  <Num_Not_Resolved_Atoms>  (452) 
nan

$$$$
CHEMBL380605
     RDKit          3D

  0  0  0  0  0  0  0  0  0  0999 V3000
M  V30 BEGIN CTAB
M  V30 COUNTS 69 72 0 0 0
M  V30 BEGIN ATOM
M  V30 1 C 8.149654 -1.648679 2.501958 0
M  V30 2 C 7.179223 -2.782641 2.347288 0
M  V30 3 C 5.790007 -2.235558 1.999536 0
M  V30 4 C 5.812304 -1.458939 0.722604 0
M  V30 5 C 4.436415 -0.924833 0.401420 0
M  V30 6 C 3.395635 -1.998842 0.224731 0
M  V30 7 C 2.020442 -1.415084 -0.108618 0
M  V30 8 O 1.173397 -2.515046 -0.243759 0
M  V30 9 C 2.081236 -0.684319 -1.409329 0
M  V30 10 N 0.767868 -0.245465 -1.771239 0
M  V30 11 C -0.139449 -1.290134 -2.114639 0
M  V30 12 C -1.153935 -0.745309 -3.095784 0
M  V30 13 C -1.668993 0.615564 -2.604074 0
M  V30 14 C -2.499383 0.456139 -1.393974 0
M  V30 15 C -2.075540 0.255895 -0.098414 0
M  V30 16 C -3.162924 0.145200 0.751699 0
M  V30 17 C -3.181154 -0.070667 2.200578 0
M  V30 18 C -3.722043 -1.167508 2.862859 0
M  V30 19 C -3.645543 -1.197535 4.246601 0
M  V30 20 N -3.067981 -0.200731 4.931643 0
M  V30 21 C -2.537351 0.874609 4.286099 0
M  V30 22 C -2.590605 0.945650 2.921812 0
M  V30 23 C -4.274003 0.284262 -0.066229 0
M  V30 24 C -5.655830 0.229279 0.424672 0
M  V30 25 C -6.323580 -0.833066 -0.151470 0
M  V30 26 C -7.656974 -1.101723 0.153700 0
M  V30 27 C -8.275433 -0.247357 1.064579 0
M  V30 28 F -9.573928 -0.473744 1.389730 0
M  V30 29 C -7.603157 0.805066 1.631110 0
M  V30 30 C -6.280429 1.065906 1.323914 0
M  V30 31 N -3.858893 0.464577 -1.312094 0
M  V30 32 C -0.560838 1.601851 -2.463571 0
M  V30 33 C 0.760454 0.887548 -2.662963 0
M  V30 34 H 8.786438 -1.759241 3.416999 0
M  V30 35 H 8.855383 -1.618077 1.635867 0
M  V30 36 H 7.635921 -0.672002 2.608197 0
M  V30 37 H 7.508659 -3.514444 1.561385 0
M  V30 38 H 7.120404 -3.317575 3.294046 0
M  V30 39 H 5.095474 -3.088044 1.952337 0
M  V30 40 H 5.509266 -1.542790 2.821639 0
M  V30 41 H 6.207931 -2.071481 -0.117082 0
M  V30 42 H 6.530406 -0.621165 0.864003 0
M  V30 43 H 4.074018 -0.237326 1.201486 0
M  V30 44 H 4.515474 -0.279431 -0.511999 0
M  V30 45 H 3.342694 -2.678873 1.075866 0
M  V30 46 H 3.690427 -2.571123 -0.678672 0
M  V30 47 H 1.718132 -0.792390 0.735831 0
M  V30 48 H 1.637244 -3.366780 -0.273735 0
M  V30 49 H 2.593505 -1.300720 -2.171311 0
M  V30 50 H 2.702318 0.225328 -1.284179 0
M  V30 51 H -0.724802 -1.607247 -1.228793 0
M  V30 52 H 0.357338 -2.190841 -2.533802 0
M  V30 53 H -2.030285 -1.429006 -3.152806 0
M  V30 54 H -0.698850 -0.582113 -4.087914 0
M  V30 55 H -2.356959 0.978611 -3.420878 0
M  V30 56 H -1.080199 0.186283 0.289340 0
M  V30 57 H -4.163829 -1.915053 2.219755 0
M  V30 58 H -4.078838 -2.070290 4.725706 0
M  V30 59 H -2.082907 1.649097 4.901099 0
M  V30 60 H -2.141638 1.839340 2.508731 0
M  V30 61 H -5.932135 -1.554563 -0.869864 0
M  V30 62 H -8.226012 -1.930439 -0.276601 0
M  V30 63 H -8.046231 1.494444 2.343955 0
M  V30 64 H -5.641962 1.854432 1.696463 0
M  V30 65 H -4.492471 0.596970 -2.131820 0
M  V30 66 H -0.509040 2.053493 -1.439965 0
M  V30 67 H -0.629850 2.458308 -3.161248 0
M  V30 68 H 0.907060 0.631094 -3.728467 0
M  V30 69 H 1.598089 1.543466 -2.369619 0
M  V30 END ATOM
M  V30 BEGIN BOND
M  V30 1 1 1 2
M  V30 2 1 2 3
M  V30 3 1 3 4
M  V30 4 1 4 5
M  V30 5 1 5 6
M  V30 6 1 6 7
M  V30 7 1 7 8
M  V30 8 1 7 9
M  V30 9 1 9 10
M  V30 10 1 10 11
M  V30 11 1 11 12
M  V30 12 1 12 13
M  V30 13 1 13 14
M  V30 14 2 14 15
M  V30 15 1 15 16
M  V30 16 1 16 17
M  V30 17 2 17 18
M  V30 18 1 18 19
M  V30 19 2 19 20
M  V30 20 1 20 21
M  V30 21 2 21 22
M  V30 22 2 16 23
M  V30 23 1 23 24
M  V30 24 2 24 25
M  V30 25 1 25 26
M  V30 26 2 26 27
M  V30 27 1 27 28
M  V30 28 1 27 29
M  V30 29 2 29 30
M  V30 30 1 23 31
M  V30 31 1 13 32
M  V30 32 1 32 33
M  V30 33 1 33 10
M  V30 34 1 31 14
M  V30 35 1 22 17
M  V30 36 1 30 24
M  V30 37 1 1 34
M  V30 38 1 1 35
M  V30 39 1 1 36
M  V30 40 1 2 37
M  V30 41 1 2 38
M  V30 42 1 3 39
M  V30 43 1 3 40
M  V30 44 1 4 41
M  V30 45 1 4 42
M  V30 46 1 5 43
M  V30 47 1 5 44
M  V30 48 1 6 45
M  V30 49 1 6 46
M  V30 50 1 7 47
M  V30 51 1 8 48
M  V30 52 1 9 49
M  V30 53 1 9 50
M  V30 54 1 11 51
M  V30 55 1 11 52
M  V30 56 1 12 53
M  V30 57 1 12 54
M  V30 58 1 13 55
M  V30 59 1 15 56
M  V30 60 1 18 57
M  V30 61 1 19 58
M  V30 62 1 21 59
M  V30 63 1 22 60
M  V30 64 1 25 61
M  V30 65 1 26 62
M  V30 66 1 29 63
M  V30 67 1 30 64
M  V30 68 1 31 65
M  V30 69 1 32 66
M  V30 70 1 32 67
M  V30 71 1 33 68
M  V30 72 1 33 69
M  V30 END BOND
M  V30 END CTAB
M  END
>  <Dataset>  (453) 
ChEMBL_Kinases

>  <Ligand_Instance>  (453) 
nan

>  <PDB_ID>  (453) 
nan

>  <Standardized_SMILES>  (453) 
CCCCCCC(O)CN1CCC(c2cc(-c3ccncc3)c(-c3ccc(F)cc3)[nH]2)CC1

>  <Name>  (453) 
nan

>  <Pocket>  (453) 
nan

>  <ATP_Site>  (453) 
nan

>  <Peripheral>  (453) 
nan

>  <Num_H_Atoms_ProtBoundConf>  (453) 
nan

>  <Num_Resolved_Atoms>  (453) 
nan

>  <Num_Not_Resolved_Atoms>  (453) 
nan

$$$$
CHEMBL380596
     RDKit          3D

  0  0  0  0  0  0  0  0  0  0999 V3000
M  V30 BEGIN CTAB
M  V30 COUNTS 55 58 0 0 0
M  V30 BEGIN ATOM
M  V30 1 C 0.831221 -2.413942 2.767598 0
M  V30 2 O 0.667666 -1.711754 1.575343 0
M  V30 3 C 1.302182 -0.565128 1.187197 0
M  V30 4 C 2.204063 -0.066448 2.100585 0
M  V30 5 C 2.893505 1.087861 1.797440 0
M  V30 6 C 2.653846 1.702981 0.586326 0
M  V30 7 C 3.376369 2.918765 0.260618 0
M  V30 8 C 2.789200 4.226385 0.572764 0
M  V30 9 C 2.462010 4.564566 1.976951 0
M  V30 10 C 1.886269 6.000145 1.948883 0
M  V30 11 C 1.443686 3.739440 2.668997 0
M  V30 12 O 3.597295 4.669320 2.779877 0
M  V30 13 C 1.749352 1.152984 -0.265094 0
M  V30 14 C 1.018262 -0.004487 -0.029860 0
M  V30 15 C 0.072190 -0.514878 -1.004436 0
M  V30 16 N -0.124303 0.136810 -2.188354 0
M  V30 17 N -1.019331 -0.500099 -2.910747 0
M  V30 18 C -1.462507 -1.591165 -2.263588 0
M  V30 19 N -2.358510 -2.539236 -2.584548 0
M  V30 20 C -2.580715 -3.523025 -1.694269 0
M  V30 21 N -3.515907 -4.551868 -1.979384 0
M  V30 22 C -3.915497 -5.673767 -1.209307 0
M  V30 23 C -3.713890 -6.950727 -1.735644 0
M  V30 24 C -4.095899 -8.061448 -1.003678 0
M  V30 25 C -4.680507 -7.910402 0.255604 0
M  V30 26 F -5.058129 -9.007196 0.979235 0
M  V30 27 C -4.879359 -6.648533 0.774910 0
M  V30 28 C -4.493351 -5.552201 0.033299 0
M  V30 29 F -4.706361 -4.334765 0.578227 0
M  V30 30 C -1.880421 -3.504525 -0.507510 0
M  V30 31 N -0.988904 -2.549270 -0.203604 0
M  V30 32 C -0.763032 -1.573933 -1.076564 0
M  V30 33 H -0.028628 -3.103791 2.902791 0
M  V30 34 H 0.798310 -1.690427 3.610934 0
M  V30 35 H 1.799837 -2.977450 2.718887 0
M  V30 36 H 2.398072 -0.538896 3.047987 0
M  V30 37 H 3.612039 1.525244 2.473226 0
M  V30 38 H 4.430190 2.919593 0.670359 0
M  V30 39 H 3.562448 2.888858 -0.857191 0
M  V30 40 H 1.925837 4.494845 -0.111813 0
M  V30 41 H 3.558146 4.998511 0.251992 0
M  V30 42 H 2.680439 6.752201 2.137190 0
M  V30 43 H 1.456339 6.235067 0.958093 0
M  V30 44 H 1.100552 6.134243 2.701065 0
M  V30 45 H 1.802301 3.110223 3.504262 0
M  V30 46 H 0.654207 4.391689 3.154918 0
M  V30 47 H 0.843773 3.090174 1.990791 0
M  V30 48 H 3.355098 5.232460 3.551967 0
M  V30 49 H 1.605663 1.682596 -1.199542 0
M  V30 50 H 0.289426 1.014897 -2.610493 0
M  V30 51 H -4.030404 -4.544430 -2.885895 0
M  V30 52 H -3.263280 -7.127511 -2.710824 0
M  V30 53 H -3.953234 -9.067576 -1.383842 0
M  V30 54 H -5.333893 -6.523793 1.754562 0
M  V30 55 H -2.028654 -4.288124 0.250559 0
M  V30 END ATOM
M  V30 BEGIN BOND
M  V30 1 1 1 2
M  V30 2 1 2 3
M  V30 3 2 3 4
M  V30 4 1 4 5
M  V30 5 2 5 6
M  V30 6 1 6 7
M  V30 7 1 7 8
M  V30 8 1 8 9
M  V30 9 1 9 10
M  V30 10 1 9 11
M  V30 11 1 9 12
M  V30 12 1 6 13
M  V30 13 2 13 14
M  V30 14 1 14 15
M  V30 15 1 15 16
M  V30 16 1 16 17
M  V30 17 2 17 18
M  V30 18 1 18 19
M  V30 19 2 19 20
M  V30 20 1 20 21
M  V30 21 1 21 22
M  V30 22 2 22 23
M  V30 23 1 23 24
M  V30 24 2 24 25
M  V30 25 1 25 26
M  V30 26 1 25 27
M  V30 27 2 27 28
M  V30 28 1 28 29
M  V30 29 1 20 30
M  V30 30 2 30 31
M  V30 31 1 31 32
M  V30 32 1 14 3
M  V30 33 2 32 15
M  V30 34 1 32 18
M  V30 35 1 28 22
M  V30 36 1 1 33
M  V30 37 1 1 34
M  V30 38 1 1 35
M  V30 39 1 4 36
M  V30 40 1 5 37
M  V30 41 1 7 38
M  V30 42 1 7 39
M  V30 43 1 8 40
M  V30 44 1 8 41
M  V30 45 1 10 42
M  V30 46 1 10 43
M  V30 47 1 10 44
M  V30 48 1 11 45
M  V30 49 1 11 46
M  V30 50 1 11 47
M  V30 51 1 12 48
M  V30 52 1 13 49
M  V30 53 1 16 50
M  V30 54 1 21 51
M  V30 55 1 23 52
M  V30 56 1 24 53
M  V30 57 1 27 54
M  V30 58 1 30 55
M  V30 END BOND
M  V30 END CTAB
M  END
>  <Dataset>  (454) 
ChEMBL_Kinases

>  <Ligand_Instance>  (454) 
nan

>  <PDB_ID>  (454) 
nan

>  <Standardized_SMILES>  (454) 
COc1ccc(CCC(C)(C)O)cc1-c1[nH]nc2nc(Nc3ccc(F)cc3F)cnc12

>  <Name>  (454) 
nan

>  <Pocket>  (454) 
nan

>  <ATP_Site>  (454) 
nan

>  <Peripheral>  (454) 
nan

>  <Num_H_Atoms_ProtBoundConf>  (454) 
nan

>  <Num_Resolved_Atoms>  (454) 
nan

>  <Num_Not_Resolved_Atoms>  (454) 
nan

$$$$
CHEMBL497808
     RDKit          3D

  0  0  0  0  0  0  0  0  0  0999 V3000
M  V30 BEGIN CTAB
M  V30 COUNTS 53 56 0 0 0
M  V30 BEGIN ATOM
M  V30 1 C 0.250287 2.188242 3.231912 0
M  V30 2 O 1.145333 1.104025 3.103425 0
M  V30 3 C 1.849185 1.056276 4.314824 0
M  V30 4 C 2.858348 -0.069031 4.333958 0
M  V30 5 N 3.840016 -0.001443 3.339992 0
M  V30 6 C 4.809323 1.019498 3.376044 0
M  V30 7 C 3.868635 -0.937707 2.293011 0
M  V30 8 C 2.655947 -0.978557 1.441518 0
M  V30 9 C 2.565988 -0.175973 0.324769 0
M  V30 10 C 1.474472 -0.129969 -0.548658 0
M  V30 11 N 0.474140 -0.979673 -0.182445 0
M  V30 12 C -0.705438 -1.167150 -0.814158 0
M  V30 13 C -1.250269 -0.552929 -2.017075 0
M  V30 14 C -1.449505 0.830839 -2.045389 0
M  V30 15 C -1.954922 1.555092 -3.104169 0
M  V30 16 N -2.274628 0.815340 -4.198095 0
M  V30 17 C -2.098111 -0.521442 -4.212204 0
M  V30 18 N -2.469475 -1.185917 -5.410744 0
M  V30 19 N -1.594747 -1.178316 -3.135053 0
M  V30 20 C -1.447926 -2.109698 -0.133728 0
M  V30 21 C -2.756275 -2.730321 -0.294795 0
M  V30 22 C -3.626489 -2.489395 0.752779 0
M  V30 23 C -4.929606 -2.992556 0.795072 0
M  V30 24 C -5.255238 -3.757139 -0.322956 0
M  V30 25 F -6.515941 -4.272047 -0.333049 0
M  V30 26 C -4.412806 -4.013190 -1.377159 0
M  V30 27 C -3.139157 -3.488974 -1.361278 0
M  V30 28 N -0.685288 -2.477791 0.914623 0
M  V30 29 C 0.493863 -1.788993 0.890685 0
M  V30 30 C 1.589755 -1.805200 1.728292 0
M  V30 31 H 0.806232 3.138891 3.407891 0
M  V30 32 H -0.414046 2.013578 4.106352 0
M  V30 33 H -0.384368 2.293801 2.342994 0
M  V30 34 H 2.279471 2.057206 4.455692 0
M  V30 35 H 1.072071 0.916049 5.092421 0
M  V30 36 H 2.306987 -1.010984 4.420632 0
M  V30 37 H 3.381234 0.037970 5.331706 0
M  V30 38 H 4.948981 1.531161 2.400540 0
M  V30 39 H 4.684369 1.725055 4.214049 0
M  V30 40 H 5.800272 0.518601 3.591977 0
M  V30 41 H 4.123277 -1.980567 2.645878 0
M  V30 42 H 4.720791 -0.678627 1.624219 0
M  V30 43 H 3.396119 0.478805 0.086530 0
M  V30 44 H 1.426908 0.502282 -1.410570 0
M  V30 45 H -1.174679 1.379458 -1.135670 0
M  V30 46 H -2.057559 2.622087 -2.993964 0
M  V30 47 H -3.117141 -1.979000 -5.119331 0
M  V30 48 H -3.007156 -1.946553 -5.837692 0
M  V30 49 H -3.356603 -1.884331 1.628693 0
M  V30 50 H -5.596027 -2.801867 1.608434 0
M  V30 51 H -4.775090 -4.621675 -2.192669 0
M  V30 52 H -2.445500 -3.656469 -2.152436 0
M  V30 53 H 1.658048 -2.434754 2.601977 0
M  V30 END ATOM
M  V30 BEGIN BOND
M  V30 1 1 1 2
M  V30 2 1 2 3
M  V30 3 1 3 4
M  V30 4 1 4 5
M  V30 5 1 5 6
M  V30 6 1 5 7
M  V30 7 1 7 8
M  V30 8 1 8 9
M  V30 9 2 9 10
M  V30 10 1 10 11
M  V30 11 1 11 12
M  V30 12 1 12 13
M  V30 13 2 13 14
M  V30 14 1 14 15
M  V30 15 2 15 16
M  V30 16 1 16 17
M  V30 17 1 17 18
M  V30 18 2 17 19
M  V30 19 2 12 20
M  V30 20 1 20 21
M  V30 21 2 21 22
M  V30 22 1 22 23
M  V30 23 2 23 24
M  V30 24 1 24 25
M  V30 25 1 24 26
M  V30 26 2 26 27
M  V30 27 1 20 28
M  V30 28 2 28 29
M  V30 29 1 29 30
M  V30 30 2 30 8
M  V30 31 1 29 11
M  V30 32 1 19 13
M  V30 33 1 27 21
M  V30 34 1 1 31
M  V30 35 1 1 32
M  V30 36 1 1 33
M  V30 37 1 3 34
M  V30 38 1 3 35
M  V30 39 1 4 36
M  V30 40 1 4 37
M  V30 41 1 6 38
M  V30 42 1 6 39
M  V30 43 1 6 40
M  V30 44 1 7 41
M  V30 45 1 7 42
M  V30 46 1 9 43
M  V30 47 1 10 44
M  V30 48 1 14 45
M  V30 49 1 15 46
M  V30 50 1 18 47
M  V30 51 1 18 48
M  V30 52 1 22 49
M  V30 53 1 23 50
M  V30 54 1 26 51
M  V30 55 1 27 52
M  V30 56 1 30 53
M  V30 END BOND
M  V30 END CTAB
M  END
>  <Dataset>  (455) 
ChEMBL_Kinases

>  <Ligand_Instance>  (455) 
nan

>  <PDB_ID>  (455) 
nan

>  <Standardized_SMILES>  (455) 
COCCN(C)Cc1ccn2c(-c3ccnc(N)n3)c(-c3ccc(F)cc3)nc2c1

>  <Name>  (455) 
nan

>  <Pocket>  (455) 
nan

>  <ATP_Site>  (455) 
nan

>  <Peripheral>  (455) 
nan

>  <Num_H_Atoms_ProtBoundConf>  (455) 
nan

>  <Num_Resolved_Atoms>  (455) 
nan

>  <Num_Not_Resolved_Atoms>  (455) 
nan

$$$$
CHEMBL3805893
     RDKit          3D

  0  0  0  0  0  0  0  0  0  0999 V3000
M  V30 BEGIN CTAB
M  V30 COUNTS 61 66 0 0 0
M  V30 BEGIN ATOM
M  V30 1 C 5.926064 -4.421158 4.890459 0
M  V30 2 C 6.605666 -3.580497 4.036757 0
M  V30 3 C 6.214034 -2.258693 3.808969 0
M  V30 4 C 5.087177 -1.727617 4.457594 0
M  V30 5 C 4.889071 -0.327840 4.068389 0
M  V30 6 O 4.175278 -0.090995 2.908451 0
M  V30 7 C 2.893307 -0.402188 2.557768 0
M  V30 8 C 2.694783 0.074384 1.248581 0
M  V30 9 C 1.468672 -0.084749 0.583238 0
M  V30 10 C 0.432205 -0.724724 1.229807 0
M  V30 11 C -0.902975 -0.937622 0.601909 0
M  V30 12 C -1.486861 0.449485 0.400072 0
M  V30 13 C -2.378115 0.207124 -0.758169 0
M  V30 14 C -3.520434 1.052343 -1.159257 0
M  V30 15 C -3.819701 2.177777 -0.428638 0
M  V30 16 C -4.893987 2.966452 -0.807399 0
M  V30 17 C -5.659971 2.636574 -1.900925 0
M  V30 18 C -5.344043 1.490057 -2.633805 0
M  V30 19 C -4.272408 0.698932 -2.260151 0
M  V30 20 O -6.141726 1.171336 -3.749525 0
M  V30 21 C -7.536017 1.418211 -3.718274 0
M  V30 22 C -7.897935 2.628283 -2.915042 0
M  V30 23 O -6.758756 3.306793 -2.413715 0
M  V30 24 N -1.988910 -0.848046 -1.334096 0
M  V30 25 N -0.877818 -1.444116 -0.725735 0
M  V30 26 C -0.018154 -2.338382 -1.425830 0
M  V30 27 C 0.995376 -3.026726 -0.792683 0
M  V30 28 C 1.854491 -3.893737 -1.408922 0
M  V30 29 C 1.729318 -4.123356 -2.765988 0
M  V30 30 C 0.724150 -3.447833 -3.423283 0
M  V30 31 C -0.142695 -2.567825 -2.779821 0
M  V30 32 C 0.608237 -1.198771 2.514170 0
M  V30 33 C 1.818915 -1.030393 3.144276 0
M  V30 34 C 4.416445 -2.576300 5.308375 0
M  V30 35 C 4.825120 -3.875751 5.513867 0
M  V30 36 H 6.176506 -5.434086 5.102902 0
M  V30 37 H 7.476360 -4.027332 3.550193 0
M  V30 38 H 6.868372 -1.752892 3.108240 0
M  V30 39 H 5.843954 0.243907 4.029820 0
M  V30 40 H 4.333608 0.159046 4.929498 0
M  V30 41 H 3.379015 0.595591 0.586004 0
M  V30 42 H 1.226096 0.238655 -0.397872 0
M  V30 43 H -1.567032 -1.537641 1.236671 0
M  V30 44 H -2.005185 0.838979 1.296095 0
M  V30 45 H -0.697838 1.135240 0.031513 0
M  V30 46 H -3.255072 2.494435 0.444481 0
M  V30 47 H -5.203531 3.865611 -0.297403 0
M  V30 48 H -4.021501 -0.188162 -2.820366 0
M  V30 49 H -8.054660 0.529835 -3.277371 0
M  V30 50 H -7.849128 1.534848 -4.772056 0
M  V30 51 H -8.581337 2.374707 -2.072500 0
M  V30 52 H -8.446540 3.342513 -3.564223 0
M  V30 53 H 1.182682 -2.927647 0.266975 0
M  V30 54 H 2.645010 -4.428321 -0.903362 0
M  V30 55 H 2.372891 -4.789694 -3.295433 0
M  V30 56 H 0.622918 -3.625997 -4.493342 0
M  V30 57 H -0.900287 -2.078645 -3.357581 0
M  V30 58 H -0.134077 -1.713050 3.110615 0
M  V30 59 H 2.080804 -1.346571 4.134520 0
M  V30 60 H 3.584312 -2.105675 5.767750 0
M  V30 61 H 4.178044 -4.408702 6.220243 0
M  V30 END ATOM
M  V30 BEGIN BOND
M  V30 1 2 1 2
M  V30 2 1 2 3
M  V30 3 2 3 4
M  V30 4 1 4 5
M  V30 5 1 5 6
M  V30 6 1 6 7
M  V30 7 2 7 8
M  V30 8 1 8 9
M  V30 9 2 9 10
M  V30 10 1 10 11
M  V30 11 1 11 12
M  V30 12 1 12 13
M  V30 13 1 13 14
M  V30 14 2 14 15
M  V30 15 1 15 16
M  V30 16 2 16 17
M  V30 17 1 17 18
M  V30 18 2 18 19
M  V30 19 1 18 20
M  V30 20 1 20 21
M  V30 21 1 21 22
M  V30 22 1 22 23
M  V30 23 2 13 24
M  V30 24 1 24 25
M  V30 25 1 25 26
M  V30 26 2 26 27
M  V30 27 1 27 28
M  V30 28 2 28 29
M  V30 29 1 29 30
M  V30 30 2 30 31
M  V30 31 1 10 32
M  V30 32 2 32 33
M  V30 33 1 4 34
M  V30 34 2 34 35
M  V30 35 1 35 1
M  V30 36 1 33 7
M  V30 37 1 25 11
M  V30 38 1 31 26
M  V30 39 1 19 14
M  V30 40 1 23 17
M  V30 41 1 1 36
M  V30 42 1 2 37
M  V30 43 1 3 38
M  V30 44 1 5 39
M  V30 45 1 5 40
M  V30 46 1 8 41
M  V30 47 1 9 42
M  V30 48 1 11 43
M  V30 49 1 12 44
M  V30 50 1 12 45
M  V30 51 1 15 46
M  V30 52 1 16 47
M  V30 53 1 19 48
M  V30 54 1 21 49
M  V30 55 1 21 50
M  V30 56 1 22 51
M  V30 57 1 22 52
M  V30 58 1 27 53
M  V30 59 1 28 54
M  V30 60 1 29 55
M  V30 61 1 30 56
M  V30 62 1 31 57
M  V30 63 1 32 58
M  V30 64 1 33 59
M  V30 65 1 34 60
M  V30 66 1 35 61
M  V30 END BOND
M  V30 END CTAB
M  END
>  <Dataset>  (456) 
ChEMBL_Kinases

>  <Ligand_Instance>  (456) 
nan

>  <PDB_ID>  (456) 
nan

>  <Standardized_SMILES>  (456) 
c1ccc(COc2ccc(C3CC(c4ccc5c(c4)OCCO5)=NN3c3ccccc3)cc2)cc1

>  <Name>  (456) 
nan

>  <Pocket>  (456) 
nan

>  <ATP_Site>  (456) 
nan

>  <Peripheral>  (456) 
nan

>  <Num_H_Atoms_ProtBoundConf>  (456) 
nan

>  <Num_Resolved_Atoms>  (456) 
nan

>  <Num_Not_Resolved_Atoms>  (456) 
nan

$$$$
CHEMBL497984
     RDKit          3D

  0  0  0  0  0  0  0  0  0  0999 V3000
M  V30 BEGIN CTAB
M  V30 COUNTS 46 48 0 0 0
M  V30 BEGIN ATOM
M  V30 1 C 2.868119 -2.547563 -1.783823 0
M  V30 2 C 2.229834 -1.904701 -0.582644 0
M  V30 3 C 0.946040 -2.650526 -0.282873 0
M  V30 4 C 3.145867 -1.991995 0.594548 0 CFG=1
M  V30 5 C 4.454655 -1.296327 0.342537 0
M  V30 6 O 5.059980 -1.774705 -0.807238 0
M  V30 7 N 2.564680 -1.455645 1.802670 0
M  V30 8 C 2.073335 -0.170917 2.155052 0
M  V30 9 C 2.939186 0.748317 2.709837 0
M  V30 10 C 2.398887 1.992558 3.036827 0
M  V30 11 C 1.050825 2.295976 2.815224 0
M  V30 12 N 0.305667 3.393895 3.037783 0
M  V30 13 C -0.966152 3.158963 2.635788 0
M  V30 14 C -0.969316 1.849608 2.149658 0
M  V30 15 C -2.101727 1.100217 1.592228 0
M  V30 16 C -1.928342 0.372958 0.433530 0
M  V30 17 C -2.971410 -0.342118 -0.115270 0
M  V30 18 C -4.229464 -0.341098 0.498223 0
M  V30 19 C -5.349085 -1.089243 -0.064481 0
M  V30 20 N -5.163490 -1.830185 -1.263742 0
M  V30 21 O -6.505327 -1.112778 0.473536 0
M  V30 22 C -4.430144 0.387301 1.671841 0
M  V30 23 C -3.351227 1.080474 2.170850 0
M  V30 24 N 0.275938 1.340373 2.269236 0
M  V30 25 N 0.761304 0.141188 1.945478 0
M  V30 26 H 2.067459 -3.005139 -2.436947 0
M  V30 27 H 3.403556 -1.857692 -2.448916 0
M  V30 28 H 3.537253 -3.405674 -1.492779 0
M  V30 29 H 1.945006 -0.865330 -0.840872 0
M  V30 30 H 1.176558 -3.452845 0.438180 0
M  V30 31 H 0.461813 -3.072162 -1.185507 0
M  V30 32 H 0.175197 -2.005249 0.208949 0
M  V30 33 H 3.332954 -3.057110 0.788828 0
M  V30 34 H 4.322263 -0.190103 0.245037 0
M  V30 35 H 5.177962 -1.457278 1.166083 0
M  V30 36 H 5.732297 -2.484214 -0.607018 0
M  V30 37 H 2.382554 -1.950502 2.715018 0
M  V30 38 H 3.991066 0.565336 2.902452 0
M  V30 39 H 2.976115 2.798911 3.478904 0
M  V30 40 H -1.866156 3.751397 2.632599 0
M  V30 41 H -0.977383 0.335429 -0.084680 0
M  V30 42 H -2.930740 -0.948521 -1.031654 0
M  V30 43 H -4.991984 -2.842142 -1.064750 0
M  V30 44 H -5.220238 -1.288042 -2.155586 0
M  V30 45 H -5.402998 0.390297 2.150569 0
M  V30 46 H -3.512889 1.640137 3.075214 0
M  V30 END ATOM
M  V30 BEGIN BOND
M  V30 1 1 1 2
M  V30 2 1 2 3
M  V30 3 1 2 4
M  V30 4 1 4 5
M  V30 5 1 5 6
M  V30 6 1 4 7
M  V30 7 1 7 8
M  V30 8 1 8 9
M  V30 9 2 9 10
M  V30 10 1 10 11
M  V30 11 2 11 12
M  V30 12 1 12 13
M  V30 13 2 13 14
M  V30 14 1 14 15
M  V30 15 2 15 16
M  V30 16 1 16 17
M  V30 17 2 17 18
M  V30 18 1 18 19
M  V30 19 1 19 20
M  V30 20 2 19 21
M  V30 21 1 18 22
M  V30 22 2 22 23
M  V30 23 1 14 24
M  V30 24 1 24 25
M  V30 25 2 25 8
M  V30 26 1 24 11
M  V30 27 1 23 15
M  V30 28 1 1 26
M  V30 29 1 1 27
M  V30 30 1 1 28
M  V30 31 1 2 29
M  V30 32 1 3 30
M  V30 33 1 3 31
M  V30 34 1 3 32
M  V30 35 1 4 33 CFG=1
M  V30 36 1 5 34
M  V30 37 1 5 35
M  V30 38 1 6 36
M  V30 39 1 7 37
M  V30 40 1 9 38
M  V30 41 1 10 39
M  V30 42 1 13 40
M  V30 43 1 16 41
M  V30 44 1 17 42
M  V30 45 1 20 43
M  V30 46 1 20 44
M  V30 47 1 22 45
M  V30 48 1 23 46
M  V30 END BOND
M  V30 END CTAB
M  END
>  <Dataset>  (457) 
ChEMBL_Kinases

>  <Ligand_Instance>  (457) 
nan

>  <PDB_ID>  (457) 
nan

>  <Standardized_SMILES>  (457) 
CC(C)[C@@H](CO)Nc1ccc2ncc(-c3ccc(C(N)=O)cc3)n2n1

>  <Name>  (457) 
nan

>  <Pocket>  (457) 
nan

>  <ATP_Site>  (457) 
nan

>  <Peripheral>  (457) 
nan

>  <Num_H_Atoms_ProtBoundConf>  (457) 
nan

>  <Num_Resolved_Atoms>  (457) 
nan

>  <Num_Not_Resolved_Atoms>  (457) 
nan

$$$$
CHEMBL497795
     RDKit          3D

  0  0  0  0  0  0  0  0  0  0999 V3000
M  V30 BEGIN CTAB
M  V30 COUNTS 40 42 0 0 0
M  V30 BEGIN ATOM
M  V30 1 C 0.689710 -5.023018 1.456296 0
M  V30 2 O 1.945374 -4.611328 1.725255 0
M  V30 3 C 2.189750 -3.411887 2.287590 0
M  V30 4 C 1.739079 -2.269334 1.464115 0 CFG=2
M  V30 5 C 0.269144 -2.093301 1.493865 0
M  V30 6 N 2.330482 -2.229165 0.122600 0
M  V30 7 C 1.958114 -1.158890 -0.756131 0
M  V30 8 C 2.464791 -1.047261 -2.026099 0
M  V30 9 C 2.037014 0.023058 -2.785117 0
M  V30 10 C 1.140924 0.979396 -2.353343 0
M  V30 11 N 0.551537 2.082223 -2.814347 0
M  V30 12 C -0.266430 2.614647 -1.884708 0
M  V30 13 C -0.188395 1.794108 -0.763052 0
M  V30 14 C -0.900818 1.964720 0.507534 0
M  V30 15 C -0.326945 1.835951 1.773751 0
M  V30 16 C -1.079825 2.015423 2.891485 0
M  V30 17 C -2.415940 2.326226 2.843943 0
M  V30 18 C -3.199207 2.513102 4.046493 0
M  V30 19 N -3.839107 2.654224 5.009804 0
M  V30 20 C -3.003411 2.458281 1.609579 0
M  V30 21 C -2.249824 2.278539 0.464466 0
M  V30 22 N 0.688234 0.804583 -1.100647 0
M  V30 23 N 1.081712 -0.212203 -0.351717 0
M  V30 24 H 0.041165 -5.082173 2.371568 0
M  V30 25 H 0.119117 -4.510562 0.683381 0
M  V30 26 H 0.798404 -6.093745 1.058937 0
M  V30 27 H 3.251632 -3.267853 2.607205 0
M  V30 28 H 1.573557 -3.364321 3.243910 0
M  V30 29 H 2.219972 -1.340756 1.953521 0
M  V30 30 H -0.039389 -1.053820 1.792029 0
M  V30 31 H -0.196206 -2.746442 2.243949 0
M  V30 32 H -0.173739 -2.195293 0.460988 0
M  V30 33 H 3.011017 -2.930847 -0.244625 0
M  V30 34 H 3.167503 -1.780121 -2.391586 0
M  V30 35 H 2.424125 0.137346 -3.800999 0
M  V30 36 H -0.894458 3.490884 -1.905951 0
M  V30 37 H 0.727319 1.590572 1.772680 0
M  V30 38 H -0.568929 1.900136 3.848398 0
M  V30 39 H -4.066453 2.705650 1.594711 0
M  V30 40 H -2.807120 2.404802 -0.443904 0
M  V30 END ATOM
M  V30 BEGIN BOND
M  V30 1 1 1 2
M  V30 2 1 2 3
M  V30 3 1 3 4
M  V30 4 1 4 5
M  V30 5 1 4 6
M  V30 6 1 6 7
M  V30 7 1 7 8
M  V30 8 2 8 9
M  V30 9 1 9 10
M  V30 10 2 10 11
M  V30 11 1 11 12
M  V30 12 2 12 13
M  V30 13 1 13 14
M  V30 14 2 14 15
M  V30 15 1 15 16
M  V30 16 2 16 17
M  V30 17 1 17 18
M  V30 18 3 18 19
M  V30 19 1 17 20
M  V30 20 2 20 21
M  V30 21 1 13 22
M  V30 22 1 22 23
M  V30 23 2 23 7
M  V30 24 1 22 10
M  V30 25 1 21 14
M  V30 26 1 1 24
M  V30 27 1 1 25
M  V30 28 1 1 26
M  V30 29 1 3 27
M  V30 30 1 3 28
M  V30 31 1 4 29 CFG=1
M  V30 32 1 5 30
M  V30 33 1 5 31
M  V30 34 1 5 32
M  V30 35 1 6 33
M  V30 36 1 8 34
M  V30 37 1 9 35
M  V30 38 1 12 36
M  V30 39 1 15 37
M  V30 40 1 16 38
M  V30 41 1 20 39
M  V30 42 1 21 40
M  V30 END BOND
M  V30 END CTAB
M  END
>  <Dataset>  (458) 
ChEMBL_Kinases

>  <Ligand_Instance>  (458) 
nan

>  <PDB_ID>  (458) 
nan

>  <Standardized_SMILES>  (458) 
COC[C@H](C)Nc1ccc2ncc(-c3ccc(C#N)cc3)n2n1

>  <Name>  (458) 
nan

>  <Pocket>  (458) 
nan

>  <ATP_Site>  (458) 
nan

>  <Peripheral>  (458) 
nan

>  <Num_H_Atoms_ProtBoundConf>  (458) 
nan

>  <Num_Resolved_Atoms>  (458) 
nan

>  <Num_Not_Resolved_Atoms>  (458) 
nan

$$$$
CHEMBL3814512
     RDKit          3D

  0  0  0  0  0  0  0  0  0  0999 V3000
M  V30 BEGIN CTAB
M  V30 COUNTS 23 23 0 0 0
M  V30 BEGIN ATOM
M  V30 1 C -0.785665 0.780059 4.170131 0
M  V30 2 S 0.795227 1.228928 3.398822 0
M  V30 3 C 0.910238 0.319121 1.859452 0
M  V30 4 N 1.441477 -0.912087 1.684419 0
M  V30 5 N 1.358497 -1.273035 0.420182 0
M  V30 6 C 1.849824 -2.531030 -0.019864 0
M  V30 7 N 1.770649 -2.941060 -1.379104 0
M  V30 8 O 2.369117 -3.310159 0.799650 0
M  V30 9 C 0.772511 -0.274890 -0.227008 0
M  V30 10 N 0.523802 -0.331969 -1.623774 0
M  V30 11 C 0.467676 0.765110 0.652025 0
M  V30 12 C -0.184100 2.029330 0.291667 0
M  V30 13 N -0.397265 2.954274 1.365937 0
M  V30 14 O -0.501424 2.209240 -0.899121 0
M  V30 15 H -0.917271 1.266828 5.151717 0
M  V30 16 H -1.568154 1.036448 3.424777 0
M  V30 17 H -0.772849 -0.337742 4.262273 0
M  V30 18 H 0.776216 -3.071212 -1.695346 0
M  V30 19 H 2.387366 -3.161946 -2.189479 0
M  V30 20 H 1.169615 0.275927 -2.195502 0
M  V30 21 H -0.177423 -0.861533 -2.194361 0
M  V30 22 H -1.385279 3.314457 1.283482 0
M  V30 23 H -1.388139 3.303783 1.268140 0
M  V30 END ATOM
M  V30 BEGIN BOND
M  V30 1 1 1 2
M  V30 2 1 2 3
M  V30 3 2 3 4
M  V30 4 1 4 5
M  V30 5 1 5 6
M  V30 6 1 6 7
M  V30 7 2 6 8
M  V30 8 1 5 9
M  V30 9 1 9 10
M  V30 10 2 9 11
M  V30 11 1 11 12
M  V30 12 1 12 13
M  V30 13 2 12 14
M  V30 14 1 11 3
M  V30 15 1 1 15
M  V30 16 1 1 16
M  V30 17 1 1 17
M  V30 18 1 7 18
M  V30 19 1 7 19
M  V30 20 1 10 20
M  V30 21 1 10 21
M  V30 22 1 13 22
M  V30 23 1 13 23
M  V30 END BOND
M  V30 END CTAB
M  END
>  <Dataset>  (459) 
ChEMBL_Kinases

>  <Ligand_Instance>  (459) 
nan

>  <PDB_ID>  (459) 
nan

>  <Standardized_SMILES>  (459) 
CSc1nn(C(N)=O)c(N)c1C(N)=O

>  <Name>  (459) 
nan

>  <Pocket>  (459) 
nan

>  <ATP_Site>  (459) 
nan

>  <Peripheral>  (459) 
nan

>  <Num_H_Atoms_ProtBoundConf>  (459) 
nan

>  <Num_Resolved_Atoms>  (459) 
nan

>  <Num_Not_Resolved_Atoms>  (459) 
nan

$$$$
CHEMBL495945
     RDKit          3D

  0  0  0  0  0  0  0  0  0  0999 V3000
M  V30 BEGIN CTAB
M  V30 COUNTS 47 50 0 0 0
M  V30 BEGIN ATOM
M  V30 1 C 2.924331 -5.724787 2.969038 0
M  V30 2 N 2.386706 -4.465952 2.580680 0
M  V30 3 C 2.120340 -3.539231 3.618651 0
M  V30 4 C 3.322601 -3.031484 4.273101 0
M  V30 5 N 4.268185 -2.626023 4.801278 0
M  V30 6 C 2.796061 -3.961051 1.323161 0
M  V30 7 C 2.153931 -2.648555 1.053378 0
M  V30 8 C 2.632489 -1.385654 1.334189 0
M  V30 9 C 1.915468 -0.249457 1.029446 0
M  V30 10 N 0.710845 -0.335591 0.441176 0
M  V30 11 C -0.171756 0.603042 0.052651 0
M  V30 12 C -0.095800 2.055711 0.153949 0
M  V30 13 C -0.124369 3.050587 -0.802970 0
M  V30 14 C -0.028070 4.368468 -0.419613 0
M  V30 15 N 0.093784 4.667793 0.892673 0
M  V30 16 C 0.123453 3.704341 1.837549 0
M  V30 17 N 0.257272 4.173192 3.173026 0
M  V30 18 N 0.029432 2.418450 1.464790 0
M  V30 19 C -1.274214 -0.002854 -0.502180 0
M  V30 20 C -2.538064 0.395386 -1.101543 0
M  V30 21 C -2.740170 1.048322 -2.318427 0
M  V30 22 C -4.047029 1.309760 -2.648147 0
M  V30 23 C -5.176841 1.010710 -1.933761 0
M  V30 24 F -6.394539 1.345895 -2.415501 0
M  V30 25 C -4.933593 0.356438 -0.719055 0
M  V30 26 C -3.649076 0.067824 -0.334628 0
M  V30 27 N -1.020887 -1.327090 -0.432030 0
M  V30 28 C 0.180753 -1.533904 0.138516 0
M  V30 29 C 0.898316 -2.673503 0.443260 0
M  V30 30 H 4.005224 -5.783665 3.095539 0
M  V30 31 H 2.603046 -6.530930 2.267309 0
M  V30 32 H 2.447846 -5.998019 3.948761 0
M  V30 33 H 1.463008 -2.741514 3.274808 0
M  V30 34 H 1.551151 -4.099159 4.413943 0
M  V30 35 H 3.895321 -3.908351 1.182178 0
M  V30 36 H 2.451352 -4.678851 0.527842 0
M  V30 37 H 3.619275 -1.380386 1.814676 0
M  V30 38 H 2.325915 0.720941 1.265733 0
M  V30 39 H -0.222815 2.641175 -1.781620 0
M  V30 40 H -0.060046 5.073586 -1.238713 0
M  V30 41 H 1.274747 3.917412 3.287003 0
M  V30 42 H -0.318468 4.619351 3.899930 0
M  V30 43 H -1.847726 1.272517 -2.863452 0
M  V30 44 H -4.176872 1.815854 -3.598419 0
M  V30 45 H -5.837488 0.120049 -0.151507 0
M  V30 46 H -3.646167 -0.443405 0.640404 0
M  V30 47 H 0.443222 -3.631658 0.184524 0
M  V30 END ATOM
M  V30 BEGIN BOND
M  V30 1 1 1 2
M  V30 2 1 2 3
M  V30 3 1 3 4
M  V30 4 3 4 5
M  V30 5 1 2 6
M  V30 6 1 6 7
M  V30 7 1 7 8
M  V30 8 2 8 9
M  V30 9 1 9 10
M  V30 10 1 10 11
M  V30 11 1 11 12
M  V30 12 2 12 13
M  V30 13 1 13 14
M  V30 14 2 14 15
M  V30 15 1 15 16
M  V30 16 1 16 17
M  V30 17 2 16 18
M  V30 18 2 11 19
M  V30 19 1 19 20
M  V30 20 2 20 21
M  V30 21 1 21 22
M  V30 22 2 22 23
M  V30 23 1 23 24
M  V30 24 1 23 25
M  V30 25 2 25 26
M  V30 26 1 19 27
M  V30 27 2 27 28
M  V30 28 1 28 29
M  V30 29 2 29 7
M  V30 30 1 28 10
M  V30 31 1 18 12
M  V30 32 1 26 20
M  V30 33 1 1 30
M  V30 34 1 1 31
M  V30 35 1 1 32
M  V30 36 1 3 33
M  V30 37 1 3 34
M  V30 38 1 6 35
M  V30 39 1 6 36
M  V30 40 1 8 37
M  V30 41 1 9 38
M  V30 42 1 13 39
M  V30 43 1 14 40
M  V30 44 1 17 41
M  V30 45 1 17 42
M  V30 46 1 21 43
M  V30 47 1 22 44
M  V30 48 1 25 45
M  V30 49 1 26 46
M  V30 50 1 29 47
M  V30 END BOND
M  V30 END CTAB
M  END
>  <Dataset>  (460) 
ChEMBL_Kinases

>  <Ligand_Instance>  (460) 
nan

>  <PDB_ID>  (460) 
nan

>  <Standardized_SMILES>  (460) 
CN(CC#N)Cc1ccn2c(-c3ccnc(N)n3)c(-c3ccc(F)cc3)nc2c1

>  <Name>  (460) 
nan

>  <Pocket>  (460) 
nan

>  <ATP_Site>  (460) 
nan

>  <Peripheral>  (460) 
nan

>  <Num_H_Atoms_ProtBoundConf>  (460) 
nan

>  <Num_Resolved_Atoms>  (460) 
nan

>  <Num_Not_Resolved_Atoms>  (460) 
nan

$$$$
CHEMBL3814391
     RDKit          3D

  0  0  0  0  0  0  0  0  0  0999 V3000
M  V30 BEGIN CTAB
M  V30 COUNTS 31 33 0 0 0
M  V30 BEGIN ATOM
M  V30 1 C -3.589932 -2.681276 3.088304 0
M  V30 2 C -2.498484 -3.094169 2.103401 0
M  V30 3 C -1.674841 -1.879882 1.799984 0
M  V30 4 C -0.609095 -1.946319 0.935369 0
M  V30 5 C 0.163396 -0.826890 0.645200 0
M  V30 6 C 1.284750 -0.958532 -0.282345 0
M  V30 7 C 1.692643 -2.102598 -0.935693 0
M  V30 8 N 2.768939 -1.794316 -1.700722 0
M  V30 9 C 3.023422 -0.469960 -1.520911 0
M  V30 10 N 3.990942 0.273756 -2.074152 0
M  V30 11 C 4.090602 1.582084 -1.776141 0
M  V30 12 C 3.195373 2.191240 -0.890338 0
M  V30 13 C 2.182278 1.420482 -0.308733 0
M  V30 14 C 2.118873 0.086854 -0.642798 0
M  V30 15 N -0.171808 0.332700 1.245355 0
M  V30 16 C -1.209409 0.420850 2.093902 0
M  V30 17 N -1.506046 1.675809 2.690940 0
M  V30 18 N -1.953946 -0.674001 2.368977 0
M  V30 19 H -3.921486 -3.592590 3.619358 0
M  V30 20 H -3.199329 -1.977375 3.844893 0
M  V30 21 H -4.437108 -2.272113 2.506339 0
M  V30 22 H -1.909340 -3.904946 2.543324 0
M  V30 23 H -3.027557 -3.447331 1.195649 0
M  V30 24 H -0.386578 -2.897739 0.484609 0
M  V30 25 H 1.224166 -3.061242 -0.840320 0
M  V30 26 H 3.243583 -2.506526 -2.282553 0
M  V30 27 H 4.901223 2.140951 -2.258179 0
M  V30 28 H 3.288106 3.238158 -0.662188 0
M  V30 29 H 1.473597 1.834702 0.372886 0
M  V30 30 H -1.320520 2.159618 3.588000 0
M  V30 31 H -2.071779 2.206289 1.964046 0
M  V30 END ATOM
M  V30 BEGIN BOND
M  V30 1 1 1 2
M  V30 2 1 2 3
M  V30 3 2 3 4
M  V30 4 1 4 5
M  V30 5 1 5 6
M  V30 6 2 6 7
M  V30 7 1 7 8
M  V30 8 1 8 9
M  V30 9 2 9 10
M  V30 10 1 10 11
M  V30 11 2 11 12
M  V30 12 1 12 13
M  V30 13 2 13 14
M  V30 14 2 5 15
M  V30 15 1 15 16
M  V30 16 1 16 17
M  V30 17 2 16 18
M  V30 18 1 18 3
M  V30 19 1 14 6
M  V30 20 1 14 9
M  V30 21 1 1 19
M  V30 22 1 1 20
M  V30 23 1 1 21
M  V30 24 1 2 22
M  V30 25 1 2 23
M  V30 26 1 4 24
M  V30 27 1 7 25
M  V30 28 1 8 26
M  V30 29 1 11 27
M  V30 30 1 12 28
M  V30 31 1 13 29
M  V30 32 1 17 30
M  V30 33 1 17 31
M  V30 END BOND
M  V30 END CTAB
M  END
>  <Dataset>  (461) 
ChEMBL_Kinases

>  <Ligand_Instance>  (461) 
nan

>  <PDB_ID>  (461) 
nan

>  <Standardized_SMILES>  (461) 
CCc1cc(-c2c[nH]c3ncccc23)nc(N)n1

>  <Name>  (461) 
nan

>  <Pocket>  (461) 
nan

>  <ATP_Site>  (461) 
nan

>  <Peripheral>  (461) 
nan

>  <Num_H_Atoms_ProtBoundConf>  (461) 
nan

>  <Num_Resolved_Atoms>  (461) 
nan

>  <Num_Not_Resolved_Atoms>  (461) 
nan

$$$$
CHEMBL381436
     RDKit          3D

  0  0  0  0  0  0  0  0  0  0999 V3000
M  V30 BEGIN CTAB
M  V30 COUNTS 43 46 0 0 0
M  V30 BEGIN ATOM
M  V30 1 N 0.329017 -9.123155 1.764973 0
M  V30 2 C 1.150302 -7.972311 1.925553 0
M  V30 3 O 2.149553 -8.392583 2.563977 0
M  V30 4 C 0.747241 -6.674768 1.393514 0
M  V30 5 C -0.456072 -6.578634 0.724490 0
M  V30 6 C -0.758892 -5.316541 0.254863 0
M  V30 7 C 0.049099 -4.209186 0.418893 0
M  V30 8 N -0.084118 -2.923198 0.034452 0
M  V30 9 C 1.004554 -2.251323 0.455059 0
M  V30 10 C 1.215412 -0.819512 0.219752 0
M  V30 11 C 0.230381 -0.140328 -0.473996 0
M  V30 12 C 0.433948 1.228654 -0.697928 0
M  V30 13 C 1.582351 1.870204 -0.237935 0
M  V30 14 O 1.631557 3.239433 -0.544743 0
M  V30 15 C 1.099380 4.191462 0.337285 0
M  V30 16 C 1.806451 4.816369 1.364259 0
M  V30 17 C 1.159013 5.737163 2.161059 0
M  V30 18 C -0.172815 6.076454 1.991007 0
M  V30 19 C -0.844022 5.441555 0.967616 0
M  V30 20 C -2.265243 5.789540 0.769765 0
M  V30 21 O -2.808692 6.627978 1.514821 0
M  V30 22 O -3.015203 5.202626 -0.231174 0
M  V30 23 C -0.240635 4.520468 0.151792 0
M  V30 24 C 2.545558 1.157831 0.452181 0
M  V30 25 C 2.357830 -0.193398 0.680291 0
M  V30 26 N 1.807714 -3.121260 1.097701 0
M  V30 27 C 1.246251 -4.353177 1.096258 0
M  V30 28 C 1.609265 -5.604362 1.595526 0
M  V30 29 H -0.455015 -9.272155 2.431314 0
M  V30 30 H -0.448946 -9.207250 2.481180 0
M  V30 31 H -1.109287 -7.429564 0.581099 0
M  V30 32 H -1.715904 -5.230017 -0.279674 0
M  V30 33 H -0.931143 -2.590951 -0.500869 0
M  V30 34 H -0.682497 -0.595675 -0.852947 0
M  V30 35 H -0.353902 1.750554 -1.247614 0
M  V30 36 H 2.839998 4.529767 1.469118 0
M  V30 37 H 1.735087 6.214188 2.960406 0
M  V30 38 H -0.617085 6.810511 2.656695 0
M  V30 39 H -4.006673 4.995672 -0.046952 0
M  V30 40 H -0.861816 4.083731 -0.619816 0
M  V30 41 H 3.404433 1.733239 0.772934 0
M  V30 42 H 3.124455 -0.731163 1.222450 0
M  V30 43 H 2.544074 -5.666267 2.112158 0
M  V30 END ATOM
M  V30 BEGIN BOND
M  V30 1 1 1 2
M  V30 2 2 2 3
M  V30 3 1 2 4
M  V30 4 2 4 5
M  V30 5 1 5 6
M  V30 6 2 6 7
M  V30 7 1 7 8
M  V30 8 1 8 9
M  V30 9 1 9 10
M  V30 10 2 10 11
M  V30 11 1 11 12
M  V30 12 2 12 13
M  V30 13 1 13 14
M  V30 14 1 14 15
M  V30 15 2 15 16
M  V30 16 1 16 17
M  V30 17 2 17 18
M  V30 18 1 18 19
M  V30 19 1 19 20
M  V30 20 2 20 21
M  V30 21 1 20 22
M  V30 22 2 19 23
M  V30 23 1 13 24
M  V30 24 2 24 25
M  V30 25 2 9 26
M  V30 26 1 26 27
M  V30 27 2 27 28
M  V30 28 1 28 4
M  V30 29 1 27 7
M  V30 30 1 25 10
M  V30 31 1 23 15
M  V30 32 1 1 29
M  V30 33 1 1 30
M  V30 34 1 5 31
M  V30 35 1 6 32
M  V30 36 1 8 33
M  V30 37 1 11 34
M  V30 38 1 12 35
M  V30 39 1 16 36
M  V30 40 1 17 37
M  V30 41 1 18 38
M  V30 42 1 22 39
M  V30 43 1 23 40
M  V30 44 1 24 41
M  V30 45 1 25 42
M  V30 46 1 28 43
M  V30 END BOND
M  V30 END CTAB
M  END
>  <Dataset>  (462) 
ChEMBL_Kinases

>  <Ligand_Instance>  (462) 
nan

>  <PDB_ID>  (462) 
nan

>  <Standardized_SMILES>  (462) 
NC(=O)c1ccc2[nH]c(-c3ccc(Oc4cccc(C(=O)O)c4)cc3)nc2c1

>  <Name>  (462) 
nan

>  <Pocket>  (462) 
nan

>  <ATP_Site>  (462) 
nan

>  <Peripheral>  (462) 
nan

>  <Num_H_Atoms_ProtBoundConf>  (462) 
nan

>  <Num_Resolved_Atoms>  (462) 
nan

>  <Num_Not_Resolved_Atoms>  (462) 
nan

$$$$
CHEMBL3814357
     RDKit          3D

  0  0  0  0  0  0  0  0  0  0999 V3000
M  V30 BEGIN CTAB
M  V30 COUNTS 40 43 0 0 0
M  V30 BEGIN ATOM
M  V30 1 C -1.996883 -5.288719 3.253929 0
M  V30 2 C -0.566876 -5.292799 2.756795 0
M  V30 3 C -0.219526 -3.891509 2.380172 0
M  V30 4 C -0.432043 -3.409144 1.104994 0
M  V30 5 C -0.096588 -2.106402 0.801263 0
M  V30 6 C -0.314750 -1.574286 -0.544861 0
M  V30 7 C -0.852053 -2.304753 -1.605703 0
M  V30 8 N -0.871902 -1.427927 -2.640722 0
M  V30 9 C -0.384775 -0.231458 -2.267484 0
M  V30 10 N -0.192474 0.949320 -2.897817 0
M  V30 11 C 0.336071 2.013435 -2.232358 0
M  V30 12 C 0.707032 1.977416 -0.904453 0
M  V30 13 C 1.263193 3.173471 -0.282630 0
M  V30 14 C 2.011409 4.054924 -1.034887 0
M  V30 15 C 2.513149 5.182351 -0.372882 0
M  V30 16 C 2.204993 5.292937 0.967368 0
M  V30 17 N 1.463459 4.406462 1.684724 0
M  V30 18 C 0.962497 3.301234 1.067935 0
M  V30 19 C 0.520058 0.768459 -0.224424 0
M  V30 20 C -0.018308 -0.283194 -0.937986 0
M  V30 21 N 0.426421 -1.397401 1.811118 0
M  V30 22 C 0.645115 -1.824298 3.045426 0
M  V30 23 N 1.216106 -0.952915 4.037731 0
M  V30 24 N 0.315565 -3.096704 3.335859 0
M  V30 25 H -2.238169 -4.273205 3.631874 0
M  V30 26 H -2.698663 -5.486633 2.407785 0
M  V30 27 H -2.135791 -6.021534 4.075875 0
M  V30 28 H -0.489182 -5.934728 1.847662 0
M  V30 29 H 0.092869 -5.626489 3.571918 0
M  V30 30 H -0.863531 -4.082683 0.370354 0
M  V30 31 H -1.170018 -3.341894 -1.566179 0
M  V30 32 H -1.229583 -1.696452 -3.586954 0
M  V30 33 H 0.438509 2.887914 -2.838195 0
M  V30 34 H 2.205987 3.896493 -2.073894 0
M  V30 35 H 3.101453 5.915400 -0.878856 0
M  V30 36 H 2.544629 6.128143 1.571584 0
M  V30 37 H 0.380873 2.595296 1.607619 0
M  V30 38 H 0.801332 0.723284 0.800000 0
M  V30 39 H 0.620429 -0.374183 4.663071 0
M  V30 40 H 2.203445 -1.195673 3.801057 0
M  V30 END ATOM
M  V30 BEGIN BOND
M  V30 1 1 1 2
M  V30 2 1 2 3
M  V30 3 2 3 4
M  V30 4 1 4 5
M  V30 5 1 5 6
M  V30 6 2 6 7
M  V30 7 1 7 8
M  V30 8 1 8 9
M  V30 9 2 9 10
M  V30 10 1 10 11
M  V30 11 2 11 12
M  V30 12 1 12 13
M  V30 13 2 13 14
M  V30 14 1 14 15
M  V30 15 2 15 16
M  V30 16 1 16 17
M  V30 17 2 17 18
M  V30 18 1 12 19
M  V30 19 2 19 20
M  V30 20 2 5 21
M  V30 21 1 21 22
M  V30 22 1 22 23
M  V30 23 2 22 24
M  V30 24 1 24 3
M  V30 25 1 20 6
M  V30 26 1 20 9
M  V30 27 1 18 13
M  V30 28 1 1 25
M  V30 29 1 1 26
M  V30 30 1 1 27
M  V30 31 1 2 28
M  V30 32 1 2 29
M  V30 33 1 4 30
M  V30 34 1 7 31
M  V30 35 1 8 32
M  V30 36 1 11 33
M  V30 37 1 14 34
M  V30 38 1 15 35
M  V30 39 1 16 36
M  V30 40 1 18 37
M  V30 41 1 19 38
M  V30 42 1 23 39
M  V30 43 1 23 40
M  V30 END BOND
M  V30 END CTAB
M  END
>  <Dataset>  (463) 
ChEMBL_Kinases

>  <Ligand_Instance>  (463) 
nan

>  <PDB_ID>  (463) 
nan

>  <Standardized_SMILES>  (463) 
CCc1cc(-c2c[nH]c3ncc(-c4cccnc4)cc23)nc(N)n1

>  <Name>  (463) 
nan

>  <Pocket>  (463) 
nan

>  <ATP_Site>  (463) 
nan

>  <Peripheral>  (463) 
nan

>  <Num_H_Atoms_ProtBoundConf>  (463) 
nan

>  <Num_Resolved_Atoms>  (463) 
nan

>  <Num_Not_Resolved_Atoms>  (463) 
nan

$$$$
CHEMBL3814350
     RDKit          3D

  0  0  0  0  0  0  0  0  0  0999 V3000
M  V30 BEGIN CTAB
M  V30 COUNTS 34 36 0 0 0
M  V30 BEGIN ATOM
M  V30 1 C -2.159528 -4.022546 2.049963 0
M  V30 2 C -0.699499 -4.182598 2.470491 0
M  V30 3 C 0.113591 -4.047153 1.180712 0
M  V30 4 C -0.142676 -2.694678 0.575748 0
M  V30 5 C 0.648748 -1.604034 0.912572 0
M  V30 6 C 0.353733 -0.391681 0.316393 0
M  V30 7 C 1.188980 0.750495 0.674480 0
M  V30 8 C 2.262001 0.800413 1.546485 0
M  V30 9 N 2.729832 2.063642 1.565864 0
M  V30 10 C 2.027382 2.871784 0.750638 0
M  V30 11 N 2.092566 4.178200 0.424810 0
M  V30 12 C 1.198451 4.695707 -0.464294 0
M  V30 13 C 0.220812 3.907627 -1.042962 0
M  V30 14 C 0.159937 2.561958 -0.702165 0
M  V30 15 C 1.066383 2.039940 0.198437 0
M  V30 16 N -0.669323 -0.309020 -0.552896 0
M  V30 17 C -1.440293 -1.354379 -0.885986 0
M  V30 18 N -2.501240 -1.168660 -1.816530 0
M  V30 19 N -1.164988 -2.560102 -0.308017 0
M  V30 20 H -2.387138 -2.923339 1.987484 0
M  V30 21 H -2.330756 -4.452841 1.041756 0
M  V30 22 H -2.804850 -4.546018 2.787023 0
M  V30 23 H -0.408162 -3.439981 3.218133 0
M  V30 24 H -0.518783 -5.210037 2.847573 0
M  V30 25 H -0.295700 -4.816857 0.486054 0
M  V30 26 H 1.177516 -4.186483 1.411395 0
M  V30 27 H 1.449899 -1.775885 1.624447 0
M  V30 28 H 2.645458 -0.033197 2.105564 0
M  V30 29 H 3.544623 2.455446 2.125162 0
M  V30 30 H 1.228089 5.754747 -0.747588 0
M  V30 31 H -0.480996 4.356603 -1.753268 0
M  V30 32 H -0.631113 2.019406 -1.198040 0
M  V30 33 H -1.961609 -1.369441 -2.705915 0
M  V30 34 H -3.512953 -0.910525 -1.665280 0
M  V30 END ATOM
M  V30 BEGIN BOND
M  V30 1 1 1 2
M  V30 2 1 2 3
M  V30 3 1 3 4
M  V30 4 2 4 5
M  V30 5 1 5 6
M  V30 6 1 6 7
M  V30 7 2 7 8
M  V30 8 1 8 9
M  V30 9 1 9 10
M  V30 10 2 10 11
M  V30 11 1 11 12
M  V30 12 2 12 13
M  V30 13 1 13 14
M  V30 14 2 14 15
M  V30 15 2 6 16
M  V30 16 1 16 17
M  V30 17 1 17 18
M  V30 18 2 17 19
M  V30 19 1 19 4
M  V30 20 1 15 7
M  V30 21 1 15 10
M  V30 22 1 1 20
M  V30 23 1 1 21
M  V30 24 1 1 22
M  V30 25 1 2 23
M  V30 26 1 2 24
M  V30 27 1 3 25
M  V30 28 1 3 26
M  V30 29 1 5 27
M  V30 30 1 8 28
M  V30 31 1 9 29
M  V30 32 1 12 30
M  V30 33 1 13 31
M  V30 34 1 14 32
M  V30 35 1 18 33
M  V30 36 1 18 34
M  V30 END BOND
M  V30 END CTAB
M  END
>  <Dataset>  (464) 
ChEMBL_Kinases

>  <Ligand_Instance>  (464) 
nan

>  <PDB_ID>  (464) 
nan

>  <Standardized_SMILES>  (464) 
CCCc1cc(-c2c[nH]c3ncccc23)nc(N)n1

>  <Name>  (464) 
nan

>  <Pocket>  (464) 
nan

>  <ATP_Site>  (464) 
nan

>  <Peripheral>  (464) 
nan

>  <Num_H_Atoms_ProtBoundConf>  (464) 
nan

>  <Num_Resolved_Atoms>  (464) 
nan

>  <Num_Not_Resolved_Atoms>  (464) 
nan

$$$$
CHEMBL3814343
     RDKit          3D

  0  0  0  0  0  0  0  0  0  0999 V3000
M  V30 BEGIN CTAB
M  V30 COUNTS 47 50 0 0 0
M  V30 BEGIN ATOM
M  V30 1 C -1.355915 -4.319266 3.461338 0
M  V30 2 C -1.247996 -4.516380 1.980921 0
M  V30 3 C -2.118088 -3.651419 1.182646 0
M  V30 4 C -1.736971 -2.420821 0.730042 0
M  V30 5 C -2.444792 -1.526613 -0.014093 0
M  V30 6 C -2.096180 -0.228313 -0.525638 0
M  V30 7 C -2.977027 0.460190 -1.361650 0
M  V30 8 N -2.444764 1.642047 -1.705823 0
M  V30 9 C -1.244359 1.815921 -1.157225 0
M  V30 10 N -0.294073 2.765286 -1.150382 0
M  V30 11 C 0.860373 2.656601 -0.471219 0
M  V30 12 C 1.064350 1.499892 0.253605 0
M  V30 13 C 2.342198 1.446471 0.970206 0
M  V30 14 C 2.443892 1.931931 2.279674 0
M  V30 15 C 1.413547 2.548038 3.167481 0
M  V30 16 N 3.720404 1.753949 2.676772 0
M  V30 17 N 4.425446 1.192302 1.711085 0
M  V30 18 C 5.833822 0.841296 1.753658 0
M  V30 19 C 3.609669 0.994184 0.659725 0
M  V30 20 C 3.893128 0.402622 -0.663913 0
M  V30 21 C 0.106296 0.513126 0.262289 0
M  V30 22 C -1.058766 0.658766 -0.442841 0
M  V30 23 N -3.665916 -2.010065 -0.288738 0
M  V30 24 C -4.147415 -3.188215 0.095231 0
M  V30 25 N -5.472638 -3.544618 -0.286443 0
M  V30 26 N -3.384985 -4.015941 0.829681 0
M  V30 27 H -1.433564 -5.274160 4.022901 0
M  V30 28 H -0.422132 -3.825820 3.850171 0
M  V30 29 H -2.191915 -3.659618 3.774036 0
M  V30 30 H -1.479731 -5.599651 1.791759 0
M  V30 31 H -0.179151 -4.415395 1.671710 0
M  V30 32 H -0.740401 -2.164946 1.013416 0
M  V30 33 H -3.973040 0.208735 -1.759684 0
M  V30 34 H -2.864841 2.383095 -2.324418 0
M  V30 35 H 1.574056 3.472581 -0.520953 0
M  V30 36 H 1.526137 2.156654 4.182648 0
M  V30 37 H 1.545360 3.640094 3.191269 0
M  V30 38 H 0.395809 2.279902 2.816271 0
M  V30 39 H 6.008593 -0.184809 2.154000 0
M  V30 40 H 6.226969 0.806005 0.713723 0
M  V30 41 H 6.390146 1.608303 2.328919 0
M  V30 42 H 3.465052 -0.635799 -0.632572 0
M  V30 43 H 4.991065 0.286538 -0.826534 0
M  V30 44 H 3.406405 0.974352 -1.471874 0
M  V30 45 H 0.338600 -0.335362 0.844805 0
M  V30 46 H -5.962186 -3.713704 -1.205149 0
M  V30 47 H -6.054382 -3.652236 0.560769 0
M  V30 END ATOM
M  V30 BEGIN BOND
M  V30 1 1 1 2
M  V30 2 1 2 3
M  V30 3 2 3 4
M  V30 4 1 4 5
M  V30 5 1 5 6
M  V30 6 2 6 7
M  V30 7 1 7 8
M  V30 8 1 8 9
M  V30 9 2 9 10
M  V30 10 1 10 11
M  V30 11 2 11 12
M  V30 12 1 12 13
M  V30 13 1 13 14
M  V30 14 1 14 15
M  V30 15 2 14 16
M  V30 16 1 16 17
M  V30 17 1 17 18
M  V30 18 1 17 19
M  V30 19 1 19 20
M  V30 20 1 12 21
M  V30 21 2 21 22
M  V30 22 2 5 23
M  V30 23 1 23 24
M  V30 24 1 24 25
M  V30 25 2 24 26
M  V30 26 1 26 3
M  V30 27 1 22 6
M  V30 28 1 22 9
M  V30 29 2 19 13
M  V30 30 1 1 27
M  V30 31 1 1 28
M  V30 32 1 1 29
M  V30 33 1 2 30
M  V30 34 1 2 31
M  V30 35 1 4 32
M  V30 36 1 7 33
M  V30 37 1 8 34
M  V30 38 1 11 35
M  V30 39 1 15 36
M  V30 40 1 15 37
M  V30 41 1 15 38
M  V30 42 1 18 39
M  V30 43 1 18 40
M  V30 44 1 18 41
M  V30 45 1 20 42
M  V30 46 1 20 43
M  V30 47 1 20 44
M  V30 48 1 21 45
M  V30 49 1 25 46
M  V30 50 1 25 47
M  V30 END BOND
M  V30 END CTAB
M  END
>  <Dataset>  (465) 
ChEMBL_Kinases

>  <Ligand_Instance>  (465) 
nan

>  <PDB_ID>  (465) 
nan

>  <Standardized_SMILES>  (465) 
CCc1cc(-c2c[nH]c3ncc(-c4c(C)nn(C)c4C)cc23)nc(N)n1

>  <Name>  (465) 
nan

>  <Pocket>  (465) 
nan

>  <ATP_Site>  (465) 
nan

>  <Peripheral>  (465) 
nan

>  <Num_H_Atoms_ProtBoundConf>  (465) 
nan

>  <Num_Resolved_Atoms>  (465) 
nan

>  <Num_Not_Resolved_Atoms>  (465) 
nan

$$$$
CHEMBL3814340
     RDKit          3D

  0  0  0  0  0  0  0  0  0  0999 V3000
M  V30 BEGIN CTAB
M  V30 COUNTS 37 39 0 0 0
M  V30 BEGIN ATOM
M  V30 1 C -1.815156 -2.123393 4.567659 0
M  V30 2 C -1.767403 -3.327627 3.681974 0
M  V30 3 C -1.228119 -3.051847 2.293524 0
M  V30 4 C 0.178753 -2.523393 2.448154 0
M  V30 5 C 0.816940 -2.214504 1.149864 0
M  V30 6 C 0.718347 -0.983598 0.567801 0
M  V30 7 C 1.256907 -0.579882 -0.615246 0
M  V30 8 C 1.200036 0.685739 -1.299225 0
M  V30 9 C 1.809282 0.845260 -2.540979 0
M  V30 10 N 1.629301 2.099393 -2.981511 0
M  V30 11 C 0.920414 2.821803 -2.099738 0
M  V30 12 N 0.470906 4.079506 -2.033833 0
M  V30 13 C -0.237924 4.544135 -0.988680 0
M  V30 14 C -0.500682 3.661939 0.052388 0
M  V30 15 C -0.041506 2.376730 -0.014770 0
M  V30 16 C 0.674590 1.928725 -1.084333 0
M  V30 17 N 1.937812 -1.576146 -1.189248 0
M  V30 18 C 2.083388 -2.806237 -0.689438 0
M  V30 19 N 2.851885 -3.749256 -1.448064 0
M  V30 20 N 1.527844 -3.147752 0.485350 0
M  V30 21 H -0.960347 -2.023862 5.265703 0
M  V30 22 H -2.713695 -2.200726 5.247570 0
M  V30 23 H -1.985891 -1.176047 3.991738 0
M  V30 24 H -2.812871 -3.711782 3.573385 0
M  V30 25 H -1.130860 -4.082261 4.201476 0
M  V30 26 H -1.897784 -2.378208 1.759068 0
M  V30 27 H -1.198847 -4.033548 1.775608 0
M  V30 28 H 0.756049 -3.248872 3.043251 0
M  V30 29 H 0.072067 -1.581984 3.044928 0
M  V30 30 H 0.146350 -0.289993 1.130924 0
M  V30 31 H 2.379254 0.158842 -3.184334 0
M  V30 32 H 1.964954 2.530624 -3.879038 0
M  V30 33 H -0.544546 5.586804 -1.058322 0
M  V30 34 H -1.068037 4.059119 0.873448 0
M  V30 35 H -0.278201 1.770472 0.810823 0
M  V30 36 H 2.808085 -3.965631 -2.461503 0
M  V30 37 H 3.576350 -4.328965 -0.953404 0
M  V30 END ATOM
M  V30 BEGIN BOND
M  V30 1 1 1 2
M  V30 2 1 2 3
M  V30 3 1 3 4
M  V30 4 1 4 5
M  V30 5 2 5 6
M  V30 6 1 6 7
M  V30 7 1 7 8
M  V30 8 2 8 9
M  V30 9 1 9 10
M  V30 10 1 10 11
M  V30 11 2 11 12
M  V30 12 1 12 13
M  V30 13 2 13 14
M  V30 14 1 14 15
M  V30 15 2 15 16
M  V30 16 2 7 17
M  V30 17 1 17 18
M  V30 18 1 18 19
M  V30 19 2 18 20
M  V30 20 1 20 5
M  V30 21 1 16 8
M  V30 22 1 16 11
M  V30 23 1 1 21
M  V30 24 1 1 22
M  V30 25 1 1 23
M  V30 26 1 2 24
M  V30 27 1 2 25
M  V30 28 1 3 26
M  V30 29 1 3 27
M  V30 30 1 4 28
M  V30 31 1 4 29
M  V30 32 1 6 30
M  V30 33 1 9 31
M  V30 34 1 10 32
M  V30 35 1 13 33
M  V30 36 1 14 34
M  V30 37 1 15 35
M  V30 38 1 19 36
M  V30 39 1 19 37
M  V30 END BOND
M  V30 END CTAB
M  END
>  <Dataset>  (466) 
ChEMBL_Kinases

>  <Ligand_Instance>  (466) 
nan

>  <PDB_ID>  (466) 
nan

>  <Standardized_SMILES>  (466) 
CCCCc1cc(-c2c[nH]c3ncccc23)nc(N)n1

>  <Name>  (466) 
nan

>  <Pocket>  (466) 
nan

>  <ATP_Site>  (466) 
nan

>  <Peripheral>  (466) 
nan

>  <Num_H_Atoms_ProtBoundConf>  (466) 
nan

>  <Num_Resolved_Atoms>  (466) 
nan

>  <Num_Not_Resolved_Atoms>  (466) 
nan

$$$$
CHEMBL3814317
     RDKit          3D

  0  0  0  0  0  0  0  0  0  0999 V3000
M  V30 BEGIN CTAB
M  V30 COUNTS 38 41 0 0 0
M  V30 BEGIN ATOM
M  V30 1 C -1.618060 -5.408145 2.763302 0
M  V30 2 C -0.199136 -4.947621 3.035758 0
M  V30 3 C -0.102571 -3.538939 2.561628 0
M  V30 4 C 0.275091 -3.223522 1.256215 0
M  V30 5 C 0.337828 -1.891666 0.904139 0
M  V30 6 C 0.730139 -1.529513 -0.455565 0
M  V30 7 C 1.069680 -2.349047 -1.512743 0
M  V30 8 N 1.369312 -1.615084 -2.599584 0
M  V30 9 C 1.231255 -0.296388 -2.273837 0
M  V30 10 N 1.416467 0.824367 -3.016126 0
M  V30 11 C 1.220527 2.046293 -2.485188 0
M  V30 12 C 0.823268 2.159715 -1.158996 0
M  V30 13 C 0.616112 3.492998 -0.602059 0
M  V30 14 C 0.216887 3.725615 0.718315 0
M  V30 15 C 0.141455 5.110292 0.826041 0
M  V30 16 C 0.492495 5.637977 -0.412374 0
M  V30 17 O 0.763873 4.616332 -1.218613 0
M  V30 18 C 0.635457 1.020444 -0.406005 0
M  V30 19 C 0.836986 -0.244329 -0.951233 0
M  V30 20 N 0.037602 -0.943123 1.815136 0
M  V30 21 C -0.323318 -1.244386 3.062659 0
M  V30 22 N -0.621874 -0.196257 3.957494 0
M  V30 23 N -0.390880 -2.529236 3.426024 0
M  V30 24 H -1.746913 -5.312719 1.647314 0
M  V30 25 H -2.314540 -4.686823 3.235861 0
M  V30 26 H -1.792728 -6.450114 3.091634 0
M  V30 27 H 0.513565 -5.542612 2.411438 0
M  V30 28 H 0.032608 -4.995898 4.112222 0
M  V30 29 H 0.507158 -4.038749 0.560723 0
M  V30 30 H 1.080909 -3.440811 -1.435260 0
M  V30 31 H 1.660662 -1.962870 -3.544268 0
M  V30 32 H 1.382553 2.914700 -3.122734 0
M  V30 33 H 0.000830 3.021450 1.520624 0
M  V30 34 H -0.141909 5.656296 1.722940 0
M  V30 35 H 0.510663 6.704397 -0.586322 0
M  V30 36 H 0.326366 1.100673 0.626736 0
M  V30 37 H -0.663401 -0.232342 4.984931 0
M  V30 38 H -0.839699 0.767510 3.621952 0
M  V30 END ATOM
M  V30 BEGIN BOND
M  V30 1 1 1 2
M  V30 2 1 2 3
M  V30 3 2 3 4
M  V30 4 1 4 5
M  V30 5 1 5 6
M  V30 6 2 6 7
M  V30 7 1 7 8
M  V30 8 1 8 9
M  V30 9 2 9 10
M  V30 10 1 10 11
M  V30 11 2 11 12
M  V30 12 1 12 13
M  V30 13 2 13 14
M  V30 14 1 14 15
M  V30 15 2 15 16
M  V30 16 1 16 17
M  V30 17 1 12 18
M  V30 18 2 18 19
M  V30 19 2 5 20
M  V30 20 1 20 21
M  V30 21 1 21 22
M  V30 22 2 21 23
M  V30 23 1 23 3
M  V30 24 1 19 6
M  V30 25 1 19 9
M  V30 26 1 17 13
M  V30 27 1 1 24
M  V30 28 1 1 25
M  V30 29 1 1 26
M  V30 30 1 2 27
M  V30 31 1 2 28
M  V30 32 1 4 29
M  V30 33 1 7 30
M  V30 34 1 8 31
M  V30 35 1 11 32
M  V30 36 1 14 33
M  V30 37 1 15 34
M  V30 38 1 16 35
M  V30 39 1 18 36
M  V30 40 1 22 37
M  V30 41 1 22 38
M  V30 END BOND
M  V30 END CTAB
M  END
>  <Dataset>  (467) 
ChEMBL_Kinases

>  <Ligand_Instance>  (467) 
nan

>  <PDB_ID>  (467) 
nan

>  <Standardized_SMILES>  (467) 
CCc1cc(-c2c[nH]c3ncc(-c4ccco4)cc23)nc(N)n1

>  <Name>  (467) 
nan

>  <Pocket>  (467) 
nan

>  <ATP_Site>  (467) 
nan

>  <Peripheral>  (467) 
nan

>  <Num_H_Atoms_ProtBoundConf>  (467) 
nan

>  <Num_Resolved_Atoms>  (467) 
nan

>  <Num_Not_Resolved_Atoms>  (467) 
nan

$$$$
CHEMBL495947
     RDKit          3D

  0  0  0  0  0  0  0  0  0  0999 V3000
M  V30 BEGIN CTAB
M  V30 COUNTS 30 32 0 0 0
M  V30 BEGIN ATOM
M  V30 1 C -1.585028 -3.300682 0.392333 0
M  V30 2 C -0.085604 -3.234905 0.707835 0
M  V30 3 C 0.181754 -4.106977 1.876789 0
M  V30 4 N 0.193529 -3.473348 3.157056 0
M  V30 5 C 0.481152 -2.098283 3.354071 0
M  V30 6 O 0.723074 -1.616705 4.487707 0
M  V30 7 C 0.484865 -1.245357 2.159019 0
M  V30 8 C 0.714998 0.100526 1.965794 0
M  V30 9 C 0.576293 0.317174 0.610083 0
M  V30 10 C 0.735498 1.612912 -0.045921 0
M  V30 11 C 0.576953 1.732322 -1.411825 0
M  V30 12 C 0.719040 2.938668 -2.068917 0
M  V30 13 N 1.024741 4.048169 -1.354219 0
M  V30 14 C 1.180676 3.936345 -0.018852 0
M  V30 15 C 1.046943 2.745012 0.679680 0
M  V30 16 N 0.276968 -0.831002 -0.001370 0
M  V30 17 C 0.214586 -1.813955 0.936268 0
M  V30 18 H -1.807759 -4.110698 -0.329529 0
M  V30 19 H -2.179954 -3.407068 1.310391 0
M  V30 20 H -1.916035 -2.345810 -0.101709 0
M  V30 21 H 0.406792 -3.569890 -0.228242 0
M  V30 22 H -0.542858 -4.944449 1.904308 0
M  V30 23 H 1.202811 -4.565513 1.729411 0
M  V30 24 H -0.018743 -4.035840 4.008451 0
M  V30 25 H 0.954943 0.831485 2.727299 0
M  V30 26 H 0.337062 0.870724 -1.985657 0
M  V30 27 H 0.577706 2.954026 -3.156064 0
M  V30 28 H 1.429089 4.828078 0.576019 0
M  V30 29 H 1.177895 2.692072 1.742425 0
M  V30 30 H 0.121488 -0.924170 -1.039729 0
M  V30 END ATOM
M  V30 BEGIN BOND
M  V30 1 1 1 2
M  V30 2 1 2 3
M  V30 3 1 3 4
M  V30 4 1 4 5
M  V30 5 2 5 6
M  V30 6 1 5 7
M  V30 7 1 7 8
M  V30 8 2 8 9
M  V30 9 1 9 10
M  V30 10 2 10 11
M  V30 11 1 11 12
M  V30 12 2 12 13
M  V30 13 1 13 14
M  V30 14 2 14 15
M  V30 15 1 9 16
M  V30 16 1 16 17
M  V30 17 1 17 2
M  V30 18 2 17 7
M  V30 19 1 15 10
M  V30 20 1 1 18
M  V30 21 1 1 19
M  V30 22 1 1 20
M  V30 23 1 2 21
M  V30 24 1 3 22
M  V30 25 1 3 23
M  V30 26 1 4 24
M  V30 27 1 8 25
M  V30 28 1 11 26
M  V30 29 1 12 27
M  V30 30 1 14 28
M  V30 31 1 15 29
M  V30 32 1 16 30
M  V30 END BOND
M  V30 END CTAB
M  END
>  <Dataset>  (468) 
ChEMBL_Kinases

>  <Ligand_Instance>  (468) 
nan

>  <PDB_ID>  (468) 
nan

>  <Standardized_SMILES>  (468) 
CC1CNC(=O)c2cc(-c3ccncc3)[nH]c21

>  <Name>  (468) 
nan

>  <Pocket>  (468) 
nan

>  <ATP_Site>  (468) 
nan

>  <Peripheral>  (468) 
nan

>  <Num_H_Atoms_ProtBoundConf>  (468) 
nan

>  <Num_Resolved_Atoms>  (468) 
nan

>  <Num_Not_Resolved_Atoms>  (468) 
nan

$$$$
CHEMBL3809487
     RDKit          3D

  0  0  0  0  0  0  0  0  0  0999 V3000
M  V30 BEGIN CTAB
M  V30 COUNTS 31 34 0 0 0
M  V30 BEGIN ATOM
M  V30 1 C -1.863458 -2.162229 3.701935 0
M  V30 2 C -0.651221 -2.812213 3.631971 0
M  V30 3 C 0.044214 -2.631505 2.429868 0
M  V30 4 C -0.376740 -1.880182 1.351066 0
M  V30 5 C 0.485226 -1.877381 0.184691 0
M  V30 6 N 0.855443 -3.100520 -0.301750 0
M  V30 7 N 1.629501 -2.941670 -1.381111 0
M  V30 8 C 1.798892 -1.654633 -1.644317 0
M  V30 9 C 2.459032 -0.899200 -2.589370 0
M  V30 10 C 2.341842 0.468125 -2.461468 0
M  V30 11 N 1.645833 1.098697 -1.500812 0
M  V30 12 C 0.984724 0.369473 -0.553618 0
M  V30 13 C 0.314271 1.204183 0.424351 0
M  V30 14 C 0.253945 1.313351 1.820771 0
M  V30 15 C -0.581681 2.316976 2.202913 0
M  V30 16 O -1.041231 2.833502 1.090143 0
M  V30 17 C -0.550395 2.222067 0.045015 0
M  V30 18 C 1.089596 -0.992062 -0.670240 0
M  V30 19 C -1.623139 -1.270394 1.545672 0
M  V30 20 C -2.356267 -1.401902 2.689046 0
M  V30 21 H -2.447280 -2.259339 4.596549 0
M  V30 22 H -0.255968 -3.411777 4.422787 0
M  V30 23 H 0.996828 -3.151547 2.394292 0
M  V30 24 H 2.057703 -3.706470 -1.959816 0
M  V30 25 H 3.022546 -1.385982 -3.366056 0
M  V30 26 H 2.870792 1.059813 -3.220297 0
M  V30 27 H 0.865520 0.601652 2.392908 0
M  V30 28 H -0.757705 2.553972 3.239154 0
M  V30 29 H -0.836684 2.535336 -0.970985 0
M  V30 30 H -1.928871 -0.678989 0.665896 0
M  V30 31 H -3.290631 -0.883467 2.706276 0
M  V30 END ATOM
M  V30 BEGIN BOND
M  V30 1 2 1 2
M  V30 2 1 2 3
M  V30 3 2 3 4
M  V30 4 1 4 5
M  V30 5 2 5 6
M  V30 6 1 6 7
M  V30 7 1 7 8
M  V30 8 2 8 9
M  V30 9 1 9 10
M  V30 10 2 10 11
M  V30 11 1 11 12
M  V30 12 1 12 13
M  V30 13 1 13 14
M  V30 14 2 14 15
M  V30 15 1 15 16
M  V30 16 1 16 17
M  V30 17 2 12 18
M  V30 18 1 4 19
M  V30 19 2 19 20
M  V30 20 1 20 1
M  V30 21 1 18 5
M  V30 22 1 18 8
M  V30 23 2 17 13
M  V30 24 1 1 21
M  V30 25 1 2 22
M  V30 26 1 3 23
M  V30 27 1 7 24
M  V30 28 1 9 25
M  V30 29 1 10 26
M  V30 30 1 14 27
M  V30 31 1 15 28
M  V30 32 1 17 29
M  V30 33 1 19 30
M  V30 34 1 20 31
M  V30 END BOND
M  V30 END CTAB
M  END
>  <Dataset>  (469) 
ChEMBL_Kinases

>  <Ligand_Instance>  (469) 
nan

>  <PDB_ID>  (469) 
nan

>  <Standardized_SMILES>  (469) 
c1ccc(-c2n[nH]c3ccnc(-c4ccoc4)c23)cc1

>  <Name>  (469) 
nan

>  <Pocket>  (469) 
nan

>  <ATP_Site>  (469) 
nan

>  <Peripheral>  (469) 
nan

>  <Num_H_Atoms_ProtBoundConf>  (469) 
nan

>  <Num_Resolved_Atoms>  (469) 
nan

>  <Num_Not_Resolved_Atoms>  (469) 
nan

$$$$
CHEMBL3814140
     RDKit          3D

  0  0  0  0  0  0  0  0  0  0999 V3000
M  V30 BEGIN CTAB
M  V30 COUNTS 53 57 0 0 0
M  V30 BEGIN ATOM
M  V30 1 C -1.651497 -5.197259 2.689692 0
M  V30 2 C -0.963785 -5.514721 1.358291 0
M  V30 3 C 0.486328 -5.347186 1.510684 0
M  V30 4 C 1.119503 -4.170810 1.278274 0
M  V30 5 C 2.447892 -3.888221 1.383043 0
M  V30 6 C 3.197675 -2.682160 1.149232 0
M  V30 7 C 4.585926 -2.681425 1.238871 0
M  V30 8 N 5.056569 -1.456595 0.988903 0
M  V30 9 C 4.063485 -0.598118 0.728470 0
M  V30 10 N 3.959091 0.709169 0.425850 0
M  V30 11 C 2.785255 1.336645 0.210458 0
M  V30 12 C 1.639371 0.553075 0.316541 0
M  V30 13 C 0.352434 1.202708 0.089397 0
M  V30 14 C -0.816485 0.793812 0.735114 0
M  V30 15 N -1.816220 1.598854 0.302563 0
M  V30 16 N -1.337402 2.474651 -0.565979 0
M  V30 17 C -2.152434 3.481775 -1.217876 0
M  V30 18 C -3.328887 2.862904 -1.953212 0
M  V30 19 C -4.610863 3.613427 -1.637644 0
M  V30 20 N -4.941316 3.392076 -0.245750 0
M  V30 21 C -3.848500 3.793056 0.618097 0
M  V30 22 C -2.706919 4.413844 -0.162174 0
M  V30 23 C -0.014623 2.259385 -0.718482 0
M  V30 24 C 1.721915 -0.784778 0.624590 0
M  V30 25 C 2.935930 -1.377734 0.834219 0
M  V30 26 N 3.119929 -4.983753 1.771172 0
M  V30 27 C 2.578255 -6.183292 2.022266 0
M  V30 28 N 3.481606 -7.232110 2.429682 0
M  V30 29 N 1.256414 -6.382422 1.896129 0
M  V30 30 H -1.261550 -4.219520 3.040064 0
M  V30 31 H -2.737741 -5.091742 2.525872 0
M  V30 32 H -1.364184 -5.971622 3.416595 0
M  V30 33 H -1.243194 -6.545459 1.057639 0
M  V30 34 H -1.331466 -4.745205 0.634261 0
M  V30 35 H 0.465269 -3.381461 0.967384 0
M  V30 36 H 5.309668 -3.468081 1.465571 0
M  V30 37 H 6.054880 -1.126147 0.977347 0
M  V30 38 H 2.809613 2.384197 -0.025397 0
M  V30 39 H -0.937023 -0.008659 1.450029 0
M  V30 40 H -1.539397 4.103712 -1.904420 0
M  V30 41 H -3.462287 1.818670 -1.615964 0
M  V30 42 H -3.199437 2.939338 -3.059572 0
M  V30 43 H -4.518009 4.696323 -1.825139 0
M  V30 44 H -5.417634 3.218355 -2.255421 0
M  V30 45 H -5.080271 2.355772 -0.135859 0
M  V30 46 H -3.501133 2.975450 1.277883 0
M  V30 47 H -4.224253 4.596418 1.285280 0
M  V30 48 H -1.931602 4.673171 0.600321 0
M  V30 49 H -3.056533 5.379552 -0.575533 0
M  V30 50 H 0.669649 2.788172 -1.343237 0
M  V30 51 H 0.812030 -1.295238 0.688290 0
M  V30 52 H 3.684378 -8.162893 2.007504 0
M  V30 53 H 3.987644 -6.931881 3.313684 0
M  V30 END ATOM
M  V30 BEGIN BOND
M  V30 1 1 1 2
M  V30 2 1 2 3
M  V30 3 2 3 4
M  V30 4 1 4 5
M  V30 5 1 5 6
M  V30 6 2 6 7
M  V30 7 1 7 8
M  V30 8 1 8 9
M  V30 9 2 9 10
M  V30 10 1 10 11
M  V30 11 2 11 12
M  V30 12 1 12 13
M  V30 13 1 13 14
M  V30 14 2 14 15
M  V30 15 1 15 16
M  V30 16 1 16 17
M  V30 17 1 17 18
M  V30 18 1 18 19
M  V30 19 1 19 20
M  V30 20 1 20 21
M  V30 21 1 21 22
M  V30 22 1 16 23
M  V30 23 1 12 24
M  V30 24 2 24 25
M  V30 25 2 5 26
M  V30 26 1 26 27
M  V30 27 1 27 28
M  V30 28 2 27 29
M  V30 29 1 29 3
M  V30 30 1 25 6
M  V30 31 1 25 9
M  V30 32 2 23 13
M  V30 33 1 22 17
M  V30 34 1 1 30
M  V30 35 1 1 31
M  V30 36 1 1 32
M  V30 37 1 2 33
M  V30 38 1 2 34
M  V30 39 1 4 35
M  V30 40 1 7 36
M  V30 41 1 8 37
M  V30 42 1 11 38
M  V30 43 1 14 39
M  V30 44 1 17 40
M  V30 45 1 18 41
M  V30 46 1 18 42
M  V30 47 1 19 43
M  V30 48 1 19 44
M  V30 49 1 20 45
M  V30 50 1 21 46
M  V30 51 1 21 47
M  V30 52 1 22 48
M  V30 53 1 22 49
M  V30 54 1 23 50
M  V30 55 1 24 51
M  V30 56 1 28 52
M  V30 57 1 28 53
M  V30 END BOND
M  V30 END CTAB
M  END
>  <Dataset>  (470) 
ChEMBL_Kinases

>  <Ligand_Instance>  (470) 
nan

>  <PDB_ID>  (470) 
nan

>  <Standardized_SMILES>  (470) 
CCc1cc(-c2c[nH]c3ncc(-c4cnn(C5CCNCC5)c4)cc23)nc(N)n1

>  <Name>  (470) 
nan

>  <Pocket>  (470) 
nan

>  <ATP_Site>  (470) 
nan

>  <Peripheral>  (470) 
nan

>  <Num_H_Atoms_ProtBoundConf>  (470) 
nan

>  <Num_Resolved_Atoms>  (470) 
nan

>  <Num_Not_Resolved_Atoms>  (470) 
nan

$$$$
CHEMBL3813962
     RDKit          3D

  0  0  0  0  0  0  0  0  0  0999 V3000
M  V30 BEGIN CTAB
M  V30 COUNTS 41 44 0 0 0
M  V30 BEGIN ATOM
M  V30 1 C -0.910614 -6.548820 0.956977 0
M  V30 2 C -0.186094 -5.837091 2.047387 0
M  V30 3 C 0.020987 -4.404525 1.838452 0
M  V30 4 C -0.365465 -3.628601 0.765320 0
M  V30 5 C -0.084494 -2.279431 0.733331 0
M  V30 6 C -0.511607 -1.495734 -0.421604 0
M  V30 7 C -1.188437 -1.928238 -1.543511 0
M  V30 8 N -1.398528 -0.897934 -2.385169 0
M  V30 9 C -0.851067 0.205512 -1.797103 0
M  V30 10 N -0.816711 1.480647 -2.271032 0
M  V30 11 C -0.216105 2.451276 -1.524067 0
M  V30 12 C 0.358110 2.170086 -0.297746 0
M  V30 13 C 0.992373 3.235013 0.474982 0
M  V30 14 C 1.632491 4.321251 -0.133489 0
M  V30 15 C 2.209074 5.289551 0.659855 0
M  V30 16 C 2.196842 5.258666 2.038057 0
M  V30 17 C 1.564945 4.186280 2.668104 0
M  V30 18 C 0.994144 3.227793 1.855852 0
M  V30 19 C 0.307786 0.867240 0.157039 0
M  V30 20 C -0.290881 -0.141056 -0.570142 0
M  V30 21 N 0.575870 -1.754243 1.781368 0
M  V30 22 C 0.966591 -2.487903 2.844625 0
M  V30 23 N 1.661845 -1.857591 3.915383 0
M  V30 24 N 0.679737 -3.805159 2.851689 0
M  V30 25 H -1.395208 -7.452461 1.401074 0
M  V30 26 H -1.731497 -5.931044 0.577136 0
M  V30 27 H -0.179072 -6.840257 0.172850 0
M  V30 28 H 0.830036 -6.313738 2.137272 0
M  V30 29 H -0.649142 -6.030256 3.056265 0
M  V30 30 H -0.888329 -4.166299 -0.012762 0
M  V30 31 H -1.509745 -2.942660 -1.733567 0
M  V30 32 H -1.880662 -0.894053 -3.316366 0
M  V30 33 H -0.210403 3.449798 -1.936648 0
M  V30 34 H 1.643713 4.348646 -1.211637 0
M  V30 35 H 2.707375 6.135136 0.199154 0
M  V30 36 H 2.661392 6.039102 2.624746 0
M  V30 37 H 1.516099 4.095794 3.748509 0
M  V30 38 H 0.489493 2.371697 2.310877 0
M  V30 39 H 0.747382 0.614602 1.111423 0
M  V30 40 H 1.393234 -1.130029 4.613041 0
M  V30 41 H 2.667378 -2.077016 4.169159 0
M  V30 END ATOM
M  V30 BEGIN BOND
M  V30 1 1 1 2
M  V30 2 1 2 3
M  V30 3 2 3 4
M  V30 4 1 4 5
M  V30 5 1 5 6
M  V30 6 2 6 7
M  V30 7 1 7 8
M  V30 8 1 8 9
M  V30 9 2 9 10
M  V30 10 1 10 11
M  V30 11 2 11 12
M  V30 12 1 12 13
M  V30 13 2 13 14
M  V30 14 1 14 15
M  V30 15 2 15 16
M  V30 16 1 16 17
M  V30 17 2 17 18
M  V30 18 1 12 19
M  V30 19 2 19 20
M  V30 20 2 5 21
M  V30 21 1 21 22
M  V30 22 1 22 23
M  V30 23 2 22 24
M  V30 24 1 24 3
M  V30 25 1 20 6
M  V30 26 1 20 9
M  V30 27 1 18 13
M  V30 28 1 1 25
M  V30 29 1 1 26
M  V30 30 1 1 27
M  V30 31 1 2 28
M  V30 32 1 2 29
M  V30 33 1 4 30
M  V30 34 1 7 31
M  V30 35 1 8 32
M  V30 36 1 11 33
M  V30 37 1 14 34
M  V30 38 1 15 35
M  V30 39 1 16 36
M  V30 40 1 17 37
M  V30 41 1 18 38
M  V30 42 1 19 39
M  V30 43 1 23 40
M  V30 44 1 23 41
M  V30 END BOND
M  V30 END CTAB
M  END
>  <Dataset>  (471) 
ChEMBL_Kinases

>  <Ligand_Instance>  (471) 
nan

>  <PDB_ID>  (471) 
nan

>  <Standardized_SMILES>  (471) 
CCc1cc(-c2c[nH]c3ncc(-c4ccccc4)cc23)nc(N)n1

>  <Name>  (471) 
nan

>  <Pocket>  (471) 
nan

>  <ATP_Site>  (471) 
nan

>  <Peripheral>  (471) 
nan

>  <Num_H_Atoms_ProtBoundConf>  (471) 
nan

>  <Num_Resolved_Atoms>  (471) 
nan

>  <Num_Not_Resolved_Atoms>  (471) 
nan

$$$$
CHEMBL3813933
     RDKit          3D

  0  0  0  0  0  0  0  0  0  0999 V3000
M  V30 BEGIN CTAB
M  V30 COUNTS 50 53 0 0 0
M  V30 BEGIN ATOM
M  V30 1 C -1.298906 -3.330171 1.102083 0
M  V30 2 C -0.809127 -4.520896 0.308141 0
M  V30 3 C 0.393172 -4.266139 -0.483346 0
M  V30 4 C 1.036308 -3.061167 -0.518037 0
M  V30 5 C 2.150478 -2.720104 -1.213120 0
M  V30 6 C 2.886086 -1.488657 -1.288651 0
M  V30 7 C 4.095574 -1.413699 -1.974251 0
M  V30 8 N 4.581568 -0.164935 -1.907906 0
M  V30 9 C 3.778187 0.629342 -1.216257 0
M  V30 10 N 3.789791 1.926952 -0.864602 0
M  V30 11 C 2.794657 2.474663 -0.136613 0
M  V30 12 C 1.746520 1.664622 0.246827 0
M  V30 13 C 0.656422 2.254039 1.040556 0
M  V30 14 C 0.639107 3.268998 1.974511 0
M  V30 15 N -0.624097 3.390433 2.376990 0
M  V30 16 N -1.431271 2.549054 1.792259 0
M  V30 17 C -2.861965 2.341970 1.932204 0
M  V30 18 C -3.169731 1.323093 3.010383 0
M  V30 19 C -2.658064 1.731863 4.362031 0
M  V30 20 C -4.663838 1.074710 3.009112 0
M  V30 21 C -0.660033 1.813034 0.940086 0
M  V30 22 C 1.723705 0.335054 -0.106810 0
M  V30 23 C 2.746580 -0.199475 -0.846438 0
M  V30 24 N 2.606662 -3.760699 -1.925955 0
M  V30 25 C 2.057217 -4.981114 -1.965502 0
M  V30 26 N 2.675973 -5.978932 -2.782446 0
M  V30 27 N 0.950961 -5.251519 -1.251121 0
M  V30 28 H -0.536538 -2.977617 1.814933 0
M  V30 29 H -1.757710 -2.540234 0.490587 0
M  V30 30 H -2.143874 -3.733572 1.731532 0
M  V30 31 H -0.590052 -5.332343 1.057604 0
M  V30 32 H -1.672226 -4.910056 -0.291126 0
M  V30 33 H 0.576969 -2.337249 0.095255 0
M  V30 34 H 4.679717 -2.168239 -2.526994 0
M  V30 35 H 5.478310 0.201195 -2.328487 0
M  V30 36 H 2.787759 3.535086 0.160604 0
M  V30 37 H 1.534434 3.805064 2.259327 0
M  V30 38 H -3.292040 1.906112 0.988744 0
M  V30 39 H -3.408410 3.264759 2.208455 0
M  V30 40 H -2.683796 0.362073 2.735787 0
M  V30 41 H -1.678121 2.256944 4.194986 0
M  V30 42 H -3.373131 2.366375 4.930075 0
M  V30 43 H -2.439133 0.826624 4.937888 0
M  V30 44 H -5.210109 2.035299 3.055418 0
M  V30 45 H -4.935914 0.542262 2.076224 0
M  V30 46 H -4.989552 0.444202 3.856185 0
M  V30 47 H -1.019016 1.024817 0.300753 0
M  V30 48 H 0.880314 -0.224549 0.219581 0
M  V30 49 H 3.488363 -6.659865 -2.776900 0
M  V30 50 H 2.073344 -5.968846 -3.635292 0
M  V30 END ATOM
M  V30 BEGIN BOND
M  V30 1 1 1 2
M  V30 2 1 2 3
M  V30 3 2 3 4
M  V30 4 1 4 5
M  V30 5 1 5 6
M  V30 6 2 6 7
M  V30 7 1 7 8
M  V30 8 1 8 9
M  V30 9 2 9 10
M  V30 10 1 10 11
M  V30 11 2 11 12
M  V30 12 1 12 13
M  V30 13 1 13 14
M  V30 14 2 14 15
M  V30 15 1 15 16
M  V30 16 1 16 17
M  V30 17 1 17 18
M  V30 18 1 18 19
M  V30 19 1 18 20
M  V30 20 1 16 21
M  V30 21 1 12 22
M  V30 22 2 22 23
M  V30 23 2 5 24
M  V30 24 1 24 25
M  V30 25 1 25 26
M  V30 26 2 25 27
M  V30 27 1 27 3
M  V30 28 1 23 6
M  V30 29 1 23 9
M  V30 30 2 21 13
M  V30 31 1 1 28
M  V30 32 1 1 29
M  V30 33 1 1 30
M  V30 34 1 2 31
M  V30 35 1 2 32
M  V30 36 1 4 33
M  V30 37 1 7 34
M  V30 38 1 8 35
M  V30 39 1 11 36
M  V30 40 1 14 37
M  V30 41 1 17 38
M  V30 42 1 17 39
M  V30 43 1 18 40
M  V30 44 1 19 41
M  V30 45 1 19 42
M  V30 46 1 19 43
M  V30 47 1 20 44
M  V30 48 1 20 45
M  V30 49 1 20 46
M  V30 50 1 21 47
M  V30 51 1 22 48
M  V30 52 1 26 49
M  V30 53 1 26 50
M  V30 END BOND
M  V30 END CTAB
M  END
>  <Dataset>  (472) 
ChEMBL_Kinases

>  <Ligand_Instance>  (472) 
nan

>  <PDB_ID>  (472) 
nan

>  <Standardized_SMILES>  (472) 
CCc1cc(-c2c[nH]c3ncc(-c4cnn(CC(C)C)c4)cc23)nc(N)n1

>  <Name>  (472) 
nan

>  <Pocket>  (472) 
nan

>  <ATP_Site>  (472) 
nan

>  <Peripheral>  (472) 
nan

>  <Num_H_Atoms_ProtBoundConf>  (472) 
nan

>  <Num_Resolved_Atoms>  (472) 
nan

>  <Num_Not_Resolved_Atoms>  (472) 
nan

$$$$
CHEMBL3813908
     RDKit          3D

  0  0  0  0  0  0  0  0  0  0999 V3000
M  V30 BEGIN CTAB
M  V30 COUNTS 39 41 0 0 0
M  V30 BEGIN ATOM
M  V30 1 N -2.903688 -3.713273 1.773616 0
M  V30 2 C -1.862680 -4.500938 2.352085 0
M  V30 3 C -0.496261 -3.885970 2.299474 0
M  V30 4 C -0.417170 -2.582228 3.018611 0
M  V30 5 C -1.268376 -1.476790 2.504830 0
M  V30 6 C -0.948446 -1.082865 1.088780 0
M  V30 7 C 0.004249 -0.098719 0.873576 0
M  V30 8 C 0.440255 0.402998 -0.304526 0
M  V30 9 C 1.423557 1.406221 -0.622412 0
M  V30 10 C 1.795998 1.662813 -1.945992 0
M  V30 11 N 2.714632 2.639286 -1.975805 0
M  V30 12 C 3.007663 3.083235 -0.744549 0
M  V30 13 N 3.824582 4.015480 -0.233339 0
M  V30 14 C 3.876831 4.220649 1.094215 0
M  V30 15 C 3.087691 3.471070 1.941438 0
M  V30 16 C 2.254389 2.518227 1.405394 0
M  V30 17 C 2.201201 2.308434 0.053830 0
M  V30 18 N -0.180162 -0.182958 -1.341653 0
M  V30 19 C -1.112426 -1.140292 -1.256037 0
M  V30 20 N -1.706718 -1.692735 -2.419869 0
M  V30 21 N -1.484099 -1.577268 -0.042956 0
M  V30 22 H -3.795283 -3.931064 2.267963 0
M  V30 23 H -3.042411 -3.957569 0.771263 0
M  V30 24 H -2.085025 -4.680353 3.446128 0
M  V30 25 H -1.829472 -5.513035 1.889855 0
M  V30 26 H -0.126269 -3.823177 1.250609 0
M  V30 27 H 0.184244 -4.604436 2.848650 0
M  V30 28 H 0.654102 -2.242559 3.146102 0
M  V30 29 H -0.739302 -2.737333 4.093682 0
M  V30 30 H -1.039819 -0.584200 3.173291 0
M  V30 31 H -2.357967 -1.613997 2.643780 0
M  V30 32 H 0.434320 0.285277 1.755684 0
M  V30 33 H 1.482825 1.227252 -2.899634 0
M  V30 34 H 3.191661 3.057423 -2.821219 0
M  V30 35 H 4.535704 4.972679 1.509414 0
M  V30 36 H 3.168714 3.676966 2.997934 0
M  V30 37 H 1.670684 1.983077 2.116775 0
M  V30 38 H -1.549745 -2.636422 -2.853890 0
M  V30 39 H -2.421019 -1.313713 -3.108983 0
M  V30 END ATOM
M  V30 BEGIN BOND
M  V30 1 1 1 2
M  V30 2 1 2 3
M  V30 3 1 3 4
M  V30 4 1 4 5
M  V30 5 1 5 6
M  V30 6 2 6 7
M  V30 7 1 7 8
M  V30 8 1 8 9
M  V30 9 2 9 10
M  V30 10 1 10 11
M  V30 11 1 11 12
M  V30 12 2 12 13
M  V30 13 1 13 14
M  V30 14 2 14 15
M  V30 15 1 15 16
M  V30 16 2 16 17
M  V30 17 2 8 18
M  V30 18 1 18 19
M  V30 19 1 19 20
M  V30 20 2 19 21
M  V30 21 1 21 6
M  V30 22 1 17 9
M  V30 23 1 17 12
M  V30 24 1 1 22
M  V30 25 1 1 23
M  V30 26 1 2 24
M  V30 27 1 2 25
M  V30 28 1 3 26
M  V30 29 1 3 27
M  V30 30 1 4 28
M  V30 31 1 4 29
M  V30 32 1 5 30
M  V30 33 1 5 31
M  V30 34 1 7 32
M  V30 35 1 10 33
M  V30 36 1 11 34
M  V30 37 1 14 35
M  V30 38 1 15 36
M  V30 39 1 16 37
M  V30 40 1 20 38
M  V30 41 1 20 39
M  V30 END BOND
M  V30 END CTAB
M  END
>  <Dataset>  (473) 
ChEMBL_Kinases

>  <Ligand_Instance>  (473) 
nan

>  <PDB_ID>  (473) 
nan

>  <Standardized_SMILES>  (473) 
NCCCCc1cc(-c2c[nH]c3ncccc23)nc(N)n1

>  <Name>  (473) 
nan

>  <Pocket>  (473) 
nan

>  <ATP_Site>  (473) 
nan

>  <Peripheral>  (473) 
nan

>  <Num_H_Atoms_ProtBoundConf>  (473) 
nan

>  <Num_Resolved_Atoms>  (473) 
nan

>  <Num_Not_Resolved_Atoms>  (473) 
nan

$$$$
CHEMBL3813886
     RDKit          3D

  0  0  0  0  0  0  0  0  0  0999 V3000
M  V30 BEGIN CTAB
M  V30 COUNTS 40 43 0 0 0
M  V30 BEGIN ATOM
M  V30 1 C -3.244850 -4.650409 2.950761 0
M  V30 2 C -1.744555 -4.877215 2.869094 0
M  V30 3 C -1.114277 -3.579788 2.549053 0
M  V30 4 C -0.900392 -3.172910 1.247832 0
M  V30 5 C -0.314644 -1.967398 0.947666 0
M  V30 6 C -0.119759 -1.604373 -0.451884 0
M  V30 7 C -0.465725 -2.351031 -1.566138 0
M  V30 8 N -0.119936 -1.669076 -2.657847 0
M  V30 9 C 0.445313 -0.493056 -2.342036 0
M  V30 10 N 0.944699 0.515713 -3.081802 0
M  V30 11 C 1.473405 1.622763 -2.527317 0
M  V30 12 C 1.482477 1.681873 -1.148677 0
M  V30 13 C 2.047513 2.864869 -0.509140 0
M  V30 14 C 1.564607 3.309307 0.703244 0
M  V30 15 C 1.983076 4.399688 1.437239 0
M  V30 16 N 3.001584 5.096125 0.856133 0
M  V30 17 C 3.521249 4.721279 -0.323499 0
M  V30 18 C 3.091270 3.626663 -1.046510 0
M  V30 19 C 0.983081 0.675440 -0.328840 0
M  V30 20 C 0.449809 -0.442929 -0.943956 0
M  V30 21 N 0.046657 -1.189524 1.988014 0
M  V30 22 C -0.157525 -1.576773 3.271611 0
M  V30 23 N 0.265708 -0.671315 4.291754 0
M  V30 24 N -0.735439 -2.766376 3.561578 0
M  V30 25 H -3.701032 -5.626704 3.199687 0
M  V30 26 H -3.434862 -3.895089 3.727943 0
M  V30 27 H -3.571676 -4.280631 1.957777 0
M  V30 28 H -1.426625 -5.235836 3.876542 0
M  V30 29 H -1.470104 -5.663807 2.158457 0
M  V30 30 H -1.225234 -3.867545 0.479980 0
M  V30 31 H -0.938489 -3.326061 -1.536191 0
M  V30 32 H -0.249276 -1.965410 -3.665662 0
M  V30 33 H 1.887063 2.459567 -3.091729 0
M  V30 34 H 0.755138 2.727406 1.130115 0
M  V30 35 H 1.514412 4.636141 2.378131 0
M  V30 36 H 4.338659 5.293873 -0.773430 0
M  V30 37 H 3.496710 3.311729 -1.993871 0
M  V30 38 H 0.998387 0.738285 0.750866 0
M  V30 39 H 1.212084 -0.232704 4.281861 0
M  V30 40 H -0.365020 -0.423207 5.079019 0
M  V30 END ATOM
M  V30 BEGIN BOND
M  V30 1 1 1 2
M  V30 2 1 2 3
M  V30 3 2 3 4
M  V30 4 1 4 5
M  V30 5 1 5 6
M  V30 6 2 6 7
M  V30 7 1 7 8
M  V30 8 1 8 9
M  V30 9 2 9 10
M  V30 10 1 10 11
M  V30 11 2 11 12
M  V30 12 1 12 13
M  V30 13 2 13 14
M  V30 14 1 14 15
M  V30 15 2 15 16
M  V30 16 1 16 17
M  V30 17 2 17 18
M  V30 18 1 12 19
M  V30 19 2 19 20
M  V30 20 2 5 21
M  V30 21 1 21 22
M  V30 22 1 22 23
M  V30 23 2 22 24
M  V30 24 1 24 3
M  V30 25 1 20 6
M  V30 26 1 20 9
M  V30 27 1 18 13
M  V30 28 1 1 25
M  V30 29 1 1 26
M  V30 30 1 1 27
M  V30 31 1 2 28
M  V30 32 1 2 29
M  V30 33 1 4 30
M  V30 34 1 7 31
M  V30 35 1 8 32
M  V30 36 1 11 33
M  V30 37 1 14 34
M  V30 38 1 15 35
M  V30 39 1 17 36
M  V30 40 1 18 37
M  V30 41 1 19 38
M  V30 42 1 23 39
M  V30 43 1 23 40
M  V30 END BOND
M  V30 END CTAB
M  END
>  <Dataset>  (474) 
ChEMBL_Kinases

>  <Ligand_Instance>  (474) 
nan

>  <PDB_ID>  (474) 
nan

>  <Standardized_SMILES>  (474) 
CCc1cc(-c2c[nH]c3ncc(-c4ccncc4)cc23)nc(N)n1

>  <Name>  (474) 
nan

>  <Pocket>  (474) 
nan

>  <ATP_Site>  (474) 
nan

>  <Peripheral>  (474) 
nan

>  <Num_H_Atoms_ProtBoundConf>  (474) 
nan

>  <Num_Resolved_Atoms>  (474) 
nan

>  <Num_Not_Resolved_Atoms>  (474) 
nan

$$$$
CHEMBL495953
     RDKit          3D

  0  0  0  0  0  0  0  0  0  0999 V3000
M  V30 BEGIN CTAB
M  V30 COUNTS 40 42 0 0 0
M  V30 BEGIN ATOM
M  V30 1 C 0.694004 -3.593431 1.303292 0
M  V30 2 C -0.775030 -3.913869 1.220024 0
M  V30 3 C -1.017836 -5.260821 0.564557 0
M  V30 4 C -1.652563 -2.843956 0.705864 0
M  V30 5 C -1.448266 -2.315522 -0.649031 0
M  V30 6 C -0.156188 -1.681874 -0.990598 0
M  V30 7 C 0.061696 -0.352170 -0.314154 0
M  V30 8 N 1.201418 0.238129 0.011831 0
M  V30 9 C 0.944815 1.417953 0.601564 0
M  V30 10 C 1.868979 2.419875 1.130178 0
M  V30 11 C 3.237932 2.205627 1.055225 0
M  V30 12 C 4.191002 3.105871 1.533130 0
M  V30 13 N 3.713877 4.239292 2.094062 0
M  V30 14 C 2.384318 4.467726 2.177137 0
M  V30 15 N 1.796040 5.630333 2.750102 0
M  V30 16 N 1.490260 3.571659 1.702777 0
M  V30 17 C -0.426388 1.589500 0.654775 0
M  V30 18 C -0.977938 0.463844 0.072676 0
M  V30 19 C -2.327144 -0.012965 -0.201644 0
M  V30 20 O -3.298839 0.695877 0.132696 0
M  V30 21 N -2.480680 -1.279766 -0.845809 0
M  V30 22 H 1.292598 -4.079935 0.500640 0
M  V30 23 H 1.150218 -4.032390 2.247340 0
M  V30 24 H 0.837751 -2.518427 1.414284 0
M  V30 25 H -1.088977 -4.080431 2.296902 0
M  V30 26 H -1.756294 -5.886545 1.121165 0
M  V30 27 H -1.440156 -5.141243 -0.446837 0
M  V30 28 H -0.074954 -5.861695 0.564629 0
M  V30 29 H -1.686459 -2.015519 1.448434 0
M  V30 30 H -2.709326 -3.252824 0.729808 0
M  V30 31 H -1.686575 -3.055069 -1.465507 0
M  V30 32 H -0.247189 -1.382306 -2.083702 0
M  V30 33 H 0.737534 -2.298984 -0.961781 0
M  V30 34 H 2.178582 -0.143982 -0.157363 0
M  V30 35 H 3.557416 1.279226 0.595036 0
M  V30 36 H 5.244008 2.919569 1.464608 0
M  V30 37 H 1.938020 5.453060 3.773032 0
M  V30 38 H 1.329717 6.476426 2.355812 0
M  V30 39 H -1.048392 2.383460 1.040688 0
M  V30 40 H -3.347511 -1.402149 -1.440013 0
M  V30 END ATOM
M  V30 BEGIN BOND
M  V30 1 1 1 2
M  V30 2 1 2 3
M  V30 3 1 2 4
M  V30 4 1 4 5
M  V30 5 1 5 6
M  V30 6 1 6 7
M  V30 7 1 7 8
M  V30 8 1 8 9
M  V30 9 1 9 10
M  V30 10 2 10 11
M  V30 11 1 11 12
M  V30 12 2 12 13
M  V30 13 1 13 14
M  V30 14 1 14 15
M  V30 15 2 14 16
M  V30 16 2 9 17
M  V30 17 1 17 18
M  V30 18 1 18 19
M  V30 19 2 19 20
M  V30 20 1 19 21
M  V30 21 1 21 5
M  V30 22 2 18 7
M  V30 23 1 16 10
M  V30 24 1 1 22
M  V30 25 1 1 23
M  V30 26 1 1 24
M  V30 27 1 2 25
M  V30 28 1 3 26
M  V30 29 1 3 27
M  V30 30 1 3 28
M  V30 31 1 4 29
M  V30 32 1 4 30
M  V30 33 1 5 31
M  V30 34 1 6 32
M  V30 35 1 6 33
M  V30 36 1 8 34
M  V30 37 1 11 35
M  V30 38 1 12 36
M  V30 39 1 15 37
M  V30 40 1 15 38
M  V30 41 1 17 39
M  V30 42 1 21 40
M  V30 END BOND
M  V30 END CTAB
M  END
>  <Dataset>  (475) 
ChEMBL_Kinases

>  <Ligand_Instance>  (475) 
nan

>  <PDB_ID>  (475) 
nan

>  <Standardized_SMILES>  (475) 
CC(C)CC1Cc2[nH]c(-c3ccnc(N)n3)cc2C(=O)N1

>  <Name>  (475) 
nan

>  <Pocket>  (475) 
nan

>  <ATP_Site>  (475) 
nan

>  <Peripheral>  (475) 
nan

>  <Num_H_Atoms_ProtBoundConf>  (475) 
nan

>  <Num_Resolved_Atoms>  (475) 
nan

>  <Num_Not_Resolved_Atoms>  (475) 
nan

$$$$
CHEMBL3813865
     RDKit          3D

  0  0  0  0  0  0  0  0  0  0999 V3000
M  V30 BEGIN CTAB
M  V30 COUNTS 38 41 0 0 0
M  V30 BEGIN ATOM
M  V30 1 C -1.349404 -5.392768 2.944838 0
M  V30 2 C 0.074578 -4.931204 2.945949 0
M  V30 3 C 0.124856 -3.513055 2.483984 0
M  V30 4 C 0.270885 -3.189599 1.130559 0
M  V30 5 C 0.305463 -1.829109 0.818259 0
M  V30 6 C 0.457022 -1.465348 -0.586806 0
M  V30 7 C 0.576640 -2.259242 -1.710374 0
M  V30 8 N 0.694872 -1.473068 -2.796648 0
M  V30 9 C 0.659752 -0.166615 -2.449874 0
M  V30 10 N 0.737720 0.976432 -3.156329 0
M  V30 11 C 0.674861 2.191831 -2.554070 0
M  V30 12 C 0.527511 2.260850 -1.184372 0
M  V30 13 C 0.449567 3.536166 -0.440029 0
M  V30 14 C -0.068614 4.756106 -0.824078 0
M  V30 15 N 0.083320 5.637442 0.199667 0
M  V30 16 N 0.675685 5.015658 1.206827 0
M  V30 17 C 0.913251 3.734359 0.851750 0
M  V30 18 C 0.445138 1.078730 -0.438022 0
M  V30 19 C 0.511713 -0.159696 -1.074686 0
M  V30 20 N 0.200887 -0.908599 1.794316 0
M  V30 21 C 0.061425 -1.219984 3.086249 0
M  V30 22 N -0.037340 -0.156569 4.013460 0
M  V30 23 N 0.024658 -2.523027 3.418888 0
M  V30 24 H -2.005421 -4.507559 3.111956 0
M  V30 25 H -1.499276 -6.087380 3.797513 0
M  V30 26 H -1.599746 -5.862795 1.971929 0
M  V30 27 H 0.743572 -5.577032 2.344798 0
M  V30 28 H 0.436312 -4.949473 4.007487 0
M  V30 29 H 0.349997 -3.965233 0.390022 0
M  V30 30 H 0.562033 -3.334226 -1.593062 0
M  V30 31 H 0.800292 -1.850902 -3.780696 0
M  V30 32 H 0.729980 3.144210 -3.055638 0
M  V30 33 H -0.507981 4.927120 -1.785377 0
M  V30 34 H 0.894912 5.509981 2.113634 0
M  V30 35 H 1.389260 3.031609 1.510659 0
M  V30 36 H 0.331163 1.154341 0.617299 0
M  V30 37 H 0.374226 -0.165497 4.958701 0
M  V30 38 H -0.539054 0.712011 3.793496 0
M  V30 END ATOM
M  V30 BEGIN BOND
M  V30 1 1 1 2
M  V30 2 1 2 3
M  V30 3 2 3 4
M  V30 4 1 4 5
M  V30 5 1 5 6
M  V30 6 2 6 7
M  V30 7 1 7 8
M  V30 8 1 8 9
M  V30 9 2 9 10
M  V30 10 1 10 11
M  V30 11 2 11 12
M  V30 12 1 12 13
M  V30 13 1 13 14
M  V30 14 2 14 15
M  V30 15 1 15 16
M  V30 16 1 16 17
M  V30 17 1 12 18
M  V30 18 2 18 19
M  V30 19 2 5 20
M  V30 20 1 20 21
M  V30 21 1 21 22
M  V30 22 2 21 23
M  V30 23 1 23 3
M  V30 24 1 19 6
M  V30 25 1 19 9
M  V30 26 2 17 13
M  V30 27 1 1 24
M  V30 28 1 1 25
M  V30 29 1 1 26
M  V30 30 1 2 27
M  V30 31 1 2 28
M  V30 32 1 4 29
M  V30 33 1 7 30
M  V30 34 1 8 31
M  V30 35 1 11 32
M  V30 36 1 14 33
M  V30 37 1 16 34
M  V30 38 1 17 35
M  V30 39 1 18 36
M  V30 40 1 22 37
M  V30 41 1 22 38
M  V30 END BOND
M  V30 END CTAB
M  END
>  <Dataset>  (476) 
ChEMBL_Kinases

>  <Ligand_Instance>  (476) 
nan

>  <PDB_ID>  (476) 
nan

>  <Standardized_SMILES>  (476) 
CCc1cc(-c2c[nH]c3ncc(-c4cn[nH]c4)cc23)nc(N)n1

>  <Name>  (476) 
nan

>  <Pocket>  (476) 
nan

>  <ATP_Site>  (476) 
nan

>  <Peripheral>  (476) 
nan

>  <Num_H_Atoms_ProtBoundConf>  (476) 
nan

>  <Num_Resolved_Atoms>  (476) 
nan

>  <Num_Not_Resolved_Atoms>  (476) 
nan

$$$$
CHEMBL3813849
     RDKit          3D

  0  0  0  0  0  0  0  0  0  0999 V3000
M  V30 BEGIN CTAB
M  V30 COUNTS 41 44 0 0 0
M  V30 BEGIN ATOM
M  V30 1 C -1.315317 -6.220532 0.736426 0
M  V30 2 C -0.368289 -5.707294 1.777502 0
M  V30 3 C -0.081061 -4.269693 1.677229 0
M  V30 4 C -0.578740 -3.392649 0.757967 0
M  V30 5 C -0.263126 -2.067705 0.730442 0
M  V30 6 C -0.815329 -1.157265 -0.269106 0
M  V30 7 C -1.689227 -1.377196 -1.312251 0
M  V30 8 N -1.930839 -0.251575 -1.985478 0
M  V30 9 C -1.217506 0.743468 -1.398514 0
M  V30 10 N -1.118164 2.054103 -1.696926 0
M  V30 11 C -0.349739 2.906611 -0.993466 0
M  V30 12 C 0.362455 2.403825 0.077873 0
M  V30 13 C 1.177697 3.359137 0.807636 0
M  V30 14 C 0.679661 4.615697 1.160826 0
M  V30 15 C 1.676575 5.290606 1.839036 0
M  V30 16 N 2.721175 4.467690 1.885304 0
M  V30 17 N 2.437900 3.306749 1.271774 0
M  V30 18 C 3.293510 2.148216 1.099312 0
M  V30 19 C 0.273370 1.061340 0.399699 0
M  V30 20 C -0.522876 0.197701 -0.335632 0
M  V30 21 N 0.590968 -1.637155 1.679836 0
M  V30 22 C 1.093831 -2.479554 2.594464 0
M  V30 23 N 1.988241 -1.918533 3.552923 0
M  V30 24 N 0.770188 -3.793980 2.608341 0
M  V30 25 H -2.204789 -5.549340 0.692884 0
M  V30 26 H -0.825152 -6.308313 -0.232461 0
M  V30 27 H -1.699504 -7.204958 1.095847 0
M  V30 28 H 0.600798 -6.246276 1.722410 0
M  V30 29 H -0.834581 -5.904834 2.785710 0
M  V30 30 H -1.269080 -3.828148 0.018985 0
M  V30 31 H -2.116818 -2.342684 -1.544396 0
M  V30 32 H -2.545913 -0.131558 -2.808798 0
M  V30 33 H -0.294435 3.955373 -1.263099 0
M  V30 34 H -0.274298 5.125520 1.013628 0
M  V30 35 H 1.753620 6.285412 2.300749 0
M  V30 36 H 4.365472 2.407477 1.345381 0
M  V30 37 H 3.067772 1.319108 1.798045 0
M  V30 38 H 3.355483 1.815921 0.025963 0
M  V30 39 H 0.824716 0.687095 1.224206 0
M  V30 40 H 1.856806 -1.453216 4.482058 0
M  V30 41 H 2.977378 -2.004642 3.232755 0
M  V30 END ATOM
M  V30 BEGIN BOND
M  V30 1 1 1 2
M  V30 2 1 2 3
M  V30 3 2 3 4
M  V30 4 1 4 5
M  V30 5 1 5 6
M  V30 6 2 6 7
M  V30 7 1 7 8
M  V30 8 1 8 9
M  V30 9 2 9 10
M  V30 10 1 10 11
M  V30 11 2 11 12
M  V30 12 1 12 13
M  V30 13 2 13 14
M  V30 14 1 14 15
M  V30 15 2 15 16
M  V30 16 1 16 17
M  V30 17 1 17 18
M  V30 18 1 12 19
M  V30 19 2 19 20
M  V30 20 2 5 21
M  V30 21 1 21 22
M  V30 22 1 22 23
M  V30 23 2 22 24
M  V30 24 1 24 3
M  V30 25 1 20 6
M  V30 26 1 20 9
M  V30 27 1 17 13
M  V30 28 1 1 25
M  V30 29 1 1 26
M  V30 30 1 1 27
M  V30 31 1 2 28
M  V30 32 1 2 29
M  V30 33 1 4 30
M  V30 34 1 7 31
M  V30 35 1 8 32
M  V30 36 1 11 33
M  V30 37 1 14 34
M  V30 38 1 15 35
M  V30 39 1 18 36
M  V30 40 1 18 37
M  V30 41 1 18 38
M  V30 42 1 19 39
M  V30 43 1 23 40
M  V30 44 1 23 41
M  V30 END BOND
M  V30 END CTAB
M  END
>  <Dataset>  (477) 
ChEMBL_Kinases

>  <Ligand_Instance>  (477) 
nan

>  <PDB_ID>  (477) 
nan

>  <Standardized_SMILES>  (477) 
CCc1cc(-c2c[nH]c3ncc(-c4ccnn4C)cc23)nc(N)n1

>  <Name>  (477) 
nan

>  <Pocket>  (477) 
nan

>  <ATP_Site>  (477) 
nan

>  <Peripheral>  (477) 
nan

>  <Num_H_Atoms_ProtBoundConf>  (477) 
nan

>  <Num_Resolved_Atoms>  (477) 
nan

>  <Num_Not_Resolved_Atoms>  (477) 
nan

$$$$
CHEMBL381328
     RDKit          3D

  0  0  0  0  0  0  0  0  0  0999 V3000
M  V30 BEGIN CTAB
M  V30 COUNTS 52 55 0 0 0
M  V30 BEGIN ATOM
M  V30 1 N -3.709140 0.639618 2.237485 0
M  V30 2 C -3.038630 -0.610450 1.830157 0 CFG=2
M  V30 3 C -1.592779 -0.347713 1.588543 0
M  V30 4 O -0.839216 -1.477186 1.209221 0
M  V30 5 C 0.537724 -1.351205 0.954322 0
M  V30 6 C 1.279916 -2.449412 0.583565 0
M  V30 7 N 2.581640 -2.259515 0.356764 0
M  V30 8 C 3.186090 -1.065591 0.472733 0
M  V30 9 C 2.509553 0.077880 0.839191 0
M  V30 10 C 3.153559 1.367794 0.966316 0
M  V30 11 C 2.591727 2.509121 1.308959 0
M  V30 12 C 3.276114 3.789768 1.426017 0
M  V30 13 C 4.609237 3.974077 1.191786 0
M  V30 14 C 5.229535 5.219466 1.314794 0
M  V30 15 N 4.486485 6.282016 1.678474 0
M  V30 16 C 3.158979 6.151442 1.922312 0
M  V30 17 C 2.568695 4.913359 1.794664 0
M  V30 18 C 1.168952 -0.129843 1.070334 0
M  V30 19 C -3.803173 -1.157966 0.664041 0
M  V30 20 C -3.203517 -2.412008 0.185684 0
M  V30 21 C -3.646998 -3.582257 0.813387 0
M  V30 22 C -3.225678 -4.855954 0.510350 0
M  V30 23 C -2.296913 -5.007503 -0.484258 0
M  V30 24 C -1.850615 -6.269539 -0.815890 0
M  V30 25 C -0.909179 -6.379827 -1.829401 0
M  V30 26 C -0.435925 -5.261072 -2.483343 0
M  V30 27 C -0.891143 -3.999926 -2.141870 0
M  V30 28 C -1.831415 -3.883588 -1.130376 0
M  V30 29 C -2.264233 -2.616709 -0.814047 0
M  V30 30 H -3.049602 1.210985 2.832840 0
M  V30 31 H -3.854228 1.204274 1.367376 0
M  V30 32 H -3.176717 -1.312215 2.672498 0
M  V30 33 H -1.416350 0.414448 0.799466 0
M  V30 34 H -1.154023 0.101329 2.516404 0
M  V30 35 H 0.813615 -3.418037 0.484577 0
M  V30 36 H 4.255099 -1.012253 0.265944 0
M  V30 37 H 4.223697 1.399635 0.755039 0
M  V30 38 H 1.533659 2.452906 1.512908 0
M  V30 39 H 5.224113 3.158565 0.903596 0
M  V30 40 H 6.283189 5.314984 1.119632 0
M  V30 41 H 2.559931 7.014168 2.216725 0
M  V30 42 H 1.492302 4.873274 2.005543 0
M  V30 43 H 0.529549 0.694350 1.365352 0
M  V30 44 H -3.856154 -0.421615 -0.186304 0
M  V30 45 H -4.840670 -1.342179 1.006136 0
M  V30 46 H -4.388360 -3.533545 1.616197 0
M  V30 47 H -3.593099 -5.717391 1.017102 0
M  V30 48 H -2.257309 -7.110719 -0.268713 0
M  V30 49 H -0.608393 -7.398699 -2.032201 0
M  V30 50 H 0.282256 -5.448590 -3.243785 0
M  V30 51 H -0.501058 -3.131447 -2.674287 0
M  V30 52 H -1.936758 -1.696047 -1.288273 0
M  V30 END ATOM
M  V30 BEGIN BOND
M  V30 1 1 1 2
M  V30 2 1 2 3
M  V30 3 1 3 4
M  V30 4 1 4 5
M  V30 5 2 5 6
M  V30 6 1 6 7
M  V30 7 2 7 8
M  V30 8 1 8 9
M  V30 9 1 9 10
M  V30 10 2 10 11
M  V30 11 1 11 12
M  V30 12 2 12 13
M  V30 13 1 13 14
M  V30 14 2 14 15
M  V30 15 1 15 16
M  V30 16 2 16 17
M  V30 17 2 9 18
M  V30 18 1 2 19
M  V30 19 1 19 20
M  V30 20 2 20 21
M  V30 21 1 21 22
M  V30 22 2 22 23
M  V30 23 1 23 24
M  V30 24 2 24 25
M  V30 25 1 25 26
M  V30 26 2 26 27
M  V30 27 1 27 28
M  V30 28 2 28 29
M  V30 29 1 18 5
M  V30 30 1 29 20
M  V30 31 1 17 12
M  V30 32 1 28 23
M  V30 33 1 1 30
M  V30 34 1 1 31
M  V30 35 1 2 32 CFG=1
M  V30 36 1 3 33
M  V30 37 1 3 34
M  V30 38 1 6 35
M  V30 39 1 8 36
M  V30 40 1 10 37
M  V30 41 1 11 38
M  V30 42 1 13 39
M  V30 43 1 14 40
M  V30 44 1 16 41
M  V30 45 1 17 42
M  V30 46 1 18 43
M  V30 47 1 19 44
M  V30 48 1 19 45
M  V30 49 1 21 46
M  V30 50 1 22 47
M  V30 51 1 24 48
M  V30 52 1 25 49
M  V30 53 1 26 50
M  V30 54 1 27 51
M  V30 55 1 29 52
M  V30 END BOND
M  V30 END CTAB
M  END
>  <Dataset>  (478) 
ChEMBL_Kinases

>  <Ligand_Instance>  (478) 
nan

>  <PDB_ID>  (478) 
nan

>  <Standardized_SMILES>  (478) 
N[C@H](COc1cncc(/C=C/c2ccncc2)c1)Cc1ccc2ccccc2c1

>  <Name>  (478) 
nan

>  <Pocket>  (478) 
nan

>  <ATP_Site>  (478) 
nan

>  <Peripheral>  (478) 
nan

>  <Num_H_Atoms_ProtBoundConf>  (478) 
nan

>  <Num_Resolved_Atoms>  (478) 
nan

>  <Num_Not_Resolved_Atoms>  (478) 
nan

$$$$
CHEMBL381273
     RDKit          3D

  0  0  0  0  0  0  0  0  0  0999 V3000
M  V30 BEGIN CTAB
M  V30 COUNTS 53 57 0 0 0
M  V30 BEGIN ATOM
M  V30 1 N 5.905239 -7.003243 5.562641 0
M  V30 2 C 5.390832 -6.482542 4.685208 0
M  V30 3 C 4.750934 -5.843718 3.564449 0
M  V30 4 C 4.430061 -4.510705 3.535488 0
M  V30 5 C 3.818202 -4.009049 2.406279 0
M  V30 6 C 3.479891 -2.656659 2.348463 0
M  V30 7 C 2.869055 -2.188706 1.204114 0
M  V30 8 C 2.481370 -0.788049 1.057077 0
M  V30 9 C 3.264448 0.156822 1.687347 0
M  V30 10 N 2.950605 1.459338 1.582910 0
M  V30 11 C 1.887529 1.872788 0.876853 0
M  V30 12 C 1.047127 1.006974 0.214020 0
M  V30 13 O -0.076053 1.108163 -0.560106 0
M  V30 14 C -0.807030 2.202157 -0.965430 0
M  V30 15 C -1.440989 3.054106 0.067428 0 CFG=1
M  V30 16 N -2.143171 4.208374 -0.578997 0
M  V30 17 C -2.427442 2.350486 0.956510 0
M  V30 18 C -3.592753 1.770684 0.282621 0
M  V30 19 C -4.797679 2.495952 0.201149 0
M  V30 20 N -5.742259 1.829206 -0.484944 0
M  V30 21 C -5.234039 0.655044 -0.886845 0
M  V30 22 C -5.685170 -0.438421 -1.594121 0
M  V30 23 C -4.877651 -1.555645 -1.844495 0
M  V30 24 C -3.588989 -1.528430 -1.350654 0
M  V30 25 C -3.127687 -0.442732 -0.643852 0
M  V30 26 C -3.942081 0.639836 -0.414793 0
M  V30 27 C 1.370175 -0.356530 0.319294 0
M  V30 28 C 2.580002 -2.994622 0.121449 0
M  V30 29 C 2.907895 -4.335520 0.161888 0
M  V30 30 C 3.518664 -4.798582 1.308500 0
M  V30 31 C 3.873603 -6.127553 1.417014 0
M  V30 32 N 4.467286 -6.638853 2.499727 0
M  V30 33 H 4.662886 -3.885679 4.394562 0
M  V30 34 H 3.686084 -1.986455 3.170646 0
M  V30 35 H 4.140737 -0.028642 2.283207 0
M  V30 36 H 1.562871 2.888102 0.732134 0
M  V30 37 H -0.088058 2.865117 -1.543439 0
M  V30 38 H -1.552157 1.824115 -1.726305 0
M  V30 39 H -0.683411 3.549767 0.688077 0
M  V30 40 H -2.406871 4.833429 0.235723 0
M  V30 41 H -3.073551 3.857476 -0.951559 0
M  V30 42 H -2.772132 3.088244 1.722823 0
M  V30 43 H -1.860587 1.587291 1.552438 0
M  V30 44 H -5.008800 3.491343 0.624261 0
M  V30 45 H -6.712590 2.154422 -0.681682 0
M  V30 46 H -6.704108 -0.366277 -1.937796 0
M  V30 47 H -5.321059 -2.355551 -2.404512 0
M  V30 48 H -2.995488 -2.408844 -1.562962 0
M  V30 49 H -2.134769 -0.503476 -0.287643 0
M  V30 50 H 0.856527 -1.221251 -0.115267 0
M  V30 51 H 2.104319 -2.680155 -0.797839 0
M  V30 52 H 2.700436 -5.003863 -0.663142 0
M  V30 53 H 3.675863 -6.823466 0.599683 0
M  V30 END ATOM
M  V30 BEGIN BOND
M  V30 1 3 1 2
M  V30 2 1 2 3
M  V30 3 2 3 4
M  V30 4 1 4 5
M  V30 5 2 5 6
M  V30 6 1 6 7
M  V30 7 1 7 8
M  V30 8 2 8 9
M  V30 9 1 9 10
M  V30 10 2 10 11
M  V30 11 1 11 12
M  V30 12 1 12 13
M  V30 13 1 13 14
M  V30 14 1 14 15
M  V30 15 1 15 16
M  V30 16 1 15 17
M  V30 17 1 17 18
M  V30 18 2 18 19
M  V30 19 1 19 20
M  V30 20 1 20 21
M  V30 21 2 21 22
M  V30 22 1 22 23
M  V30 23 2 23 24
M  V30 24 1 24 25
M  V30 25 2 25 26
M  V30 26 2 12 27
M  V30 27 2 7 28
M  V30 28 1 28 29
M  V30 29 2 29 30
M  V30 30 1 30 31
M  V30 31 2 31 32
M  V30 32 1 32 3
M  V30 33 1 30 5
M  V30 34 1 27 8
M  V30 35 1 26 18
M  V30 36 1 26 21
M  V30 37 1 4 33
M  V30 38 1 6 34
M  V30 39 1 9 35
M  V30 40 1 11 36
M  V30 41 1 14 37
M  V30 42 1 14 38
M  V30 43 1 15 39 CFG=1
M  V30 44 1 16 40
M  V30 45 1 16 41
M  V30 46 1 17 42
M  V30 47 1 17 43
M  V30 48 1 19 44
M  V30 49 1 20 45
M  V30 50 1 22 46
M  V30 51 1 23 47
M  V30 52 1 24 48
M  V30 53 1 25 49
M  V30 54 1 27 50
M  V30 55 1 28 51
M  V30 56 1 29 52
M  V30 57 1 31 53
M  V30 END BOND
M  V30 END CTAB
M  END
>  <Dataset>  (479) 
ChEMBL_Kinases

>  <Ligand_Instance>  (479) 
nan

>  <PDB_ID>  (479) 
nan

>  <Standardized_SMILES>  (479) 
N#Cc1cc2cc(-c3cncc(OC[C@@H](N)Cc4c[nH]c5ccccc45)c3)ccc2cn1

>  <Name>  (479) 
nan

>  <Pocket>  (479) 
nan

>  <ATP_Site>  (479) 
nan

>  <Peripheral>  (479) 
nan

>  <Num_H_Atoms_ProtBoundConf>  (479) 
nan

>  <Num_Resolved_Atoms>  (479) 
nan

>  <Num_Not_Resolved_Atoms>  (479) 
nan

$$$$
CHEMBL3814154
     RDKit          3D

  0  0  0  0  0  0  0  0  0  0999 V3000
M  V30 BEGIN CTAB
M  V30 COUNTS 42 45 0 0 0
M  V30 BEGIN ATOM
M  V30 1 C -0.212510 -6.701914 -0.310529 0
M  V30 2 C -1.480045 -5.914294 0.019759 0
M  V30 3 C -1.001306 -4.546719 0.404913 0
M  V30 4 C -0.833308 -3.515598 -0.483893 0
M  V30 5 C -0.392044 -2.265009 -0.108653 0
M  V30 6 C -0.239917 -1.219477 -1.121760 0
M  V30 7 C -0.492430 -1.336038 -2.472877 0
M  V30 8 N -0.224714 -0.134001 -3.056770 0
M  V30 9 C 0.187061 0.705679 -2.068577 0
M  V30 10 N 0.558578 2.002899 -2.183286 0
M  V30 11 C 0.944584 2.696335 -1.079161 0
M  V30 12 C 0.968714 2.108198 0.170295 0
M  V30 13 C 1.376596 2.816752 1.382214 0
M  V30 14 C 2.335660 3.796132 1.226024 0
M  V30 15 C 2.726854 4.468782 2.360617 0
M  V30 16 C 2.112462 4.085670 3.532568 0
M  V30 17 N 2.439554 4.709545 4.751125 0
M  V30 18 N 1.173416 3.118591 3.650049 0
M  V30 19 C 0.761767 2.436645 2.569578 0
M  V30 20 C 0.586110 0.783253 0.267768 0
M  V30 21 C 0.191333 0.060627 -0.836148 0
M  V30 22 N -0.114955 -2.062987 1.211693 0
M  V30 23 C -0.277388 -3.074885 2.098753 0
M  V30 24 N 0.018809 -2.839566 3.472171 0
M  V30 25 N -0.709623 -4.287202 1.707153 0
M  V30 26 H -0.437644 -7.509136 -1.039442 0
M  V30 27 H 0.539114 -6.047989 -0.809579 0
M  V30 28 H 0.265558 -7.079682 0.611782 0
M  V30 29 H -2.025909 -6.389690 0.855262 0
M  V30 30 H -2.110210 -5.817413 -0.881243 0
M  V30 31 H -1.071083 -3.736703 -1.527326 0
M  V30 32 H -0.841625 -2.229024 -2.973772 0
M  V30 33 H -0.313717 0.109018 -4.062883 0
M  V30 34 H 1.240064 3.734360 -1.182806 0
M  V30 35 H 2.752756 4.020717 0.274133 0
M  V30 36 H 3.471136 5.252674 2.344752 0
M  V30 37 H 2.227683 4.376887 5.700843 0
M  V30 38 H 2.727518 5.248954 5.582053 0
M  V30 39 H 0.020377 1.654125 2.578296 0
M  V30 40 H 0.572222 0.244795 1.189560 0
M  V30 41 H -0.439711 -2.370456 4.286630 0
M  V30 42 H 0.885104 -3.145401 3.982426 0
M  V30 END ATOM
M  V30 BEGIN BOND
M  V30 1 1 1 2
M  V30 2 1 2 3
M  V30 3 2 3 4
M  V30 4 1 4 5
M  V30 5 1 5 6
M  V30 6 2 6 7
M  V30 7 1 7 8
M  V30 8 1 8 9
M  V30 9 2 9 10
M  V30 10 1 10 11
M  V30 11 2 11 12
M  V30 12 1 12 13
M  V30 13 2 13 14
M  V30 14 1 14 15
M  V30 15 2 15 16
M  V30 16 1 16 17
M  V30 17 1 16 18
M  V30 18 2 18 19
M  V30 19 1 12 20
M  V30 20 2 20 21
M  V30 21 2 5 22
M  V30 22 1 22 23
M  V30 23 1 23 24
M  V30 24 2 23 25
M  V30 25 1 25 3
M  V30 26 1 21 6
M  V30 27 1 21 9
M  V30 28 1 19 13
M  V30 29 1 1 26
M  V30 30 1 1 27
M  V30 31 1 1 28
M  V30 32 1 2 29
M  V30 33 1 2 30
M  V30 34 1 4 31
M  V30 35 1 7 32
M  V30 36 1 8 33
M  V30 37 1 11 34
M  V30 38 1 14 35
M  V30 39 1 15 36
M  V30 40 1 17 37
M  V30 41 1 17 38
M  V30 42 1 19 39
M  V30 43 1 20 40
M  V30 44 1 24 41
M  V30 45 1 24 42
M  V30 END BOND
M  V30 END CTAB
M  END
>  <Dataset>  (480) 
ChEMBL_Kinases

>  <Ligand_Instance>  (480) 
nan

>  <PDB_ID>  (480) 
nan

>  <Standardized_SMILES>  (480) 
CCc1cc(-c2c[nH]c3ncc(-c4ccc(N)nc4)cc23)nc(N)n1

>  <Name>  (480) 
nan

>  <Pocket>  (480) 
nan

>  <ATP_Site>  (480) 
nan

>  <Peripheral>  (480) 
nan

>  <Num_H_Atoms_ProtBoundConf>  (480) 
nan

>  <Num_Resolved_Atoms>  (480) 
nan

>  <Num_Not_Resolved_Atoms>  (480) 
nan

$$$$
CHEMBL381773
     RDKit          3D

  0  0  0  0  0  0  0  0  0  0999 V3000
M  V30 BEGIN CTAB
M  V30 COUNTS 43 45 0 0 0
M  V30 BEGIN ATOM
M  V30 1 C -4.398868 -3.713346 1.037725 0
M  V30 2 N -3.366632 -2.642551 1.302305 0
M  V30 3 C -2.167900 -3.432417 1.455914 0
M  V30 4 C -3.414164 -1.728671 0.223611 0
M  V30 5 C -2.690409 -0.439198 0.355994 0
M  V30 6 C -1.248405 -0.424096 0.456699 0
M  V30 7 C -0.792951 0.906609 0.642754 0
M  V30 8 C 0.583352 0.942439 0.756012 0
M  V30 9 C 1.508278 2.050493 0.959636 0
M  V30 10 C 2.164585 2.415941 2.120382 0
M  V30 11 C 3.011049 3.488165 2.119827 0
M  V30 12 N 3.192209 4.176107 0.977093 0
M  V30 13 C 2.586007 3.872236 -0.179312 0
M  V30 14 C 1.718293 2.782506 -0.200350 0
M  V30 15 C 1.015665 -0.351899 0.645625 0
M  V30 16 C 2.390882 -0.822314 0.699698 0
M  V30 17 C 3.354041 -0.543947 -0.250720 0
M  V30 18 C 4.653444 -1.037139 -0.090095 0
M  V30 19 C 4.987013 -1.798329 1.003898 0
M  V30 20 F 6.274873 -2.242139 1.095245 0
M  V30 21 C 4.007922 -2.073775 1.957546 0
M  V30 22 C 2.731305 -1.584081 1.791871 0
M  V30 23 N -0.089607 -1.079011 0.474722 0
M  V30 24 H -5.368657 -3.213672 1.108877 0
M  V30 25 H -4.203272 -4.507329 1.771534 0
M  V30 26 H -4.202228 -4.020378 -0.008217 0
M  V30 27 H -2.430875 -4.367873 2.009923 0
M  V30 28 H -1.460629 -2.886712 2.082527 0
M  V30 29 H -1.702673 -3.716018 0.515269 0
M  V30 30 H -2.877279 -2.270997 -0.639101 0
M  V30 31 H -4.451513 -1.586115 -0.185119 0
M  V30 32 H -3.191837 0.127459 1.213526 0
M  V30 33 H -2.952285 0.156636 -0.598113 0
M  V30 34 H -1.252496 1.910766 0.718153 0
M  V30 35 H 1.938454 1.792790 2.966904 0
M  V30 36 H 3.496891 3.726694 3.063210 0
M  V30 37 H 2.780478 4.477542 -1.077943 0
M  V30 38 H 1.255631 2.588875 -1.178252 0
M  V30 39 H 2.978458 0.063107 -1.071589 0
M  V30 40 H 5.337904 -0.758919 -0.900030 0
M  V30 41 H 4.291505 -2.679380 2.817066 0
M  V30 42 H 2.022878 -1.843002 2.580608 0
M  V30 43 H -0.043470 -2.094435 0.343477 0
M  V30 END ATOM
M  V30 BEGIN BOND
M  V30 1 1 1 2
M  V30 2 1 2 3
M  V30 3 1 2 4
M  V30 4 1 4 5
M  V30 5 1 5 6
M  V30 6 2 6 7
M  V30 7 1 7 8
M  V30 8 1 8 9
M  V30 9 2 9 10
M  V30 10 1 10 11
M  V30 11 2 11 12
M  V30 12 1 12 13
M  V30 13 2 13 14
M  V30 14 2 8 15
M  V30 15 1 15 16
M  V30 16 2 16 17
M  V30 17 1 17 18
M  V30 18 2 18 19
M  V30 19 1 19 20
M  V30 20 1 19 21
M  V30 21 2 21 22
M  V30 22 1 15 23
M  V30 23 1 23 6
M  V30 24 1 14 9
M  V30 25 1 22 16
M  V30 26 1 1 24
M  V30 27 1 1 25
M  V30 28 1 1 26
M  V30 29 1 3 27
M  V30 30 1 3 28
M  V30 31 1 3 29
M  V30 32 1 4 30
M  V30 33 1 4 31
M  V30 34 1 5 32
M  V30 35 1 5 33
M  V30 36 1 7 34
M  V30 37 1 10 35
M  V30 38 1 11 36
M  V30 39 1 13 37
M  V30 40 1 14 38
M  V30 41 1 17 39
M  V30 42 1 18 40
M  V30 43 1 21 41
M  V30 44 1 22 42
M  V30 45 1 23 43
M  V30 END BOND
M  V30 END CTAB
M  END
>  <Dataset>  (481) 
ChEMBL_Kinases

>  <Ligand_Instance>  (481) 
nan

>  <PDB_ID>  (481) 
nan

>  <Standardized_SMILES>  (481) 
CN(C)CCc1cc(-c2ccncc2)c(-c2ccc(F)cc2)[nH]1

>  <Name>  (481) 
nan

>  <Pocket>  (481) 
nan

>  <ATP_Site>  (481) 
nan

>  <Peripheral>  (481) 
nan

>  <Num_H_Atoms_ProtBoundConf>  (481) 
nan

>  <Num_Resolved_Atoms>  (481) 
nan

>  <Num_Not_Resolved_Atoms>  (481) 
nan

$$$$
CHEMBL381724
     RDKit          3D

  0  0  0  0  0  0  0  0  0  0999 V3000
M  V30 BEGIN CTAB
M  V30 COUNTS 67 71 0 0 0
M  V30 BEGIN ATOM
M  V30 1 C 0.090188 -1.509600 3.534647 0
M  V30 2 O 0.205945 -2.486735 2.550193 0
M  V30 3 C 1.330465 -2.666036 1.754365 0
M  V30 4 C 2.349453 -1.756486 2.046444 0
M  V30 5 C 3.531556 -1.834337 1.312294 0
M  V30 6 C 4.602815 -0.964437 1.516420 0
M  V30 7 N 4.355075 0.008361 2.532115 0
M  V30 8 C 3.362362 0.971716 2.110133 0
M  V30 9 C 2.915008 0.938608 0.812945 0
M  V30 10 N 1.925242 1.837113 0.498658 0
M  V30 11 C 1.471888 2.674569 1.475805 0
M  V30 12 N 0.464863 3.541975 1.127281 0
M  V30 13 C -0.512305 4.434587 0.768365 0
M  V30 14 O 0.482972 5.138348 0.472949 0
M  V30 15 C -1.959578 4.522894 0.742296 0
M  V30 16 C -2.648567 3.418979 1.166370 0
M  V30 17 C -4.034498 3.501388 1.143792 0
M  V30 18 C -4.611736 4.675721 0.702242 0
M  V30 19 C -3.864493 5.732196 0.296320 0
M  V30 20 C -2.480554 5.705576 0.296781 0
M  V30 21 N 1.953719 2.657912 2.728070 0
M  V30 22 C 2.917587 1.818148 3.122517 0
M  V30 23 N 5.734580 -1.086250 0.756317 0
M  V30 24 C 5.777221 -2.066955 -0.189789 0
M  V30 25 N 4.758965 -2.930096 -0.419471 0
M  V30 26 C 3.640510 -2.802962 0.337247 0
M  V30 27 C 2.610147 -3.681602 0.080671 0
M  V30 28 C 1.430755 -3.652978 0.763543 0
M  V30 29 O 0.280963 -4.367180 0.719549 0
M  V30 30 C -0.124656 -5.405099 -0.096641 0
M  V30 31 C -0.239914 -5.103188 -1.562832 0
M  V30 32 C -1.143152 -4.017839 -1.982573 0
M  V30 33 N -2.522203 -4.045450 -1.702470 0
M  V30 34 C -3.104977 -2.943823 -2.523423 0
M  V30 35 C -2.414709 -1.637703 -2.252723 0
M  V30 36 O -2.112571 -1.468902 -0.903741 0
M  V30 37 C -2.908221 -2.213065 -0.075201 0
M  V30 38 C -2.953701 -3.691534 -0.367763 0
M  V30 39 H -0.971442 -1.483745 3.886609 0
M  V30 40 H 0.278623 -0.460353 3.169965 0
M  V30 41 H 0.711054 -1.722326 4.414244 0
M  V30 42 H 2.250352 -1.018688 2.818329 0
M  V30 43 H 4.822326 0.042291 3.462397 0
M  V30 44 H 3.271863 0.280238 0.045080 0
M  V30 45 H -0.293060 2.867222 1.411041 0
M  V30 46 H -2.266350 2.482215 1.519291 0
M  V30 47 H -4.655799 2.663192 1.468794 0
M  V30 48 H -5.712876 4.679601 0.709177 0
M  V30 49 H -4.356395 6.636284 -0.044298 0
M  V30 50 H -1.833250 6.507562 -0.010984 0
M  V30 51 H 3.344869 1.762925 4.128122 0
M  V30 52 H 6.720142 -2.078834 -0.738725 0
M  V30 53 H 2.685683 -4.449471 -0.663153 0
M  V30 54 H -1.017510 -5.899332 0.345133 0
M  V30 55 H 0.742040 -6.172312 -0.052888 0
M  V30 56 H -0.414358 -6.060690 -2.142562 0
M  V30 57 H 0.798695 -4.815008 -1.915367 0
M  V30 58 H -0.640977 -3.054336 -1.691295 0
M  V30 59 H -1.076701 -3.960066 -3.125803 0
M  V30 60 H -3.109333 -3.233403 -3.586728 0
M  V30 61 H -4.152985 -2.856935 -2.181559 0
M  V30 62 H -1.478833 -1.597928 -2.838209 0
M  V30 63 H -3.083454 -0.781794 -2.524512 0
M  V30 64 H -2.535221 -2.049246 0.970042 0
M  V30 65 H -3.926354 -1.730822 -0.086006 0
M  V30 66 H -2.577119 -4.307426 0.448511 0
M  V30 67 H -4.069318 -3.934866 -0.381572 0
M  V30 END ATOM
M  V30 BEGIN BOND
M  V30 1 1 1 2
M  V30 2 1 2 3
M  V30 3 2 3 4
M  V30 4 1 4 5
M  V30 5 2 5 6
M  V30 6 1 6 7
M  V30 7 1 7 8
M  V30 8 2 8 9
M  V30 9 1 9 10
M  V30 10 2 10 11
M  V30 11 1 11 12
M  V30 12 1 12 13
M  V30 13 2 13 14
M  V30 14 1 13 15
M  V30 15 2 15 16
M  V30 16 1 16 17
M  V30 17 2 17 18
M  V30 18 1 18 19
M  V30 19 2 19 20
M  V30 20 1 11 21
M  V30 21 2 21 22
M  V30 22 1 6 23
M  V30 23 2 23 24
M  V30 24 1 24 25
M  V30 25 2 25 26
M  V30 26 1 26 27
M  V30 27 2 27 28
M  V30 28 1 28 29
M  V30 29 1 29 30
M  V30 30 1 30 31
M  V30 31 1 31 32
M  V30 32 1 32 33
M  V30 33 1 33 34
M  V30 34 1 34 35
M  V30 35 1 35 36
M  V30 36 1 36 37
M  V30 37 1 37 38
M  V30 38 1 28 3
M  V30 39 1 38 33
M  V30 40 1 26 5
M  V30 41 1 22 8
M  V30 42 1 20 15
M  V30 43 1 1 39
M  V30 44 1 1 40
M  V30 45 1 1 41
M  V30 46 1 4 42
M  V30 47 1 7 43
M  V30 48 1 9 44
M  V30 49 1 12 45
M  V30 50 1 16 46
M  V30 51 1 17 47
M  V30 52 1 18 48
M  V30 53 1 19 49
M  V30 54 1 20 50
M  V30 55 1 22 51
M  V30 56 1 24 52
M  V30 57 1 27 53
M  V30 58 1 30 54
M  V30 59 1 30 55
M  V30 60 1 31 56
M  V30 61 1 31 57
M  V30 62 1 32 58
M  V30 63 1 32 59
M  V30 64 1 34 60
M  V30 65 1 34 61
M  V30 66 1 35 62
M  V30 67 1 35 63
M  V30 68 1 37 64
M  V30 69 1 37 65
M  V30 70 1 38 66
M  V30 71 1 38 67
M  V30 END BOND
M  V30 END CTAB
M  END
>  <Dataset>  (482) 
ChEMBL_Kinases

>  <Ligand_Instance>  (482) 
nan

>  <PDB_ID>  (482) 
nan

>  <Standardized_SMILES>  (482) 
COc1cc2c(Nc3cnc(NC(=O)c4ccccc4)nc3)ncnc2cc1OCCCN1CCOCC1

>  <Name>  (482) 
nan

>  <Pocket>  (482) 
nan

>  <ATP_Site>  (482) 
nan

>  <Peripheral>  (482) 
nan

>  <Num_H_Atoms_ProtBoundConf>  (482) 
nan

>  <Num_Resolved_Atoms>  (482) 
nan

>  <Num_Not_Resolved_Atoms>  (482) 
nan

$$$$
CHEMBL381703
     RDKit          3D

  0  0  0  0  0  0  0  0  0  0999 V3000
M  V30 BEGIN CTAB
M  V30 COUNTS 53 56 0 0 0
M  V30 BEGIN ATOM
M  V30 1 N -0.528101 -1.159425 0.777867 0
M  V30 2 C -1.176987 -1.429972 -0.462436 0 CFG=2
M  V30 3 C -0.543050 -0.868553 -1.690534 0
M  V30 4 N 0.802310 -1.315617 -1.947956 0
M  V30 5 C 2.081220 -1.067854 -1.397495 0
M  V30 6 C 3.201488 -1.747968 -1.881740 0
M  V30 7 N 4.414909 -1.504428 -1.379995 0
M  V30 8 C 4.640182 -0.614119 -0.402062 0
M  V30 9 Cl 6.257756 -0.342674 0.211458 0
M  V30 10 C 3.577328 0.109882 0.139411 0
M  V30 11 C 3.831346 1.073673 1.200107 0
M  V30 12 C 2.961432 1.844377 1.830122 0
M  V30 13 C 3.218852 2.800458 2.883427 0
M  V30 14 C 2.231462 3.541090 3.458126 0
M  V30 15 C 2.491214 4.447634 4.460039 0
M  V30 16 N 3.734277 4.645084 4.919439 0
M  V30 17 C 4.776789 3.938900 4.392010 0
M  V30 18 C 4.477394 3.034124 3.383892 0
M  V30 19 C 2.336560 -0.158433 -0.394223 0
M  V30 20 C -2.622804 -0.950564 -0.306731 0
M  V30 21 C -3.253758 -1.726809 0.837628 0
M  V30 22 C -4.702669 -1.251830 0.999627 0
M  V30 23 N -5.242440 -1.765860 -0.268115 0
M  V30 24 C -4.727744 -3.111320 -0.338444 0
M  V30 25 C -5.163617 -4.310108 -0.893824 0
M  V30 26 C -4.418438 -5.466425 -0.787458 0
M  V30 27 C -3.202294 -5.405880 -0.101630 0
M  V30 28 C -2.744694 -4.230038 0.459683 0
M  V30 29 C -3.504512 -3.101733 0.337887 0
M  V30 30 H -0.717742 -0.222940 1.171506 0
M  V30 31 H -0.612336 -1.940096 1.445234 0
M  V30 32 H -1.162256 -2.548357 -0.586331 0
M  V30 33 H -0.470584 0.254803 -1.540879 0
M  V30 34 H -1.203003 -0.964645 -2.571920 0
M  V30 35 H 0.798631 -2.007405 -2.761122 0
M  V30 36 H 3.105251 -2.481522 -2.669327 0
M  V30 37 H 4.841855 1.205702 1.543786 0
M  V30 38 H 1.919930 1.731580 1.500331 0
M  V30 39 H 1.198025 3.433448 3.135364 0
M  V30 40 H 1.684226 5.020457 4.895720 0
M  V30 41 H 5.775319 4.100378 4.764045 0
M  V30 42 H 5.338742 2.514865 3.015337 0
M  V30 43 H 1.549009 0.412608 0.023266 0
M  V30 44 H -3.223842 -1.121898 -1.220855 0
M  V30 45 H -2.662718 0.101599 -0.019753 0
M  V30 46 H -2.673340 -1.676312 1.754920 0
M  V30 47 H -4.792853 -0.169584 1.090118 0
M  V30 48 H -5.177950 -1.849524 1.790452 0
M  V30 49 H -5.854825 -1.402808 -1.047001 0
M  V30 50 H -6.116145 -4.317141 -1.420367 0
M  V30 51 H -4.749600 -6.403350 -1.216287 0
M  V30 52 H -2.630318 -6.325397 -0.028393 0
M  V30 53 H -1.780822 -4.264056 0.981675 0
M  V30 END ATOM
M  V30 BEGIN BOND
M  V30 1 1 1 2
M  V30 2 1 2 3
M  V30 3 1 3 4
M  V30 4 1 4 5
M  V30 5 2 5 6
M  V30 6 1 6 7
M  V30 7 2 7 8
M  V30 8 1 8 9
M  V30 9 1 8 10
M  V30 10 1 10 11
M  V30 11 2 11 12
M  V30 12 1 12 13
M  V30 13 2 13 14
M  V30 14 1 14 15
M  V30 15 2 15 16
M  V30 16 1 16 17
M  V30 17 2 17 18
M  V30 18 2 10 19
M  V30 19 1 2 20
M  V30 20 1 20 21
M  V30 21 1 21 22
M  V30 22 1 22 23
M  V30 23 1 23 24
M  V30 24 2 24 25
M  V30 25 1 25 26
M  V30 26 2 26 27
M  V30 27 1 27 28
M  V30 28 2 28 29
M  V30 29 1 19 5
M  V30 30 1 29 21
M  V30 31 1 18 13
M  V30 32 1 29 24
M  V30 33 1 1 30
M  V30 34 1 1 31
M  V30 35 1 2 32 CFG=3
M  V30 36 1 3 33
M  V30 37 1 3 34
M  V30 38 1 4 35
M  V30 39 1 6 36
M  V30 40 1 11 37
M  V30 41 1 12 38
M  V30 42 1 14 39
M  V30 43 1 15 40
M  V30 44 1 17 41
M  V30 45 1 18 42
M  V30 46 1 19 43
M  V30 47 1 20 44
M  V30 48 1 20 45
M  V30 49 1 21 46
M  V30 50 1 22 47
M  V30 51 1 22 48
M  V30 52 1 23 49
M  V30 53 1 25 50
M  V30 54 1 26 51
M  V30 55 1 27 52
M  V30 56 1 28 53
M  V30 END BOND
M  V30 END CTAB
M  END
>  <Dataset>  (483) 
ChEMBL_Kinases

>  <Ligand_Instance>  (483) 
nan

>  <PDB_ID>  (483) 
nan

>  <Standardized_SMILES>  (483) 
N[C@H](CNc1cnc(Cl)c(/C=C/c2ccncc2)c1)CC1CNc2ccccc21

>  <Name>  (483) 
nan

>  <Pocket>  (483) 
nan

>  <ATP_Site>  (483) 
nan

>  <Peripheral>  (483) 
nan

>  <Num_H_Atoms_ProtBoundConf>  (483) 
nan

>  <Num_Resolved_Atoms>  (483) 
nan

>  <Num_Not_Resolved_Atoms>  (483) 
nan

$$$$
CHEMBL381696
     RDKit          3D

  0  0  0  0  0  0  0  0  0  0999 V3000
M  V30 BEGIN CTAB
M  V30 COUNTS 35 37 0 0 0
M  V30 BEGIN ATOM
M  V30 1 C 1.596314 -4.066171 2.486711 0
M  V30 2 O 2.139257 -4.409374 1.326098 0
M  V30 3 C 1.704000 -4.104396 0.110868 0
M  V30 4 C 1.502370 -2.680626 -0.289589 0
M  V30 5 C 0.426424 -2.052228 0.470662 0
M  V30 6 N -0.558095 -2.267099 1.364548 0
M  V30 7 N -1.240463 -1.188460 1.619316 0
M  V30 8 C -2.325402 -1.329504 2.576366 0
M  V30 9 C -0.763360 -0.156062 0.909005 0
M  V30 10 C 0.284519 -0.685775 0.183982 0
M  V30 11 C 0.874060 0.305721 -0.613885 0
M  V30 12 O 1.854146 -0.054990 -1.331957 0
M  V30 13 C 0.458135 1.617313 -0.660865 0
M  V30 14 C 1.110911 2.493936 -1.490256 0
M  V30 15 C 0.624761 3.789155 -1.485739 0
M  V30 16 Cl 1.385084 5.001115 -2.513354 0
M  V30 17 C -0.434290 4.244444 -0.730769 0
M  V30 18 C -1.068852 3.317362 0.099661 0
M  V30 19 C -0.605515 2.020396 0.115237 0
M  V30 20 N -1.205799 1.110843 0.898863 0
M  V30 21 O -2.263399 1.529578 1.666678 0
M  V30 22 H 1.621750 -2.954847 2.660455 0
M  V30 23 H 0.577203 -4.469878 2.696478 0
M  V30 24 H 2.229530 -4.484376 3.328895 0
M  V30 25 H 0.691955 -4.615014 -0.024264 0
M  V30 26 H 2.315318 -4.653213 -0.678603 0
M  V30 27 H 1.213208 -2.682757 -1.382426 0
M  V30 28 H 2.481593 -2.119045 -0.183958 0
M  V30 29 H -1.932253 -1.695814 3.552092 0
M  V30 30 H -2.956008 -0.446123 2.669883 0
M  V30 31 H -3.010889 -2.151957 2.221398 0
M  V30 32 H 1.946035 2.186455 -2.100834 0
M  V30 33 H -0.790202 5.247285 -0.744216 0
M  V30 34 H -1.910777 3.606962 0.722708 0
M  V30 35 H -2.077106 1.925688 2.580102 0
M  V30 END ATOM
M  V30 BEGIN BOND
M  V30 1 1 1 2
M  V30 2 1 2 3
M  V30 3 1 3 4
M  V30 4 1 4 5
M  V30 5 2 5 6
M  V30 6 1 6 7
M  V30 7 1 7 8
M  V30 8 1 7 9
M  V30 9 2 9 10
M  V30 10 1 10 11
M  V30 11 2 11 12
M  V30 12 1 11 13
M  V30 13 2 13 14
M  V30 14 1 14 15
M  V30 15 1 15 16
M  V30 16 2 15 17
M  V30 17 1 17 18
M  V30 18 2 18 19
M  V30 19 1 19 20
M  V30 20 1 20 21
M  V30 21 1 10 5
M  V30 22 1 19 13
M  V30 23 1 20 9
M  V30 24 1 1 22
M  V30 25 1 1 23
M  V30 26 1 1 24
M  V30 27 1 3 25
M  V30 28 1 3 26
M  V30 29 1 4 27
M  V30 30 1 4 28
M  V30 31 1 8 29
M  V30 32 1 8 30
M  V30 33 1 8 31
M  V30 34 1 14 32
M  V30 35 1 17 33
M  V30 36 1 18 34
M  V30 37 1 21 35
M  V30 END BOND
M  V30 END CTAB
M  END
>  <Dataset>  (484) 
ChEMBL_Kinases

>  <Ligand_Instance>  (484) 
nan

>  <PDB_ID>  (484) 
nan

>  <Standardized_SMILES>  (484) 
COCCc1nn(C)c2c1c(=O)c1cc(Cl)ccc1n2O

>  <Name>  (484) 
nan

>  <Pocket>  (484) 
nan

>  <ATP_Site>  (484) 
nan

>  <Peripheral>  (484) 
nan

>  <Num_H_Atoms_ProtBoundConf>  (484) 
nan

>  <Num_Resolved_Atoms>  (484) 
nan

>  <Num_Not_Resolved_Atoms>  (484) 
nan

$$$$
CHEMBL381693
     RDKit          3D

  0  0  0  0  0  0  0  0  0  0999 V3000
M  V30 BEGIN CTAB
M  V30 COUNTS 66 66 0 0 0
M  V30 BEGIN ATOM
M  V30 1 C 1.183348 -3.502986 5.382503 0
M  V30 2 C 0.705978 -2.148686 4.834591 0
M  V30 3 C 0.700265 -1.189929 6.003579 0
M  V30 4 C 1.710159 -1.779626 3.769589 0
M  V30 5 C 1.410320 -0.448945 3.101225 0
M  V30 6 C 2.484822 -0.229817 2.091097 0
M  V30 7 C 2.589658 -1.260193 1.039999 0
M  V30 8 C 2.605630 -1.086914 -0.268436 0
M  V30 9 C 2.522044 0.218278 -0.966902 0
M  V30 10 C 1.992552 -0.122808 -2.330668 0
M  V30 11 C 0.538890 -0.258909 -2.416424 0
M  V30 12 C -0.332393 0.577971 -1.885730 0
M  V30 13 C -1.764381 0.344117 -2.033801 0
M  V30 14 O -2.666973 1.083148 -1.564491 0
M  V30 15 O -2.213678 -0.752080 -2.729751 0
M  V30 16 C -3.557538 -1.084701 -2.940601 0
M  V30 17 C -4.317023 -1.307766 -1.659823 0
M  V30 18 C -3.592941 -2.395012 -3.699839 0
M  V30 19 C -4.297228 -0.065980 -3.764935 0
M  V30 20 C 2.559168 0.797834 -3.392640 0
M  V30 21 O 2.202798 0.251662 -4.620214 0
M  V30 22 O 2.584390 -1.388531 -2.553429 0
M  V30 23 C 2.703269 -2.060472 -1.345916 0
M  V30 24 O 2.867332 -3.297772 -1.194798 0
M  V30 25 C 0.013285 -0.425208 2.620983 0
M  V30 26 C -0.418976 0.834743 1.961314 0
M  V30 27 C -1.884707 0.634655 1.553181 0
M  V30 28 C -0.423610 2.022852 2.899998 0
M  V30 29 H 1.915321 -3.317689 6.221606 0
M  V30 30 H 1.731100 -4.057538 4.585771 0
M  V30 31 H 0.357061 -4.131440 5.725176 0
M  V30 32 H -0.308247 -2.343619 4.436738 0
M  V30 33 H -0.172180 -0.507876 5.990443 0
M  V30 34 H 0.728268 -1.691713 6.989970 0
M  V30 35 H 1.625499 -0.577970 5.920940 0
M  V30 36 H 1.594976 -2.571034 2.978074 0
M  V30 37 H 2.715091 -1.806579 4.236298 0
M  V30 38 H 1.590002 0.317247 3.912546 0
M  V30 39 H 3.460851 -0.286328 2.657967 0
M  V30 40 H 2.480876 0.800046 1.674558 0
M  V30 41 H 2.669880 -2.304667 1.303733 0
M  V30 42 H 1.880092 0.944346 -0.458649 0
M  V30 43 H 3.553193 0.637496 -1.111303 0
M  V30 44 H 0.107674 -1.115057 -2.959197 0
M  V30 45 H 0.041418 1.439147 -1.339751 0
M  V30 46 H -3.700129 -1.943668 -1.023324 0
M  V30 47 H -5.222648 -1.914426 -1.926617 0
M  V30 48 H -4.671958 -0.379747 -1.197353 0
M  V30 49 H -4.568949 -2.886408 -3.669985 0
M  V30 50 H -3.277856 -2.155337 -4.742287 0
M  V30 51 H -2.775789 -3.042340 -3.281584 0
M  V30 52 H -4.637085 0.808026 -3.139388 0
M  V30 53 H -5.245916 -0.549301 -4.089173 0
M  V30 54 H -3.771786 0.259237 -4.665250 0
M  V30 55 H 2.189061 1.822986 -3.335656 0
M  V30 56 H 3.669492 0.707662 -3.313249 0
M  V30 57 H 2.392166 -0.709455 -4.671543 0
M  V30 58 H -0.655134 -0.594824 3.494626 0
M  V30 59 H -0.124256 -1.255940 1.894351 0
M  V30 60 H 0.134953 1.088275 1.062536 0
M  V30 61 H -2.501780 0.427251 2.475550 0
M  V30 62 H -1.922194 -0.259392 0.921151 0
M  V30 63 H -2.307788 1.547063 1.125574 0
M  V30 64 H -1.056116 2.819538 2.448111 0
M  V30 65 H 0.595771 2.466579 3.013238 0
M  V30 66 H -0.860609 1.784222 3.882927 0
M  V30 END ATOM
M  V30 BEGIN BOND
M  V30 1 1 1 2
M  V30 2 1 2 3
M  V30 3 1 2 4
M  V30 4 1 4 5
M  V30 5 1 5 6
M  V30 6 1 6 7
M  V30 7 2 7 8
M  V30 8 1 8 9
M  V30 9 1 9 10
M  V30 10 1 10 11
M  V30 11 2 11 12
M  V30 12 1 12 13
M  V30 13 2 13 14
M  V30 14 1 13 15
M  V30 15 1 15 16
M  V30 16 1 16 17
M  V30 17 1 16 18
M  V30 18 1 16 19
M  V30 19 1 10 20
M  V30 20 1 20 21
M  V30 21 1 10 22
M  V30 22 1 22 23
M  V30 23 2 23 24
M  V30 24 1 5 25
M  V30 25 1 25 26
M  V30 26 1 26 27
M  V30 27 1 26 28
M  V30 28 1 23 8
M  V30 29 1 1 29
M  V30 30 1 1 30
M  V30 31 1 1 31
M  V30 32 1 2 32
M  V30 33 1 3 33
M  V30 34 1 3 34
M  V30 35 1 3 35
M  V30 36 1 4 36
M  V30 37 1 4 37
M  V30 38 1 5 38
M  V30 39 1 6 39
M  V30 40 1 6 40
M  V30 41 1 7 41
M  V30 42 1 9 42
M  V30 43 1 9 43
M  V30 44 1 11 44
M  V30 45 1 12 45
M  V30 46 1 17 46
M  V30 47 1 17 47
M  V30 48 1 17 48
M  V30 49 1 18 49
M  V30 50 1 18 50
M  V30 51 1 18 51
M  V30 52 1 19 52
M  V30 53 1 19 53
M  V30 54 1 19 54
M  V30 55 1 20 55
M  V30 56 1 20 56
M  V30 57 1 21 57
M  V30 58 1 25 58
M  V30 59 1 25 59
M  V30 60 1 26 60
M  V30 61 1 27 61
M  V30 62 1 27 62
M  V30 63 1 27 63
M  V30 64 1 28 64
M  V30 65 1 28 65
M  V30 66 1 28 66
M  V30 END BOND
M  V30 END CTAB
M  END
>  <Dataset>  (485) 
ChEMBL_Kinases

>  <Ligand_Instance>  (485) 
nan

>  <PDB_ID>  (485) 
nan

>  <Standardized_SMILES>  (485) 
CC(C)CC(C/C=C1\CC(/C=C/C(=O)OC(C)(C)C)(CO)OC1=O)CC(C)C

>  <Name>  (485) 
nan

>  <Pocket>  (485) 
nan

>  <ATP_Site>  (485) 
nan

>  <Peripheral>  (485) 
nan

>  <Num_H_Atoms_ProtBoundConf>  (485) 
nan

>  <Num_Resolved_Atoms>  (485) 
nan

>  <Num_Not_Resolved_Atoms>  (485) 
nan

$$$$
CHEMBL381661
     RDKit          3D

  0  0  0  0  0  0  0  0  0  0999 V3000
M  V30 BEGIN CTAB
M  V30 COUNTS 52 56 0 0 0
M  V30 BEGIN ATOM
M  V30 1 C 5.182387 -2.256976 2.082525 0
M  V30 2 O 4.555058 -1.263719 1.297271 0
M  V30 3 C 4.508136 -1.269709 -0.068403 0
M  V30 4 C 5.100822 -2.297293 -0.778872 0
M  V30 5 C 5.067920 -2.327273 -2.156178 0
M  V30 6 C 4.424455 -1.299665 -2.817633 0
M  V30 7 C 3.831610 -0.271943 -2.109218 0
M  V30 8 C 3.851989 -0.220591 -0.722501 0
M  V30 9 C 3.313783 0.734567 0.281654 0
M  V30 10 N 2.020371 1.288266 -0.119953 0
M  V30 11 C 1.562618 1.785570 -1.370612 0
M  V30 12 C 0.465588 2.620072 -1.283772 0
M  V30 13 N -0.048369 2.863530 0.029415 0
M  V30 14 C -1.067424 2.012339 0.596004 0
M  V30 15 C -1.592735 2.215153 1.868804 0
M  V30 16 N -2.543947 1.381289 2.337405 0
M  V30 17 C -2.975590 0.364264 1.573775 0
M  V30 18 N -3.981498 -0.598212 1.945909 0
M  V30 19 C -3.632846 -1.808414 2.606244 0
M  V30 20 O -2.402314 -1.967661 2.834399 0
M  V30 21 C -4.622097 -2.794727 2.992571 0
M  V30 22 C -5.977733 -2.676278 2.770355 0
M  V30 23 C -6.920184 -3.599208 3.129864 0
M  V30 24 C -6.465281 -4.739129 3.766946 0
M  V30 25 C -5.115817 -4.905739 4.013046 0
M  V30 26 C -4.202761 -3.941416 3.628871 0
M  V30 27 N -2.495310 0.122114 0.323378 0
M  V30 28 C -1.533659 0.956067 -0.164216 0
M  V30 29 N -0.062662 3.158704 -2.422437 0
M  V30 30 C 0.497964 2.866056 -3.621652 0
M  V30 31 N 1.574532 2.047581 -3.710854 0
M  V30 32 C 2.117610 1.501904 -2.609861 0
M  V30 33 O 3.221283 0.690332 -2.938661 0
M  V30 34 H 6.272095 -2.059546 2.055600 0
M  V30 35 H 5.021694 -3.277241 1.635100 0
M  V30 36 H 4.768124 -2.319271 3.100436 0
M  V30 37 H 5.619143 -3.129462 -0.317666 0
M  V30 38 H 5.517153 -3.109836 -2.754887 0
M  V30 39 H 4.361372 -1.262489 -3.916640 0
M  V30 40 H 3.994237 1.598945 0.406099 0
M  V30 41 H 3.193460 0.209553 1.245086 0
M  V30 42 H 1.300533 1.329147 0.639734 0
M  V30 43 H 0.284741 3.641055 0.606726 0
M  V30 44 H -1.237162 3.025677 2.456191 0
M  V30 45 H -4.974467 -0.381185 1.716541 0
M  V30 46 H -6.341548 -1.788991 2.273303 0
M  V30 47 H -7.971961 -3.453559 2.929987 0
M  V30 48 H -7.180799 -5.503342 4.072358 0
M  V30 49 H -4.747684 -5.793172 4.510687 0
M  V30 50 H -3.141726 -4.082257 3.827392 0
M  V30 51 H -1.118495 0.804138 -1.157343 0
M  V30 52 H 0.089733 3.285437 -4.528629 0
M  V30 END ATOM
M  V30 BEGIN BOND
M  V30 1 1 1 2
M  V30 2 1 2 3
M  V30 3 2 3 4
M  V30 4 1 4 5
M  V30 5 2 5 6
M  V30 6 1 6 7
M  V30 7 2 7 8
M  V30 8 1 8 9
M  V30 9 1 9 10
M  V30 10 1 10 11
M  V30 11 2 11 12
M  V30 12 1 12 13
M  V30 13 1 13 14
M  V30 14 2 14 15
M  V30 15 1 15 16
M  V30 16 2 16 17
M  V30 17 1 17 18
M  V30 18 1 18 19
M  V30 19 2 19 20
M  V30 20 1 19 21
M  V30 21 2 21 22
M  V30 22 1 22 23
M  V30 23 2 23 24
M  V30 24 1 24 25
M  V30 25 2 25 26
M  V30 26 1 17 27
M  V30 27 2 27 28
M  V30 28 1 12 29
M  V30 29 2 29 30
M  V30 30 1 30 31
M  V30 31 2 31 32
M  V30 32 1 32 33
M  V30 33 1 8 3
M  V30 34 1 32 11
M  V30 35 1 33 7
M  V30 36 1 28 14
M  V30 37 1 26 21
M  V30 38 1 1 34
M  V30 39 1 1 35
M  V30 40 1 1 36
M  V30 41 1 4 37
M  V30 42 1 5 38
M  V30 43 1 6 39
M  V30 44 1 9 40
M  V30 45 1 9 41
M  V30 46 1 10 42
M  V30 47 1 13 43
M  V30 48 1 15 44
M  V30 49 1 18 45
M  V30 50 1 22 46
M  V30 51 1 23 47
M  V30 52 1 24 48
M  V30 53 1 25 49
M  V30 54 1 26 50
M  V30 55 1 28 51
M  V30 56 1 30 52
M  V30 END BOND
M  V30 END CTAB
M  END
>  <Dataset>  (486) 
ChEMBL_Kinases

>  <Ligand_Instance>  (486) 
nan

>  <PDB_ID>  (486) 
nan

>  <Standardized_SMILES>  (486) 
COc1cccc2c1CNc1c(Nc3cnc(NC(=O)c4ccccc4)nc3)ncnc1O2

>  <Name>  (486) 
nan

>  <Pocket>  (486) 
nan

>  <ATP_Site>  (486) 
nan

>  <Peripheral>  (486) 
nan

>  <Num_H_Atoms_ProtBoundConf>  (486) 
nan

>  <Num_Resolved_Atoms>  (486) 
nan

>  <Num_Not_Resolved_Atoms>  (486) 
nan

$$$$
CHEMBL381649
     RDKit          3D

  0  0  0  0  0  0  0  0  0  0999 V3000
M  V30 BEGIN CTAB
M  V30 COUNTS 52 56 0 0 0
M  V30 BEGIN ATOM
M  V30 1 C 5.862416 -3.632155 0.556827 0
M  V30 2 O 5.077864 -2.569354 1.086131 0
M  V30 3 C 4.628396 -1.541787 0.261816 0
M  V30 4 C 4.920188 -1.503696 -1.101736 0
M  V30 5 C 4.428444 -0.438138 -1.845924 0
M  V30 6 C 3.662561 0.565002 -1.237270 0
M  V30 7 C 3.383914 0.511701 0.110981 0
M  V30 8 C 3.871990 -0.552461 0.866897 0
M  V30 9 C 2.621552 1.416700 0.975472 0
M  V30 10 N 1.576281 2.156405 0.312974 0
M  V30 11 C 1.193664 2.456565 -1.035798 0
M  V30 12 C -0.040941 3.063933 -1.138256 0
M  V30 13 N -0.732393 3.296256 0.084887 0
M  V30 14 C -1.565396 2.193456 0.499998 0
M  V30 15 C -1.647936 1.040254 -0.276170 0
M  V30 16 N -2.439410 0.013080 0.141486 0
M  V30 17 C -3.145227 0.099951 1.299815 0
M  V30 18 N -3.904234 -1.075908 1.553340 0
M  V30 19 C -3.315719 -2.146925 2.305108 0
M  V30 20 O -2.135030 -1.984315 2.709832 0
M  V30 21 C -4.084142 -3.345093 2.563164 0
M  V30 22 C -5.370181 -3.607723 2.158627 0
M  V30 23 C -6.066634 -4.746666 2.417610 0
M  V30 24 C -5.444423 -5.745926 3.153634 0
M  V30 25 C -4.162693 -5.538393 3.582907 0
M  V30 26 F -3.463663 -6.465243 4.316026 0
M  V30 27 C -3.479523 -4.361277 3.300085 0
M  V30 28 N -3.084270 1.218997 2.082302 0
M  V30 29 C -2.301048 2.259964 1.688185 0
M  V30 30 N -0.473719 3.380434 -2.393663 0
M  V30 31 C 0.297898 3.097165 -3.463201 0
M  V30 32 N 1.499111 2.504521 -3.343597 0
M  V30 33 C 1.994373 2.161355 -2.132189 0
M  V30 34 O 3.265256 1.547712 -2.167329 0
M  V30 35 H 6.793480 -3.263485 0.098856 0
M  V30 36 H 5.284504 -4.117831 -0.264128 0
M  V30 37 H 6.036197 -4.420652 1.310146 0
M  V30 38 H 5.518083 -2.298853 -1.544569 0
M  V30 39 H 4.646072 -0.398275 -2.892361 0
M  V30 40 H 3.653388 -0.597769 1.933777 0
M  V30 41 H 2.128580 0.833661 1.799791 0
M  V30 42 H 3.312379 2.178651 1.432736 0
M  V30 43 H 0.914807 2.594804 1.009261 0
M  V30 44 H -0.707196 4.128307 0.683327 0
M  V30 45 H -1.097391 0.941941 -1.203907 0
M  V30 46 H -4.873603 -1.098401 1.168332 0
M  V30 47 H -5.859296 -2.832675 1.585024 0
M  V30 48 H -7.086676 -4.876849 2.059060 0
M  V30 49 H -5.933774 -6.675435 3.397461 0
M  V30 50 H -2.456547 -4.216199 3.652389 0
M  V30 51 H -2.262164 3.133230 2.312194 0
M  V30 52 H -0.073827 3.360895 -4.446667 0
M  V30 END ATOM
M  V30 BEGIN BOND
M  V30 1 1 1 2
M  V30 2 1 2 3
M  V30 3 2 3 4
M  V30 4 1 4 5
M  V30 5 2 5 6
M  V30 6 1 6 7
M  V30 7 2 7 8
M  V30 8 1 7 9
M  V30 9 1 9 10
M  V30 10 1 10 11
M  V30 11 2 11 12
M  V30 12 1 12 13
M  V30 13 1 13 14
M  V30 14 2 14 15
M  V30 15 1 15 16
M  V30 16 2 16 17
M  V30 17 1 17 18
M  V30 18 1 18 19
M  V30 19 2 19 20
M  V30 20 1 19 21
M  V30 21 2 21 22
M  V30 22 1 22 23
M  V30 23 2 23 24
M  V30 24 1 24 25
M  V30 25 1 25 26
M  V30 26 2 25 27
M  V30 27 1 17 28
M  V30 28 2 28 29
M  V30 29 1 12 30
M  V30 30 2 30 31
M  V30 31 1 31 32
M  V30 32 2 32 33
M  V30 33 1 33 34
M  V30 34 1 8 3
M  V30 35 1 33 11
M  V30 36 1 34 6
M  V30 37 1 29 14
M  V30 38 1 27 21
M  V30 39 1 1 35
M  V30 40 1 1 36
M  V30 41 1 1 37
M  V30 42 1 4 38
M  V30 43 1 5 39
M  V30 44 1 8 40
M  V30 45 1 9 41
M  V30 46 1 9 42
M  V30 47 1 10 43
M  V30 48 1 13 44
M  V30 49 1 15 45
M  V30 50 1 18 46
M  V30 51 1 22 47
M  V30 52 1 23 48
M  V30 53 1 24 49
M  V30 54 1 27 50
M  V30 55 1 29 51
M  V30 56 1 31 52
M  V30 END BOND
M  V30 END CTAB
M  END
>  <Dataset>  (487) 
ChEMBL_Kinases

>  <Ligand_Instance>  (487) 
nan

>  <PDB_ID>  (487) 
nan

>  <Standardized_SMILES>  (487) 
COc1ccc2c(c1)CNc1c(Nc3cnc(NC(=O)c4cccc(F)c4)nc3)ncnc1O2

>  <Name>  (487) 
nan

>  <Pocket>  (487) 
nan

>  <ATP_Site>  (487) 
nan

>  <Peripheral>  (487) 
nan

>  <Num_H_Atoms_ProtBoundConf>  (487) 
nan

>  <Num_Resolved_Atoms>  (487) 
nan

>  <Num_Not_Resolved_Atoms>  (487) 
nan

$$$$
CHEMBL381632
     RDKit          3D

  0  0  0  0  0  0  0  0  0  0999 V3000
M  V30 BEGIN CTAB
M  V30 COUNTS 65 69 0 0 0
M  V30 BEGIN ATOM
M  V30 1 C 1.551960 -1.833789 4.739099 0
M  V30 2 C 2.435221 -0.612709 4.658947 0
M  V30 3 C 2.186370 0.327114 5.796548 0
M  V30 4 C 3.874648 -1.125033 4.779920 0
M  V30 5 N 2.269672 0.122567 3.416473 0
M  V30 6 C 2.599524 -0.738072 2.344222 0
M  V30 7 C 2.057389 -0.306343 1.002218 0
M  V30 8 C 0.549036 -0.191940 1.261762 0
M  V30 9 C -0.196778 -0.235621 0.001339 0
M  V30 10 C 0.028559 0.759416 -0.924503 0
M  V30 11 C -0.662765 0.748723 -2.132439 0
M  V30 12 C -0.465296 1.782914 -3.159657 0
M  V30 13 C 0.450887 1.722596 -4.165144 0
M  V30 14 C 0.537275 2.767325 -5.072966 0
M  V30 15 C -0.276974 3.890844 -5.007451 0
M  V30 16 F -0.178100 4.895753 -5.898803 0
M  V30 17 C -1.193979 3.902318 -3.963213 0
M  V30 18 C -1.312429 2.876525 -3.033227 0
M  V30 19 Cl -2.540936 3.080853 -1.780514 0
M  V30 20 C -1.581904 -0.229633 -2.455343 0
M  V30 21 C -2.261437 -0.228767 -3.657804 0
M  V30 22 C -3.160440 -1.250868 -3.886884 0
M  V30 23 C -3.373735 -2.239556 -2.948206 0
M  V30 24 O -4.190625 -3.204539 -3.108142 0
M  V30 25 N -2.703538 -2.239666 -1.763257 0
M  V30 26 C -2.868200 -3.222410 -0.746523 0
M  V30 27 C -2.247008 -4.436903 -0.835114 0
M  V30 28 Cl -1.239891 -4.783043 -2.214250 0
M  V30 29 C -2.366214 -5.437223 0.120871 0
M  V30 30 C -3.181491 -5.129844 1.216615 0
M  V30 31 C -3.838088 -3.905699 1.355603 0
M  V30 32 C -3.676378 -2.944547 0.360113 0
M  V30 33 Cl -4.475291 -1.389979 0.479677 0
M  V30 34 C -1.822776 -1.246915 -1.527364 0
M  V30 35 C -1.120673 -1.205727 -0.340955 0
M  V30 36 C 0.398995 1.043456 2.060839 0
M  V30 37 C 1.017904 0.773520 3.420911 0
M  V30 38 H 1.965449 -2.723748 4.245647 0
M  V30 39 H 1.488687 -2.116201 5.828047 0
M  V30 40 H 0.497431 -1.645423 4.450773 0
M  V30 41 H 1.121416 0.634461 5.830019 0
M  V30 42 H 2.859872 1.208999 5.626833 0
M  V30 43 H 2.444754 -0.155665 6.772924 0
M  V30 44 H 4.134060 -1.107687 5.860525 0
M  V30 45 H 4.565742 -0.531013 4.155953 0
M  V30 46 H 3.953396 -2.203649 4.499895 0
M  V30 47 H 3.721443 -0.755844 2.243023 0
M  V30 48 H 2.286237 -1.798177 2.450633 0
M  V30 49 H 2.281576 -1.093234 0.277428 0
M  V30 50 H 2.390067 0.703328 0.720980 0
M  V30 51 H 0.234886 -1.065925 1.869399 0
M  V30 52 H 0.736127 1.558125 -0.736545 0
M  V30 53 H 1.087625 0.851654 -4.222298 0
M  V30 54 H 1.280911 2.676202 -5.856452 0
M  V30 55 H -1.817634 4.800207 -3.941945 0
M  V30 56 H -2.091175 0.548390 -4.391047 0
M  V30 57 H -3.729836 -1.303645 -4.823246 0
M  V30 58 H -1.878690 -6.402254 0.060385 0
M  V30 59 H -3.275972 -5.907454 1.962720 0
M  V30 60 H -4.449058 -3.721735 2.212066 0
M  V30 61 H -1.292008 -1.995366 0.407008 0
M  V30 62 H -0.630483 1.384070 2.219757 0
M  V30 63 H 1.006724 1.869231 1.600029 0
M  V30 64 H 1.185687 1.799294 3.863447 0
M  V30 65 H 0.219210 0.330151 4.025436 0
M  V30 END ATOM
M  V30 BEGIN BOND
M  V30 1 1 1 2
M  V30 2 1 2 3
M  V30 3 1 2 4
M  V30 4 1 2 5
M  V30 5 1 5 6
M  V30 6 1 6 7
M  V30 7 1 7 8
M  V30 8 1 8 9
M  V30 9 2 9 10
M  V30 10 1 10 11
M  V30 11 1 11 12
M  V30 12 2 12 13
M  V30 13 1 13 14
M  V30 14 2 14 15
M  V30 15 1 15 16
M  V30 16 1 15 17
M  V30 17 2 17 18
M  V30 18 1 18 19
M  V30 19 2 11 20
M  V30 20 1 20 21
M  V30 21 2 21 22
M  V30 22 1 22 23
M  V30 23 2 23 24
M  V30 24 1 23 25
M  V30 25 1 25 26
M  V30 26 2 26 27
M  V30 27 1 27 28
M  V30 28 1 27 29
M  V30 29 2 29 30
M  V30 30 1 30 31
M  V30 31 2 31 32
M  V30 32 1 32 33
M  V30 33 1 25 34
M  V30 34 2 34 35
M  V30 35 1 8 36
M  V30 36 1 36 37
M  V30 37 1 37 5
M  V30 38 1 35 9
M  V30 39 1 18 12
M  V30 40 1 34 20
M  V30 41 1 32 26
M  V30 42 1 1 38
M  V30 43 1 1 39
M  V30 44 1 1 40
M  V30 45 1 3 41
M  V30 46 1 3 42
M  V30 47 1 3 43
M  V30 48 1 4 44
M  V30 49 1 4 45
M  V30 50 1 4 46
M  V30 51 1 6 47
M  V30 52 1 6 48
M  V30 53 1 7 49
M  V30 54 1 7 50
M  V30 55 1 8 51
M  V30 56 1 10 52
M  V30 57 1 13 53
M  V30 58 1 14 54
M  V30 59 1 17 55
M  V30 60 1 21 56
M  V30 61 1 22 57
M  V30 62 1 29 58
M  V30 63 1 30 59
M  V30 64 1 31 60
M  V30 65 1 35 61
M  V30 66 1 36 62
M  V30 67 1 36 63
M  V30 68 1 37 64
M  V30 69 1 37 65
M  V30 END BOND
M  V30 END CTAB
M  END
>  <Dataset>  (488) 
ChEMBL_Kinases

>  <Ligand_Instance>  (488) 
nan

>  <PDB_ID>  (488) 
nan

>  <Standardized_SMILES>  (488) 
CC(C)(C)N1CCC(c2cc(-c3ccc(F)cc3Cl)c3ccc(=O)n(-c4c(Cl)cccc4Cl)c3c2)CC1

>  <Name>  (488) 
nan

>  <Pocket>  (488) 
nan

>  <ATP_Site>  (488) 
nan

>  <Peripheral>  (488) 
nan

>  <Num_H_Atoms_ProtBoundConf>  (488) 
nan

>  <Num_Resolved_Atoms>  (488) 
nan

>  <Num_Not_Resolved_Atoms>  (488) 
nan

$$$$
CHEMBL381610
     RDKit          3D

  0  0  0  0  0  0  0  0  0  0999 V3000
M  V30 BEGIN CTAB
M  V30 COUNTS 65 69 0 0 0
M  V30 BEGIN ATOM
M  V30 1 N 3.376788 -1.250329 4.836312 0
M  V30 2 C 3.619526 -0.606216 3.534479 0 CFG=2
M  V30 3 C 4.577907 -1.399096 2.712971 0
M  V30 4 O 4.904559 -0.912806 1.469198 0
M  V30 5 C 4.199812 -0.647170 0.358766 0
M  V30 6 C 5.034832 -0.146505 -0.653367 0
M  V30 7 N 4.596390 0.206406 -1.882348 0
M  V30 8 C 3.277729 0.068287 -2.149035 0
M  V30 9 C 2.384833 -0.412738 -1.222291 0
M  V30 10 C 0.955320 -0.589832 -1.434953 0
M  V30 11 C 0.324976 -0.310381 -2.559707 0
M  V30 12 C -1.103805 -0.472250 -2.816817 0
M  V30 13 C -1.656379 -0.137614 -4.048820 0
M  V30 14 C -3.004374 -0.288419 -4.287988 0
M  V30 15 N -3.818744 -0.765309 -3.329045 0
M  V30 16 C -3.353509 -1.111913 -2.106839 0
M  V30 17 N -4.215972 -1.610398 -1.095108 0
M  V30 18 C -4.642367 -2.973799 -0.846159 0
M  V30 19 C -5.382116 -3.408662 -2.079485 0
M  V30 20 C -6.744978 -3.123573 -2.043490 0
M  V30 21 C -7.589646 -3.448714 -3.086407 0
M  V30 22 C -7.040518 -4.075651 -4.187768 0
M  V30 23 C -5.678162 -4.368420 -4.239917 0
M  V30 24 C -4.840394 -4.034351 -3.181177 0
M  V30 25 C -1.993638 -0.953979 -1.882290 0
M  V30 26 C 2.898576 -0.753079 0.008028 0
M  V30 27 C 4.131442 0.777425 3.851342 0
M  V30 28 C 3.047977 1.453178 4.641456 0
M  V30 29 C 3.035993 1.681529 6.017395 0
M  V30 30 N 1.899704 2.311068 6.347974 0
M  V30 31 C 1.166260 2.506587 5.256198 0
M  V30 32 C -0.063955 3.094673 5.037081 0
M  V30 33 C -0.599466 3.161362 3.770985 0
M  V30 34 C 0.073637 2.641214 2.664023 0
M  V30 35 C 1.295056 2.066704 2.939171 0
M  V30 36 C 1.859638 1.981730 4.183241 0
M  V30 37 H 4.200665 -1.211279 5.446625 0
M  V30 38 H 3.023958 -2.225341 4.700662 0
M  V30 39 H 2.634695 -0.591344 3.043309 0
M  V30 40 H 5.540337 -1.434677 3.311900 0
M  V30 41 H 4.282889 -2.491198 2.678588 0
M  V30 42 H 6.116526 0.017499 -0.578356 0
M  V30 43 H 2.907080 0.345324 -3.123614 0
M  V30 44 H 0.325217 -0.972964 -0.647858 0
M  V30 45 H 0.923307 0.078236 -3.377208 0
M  V30 46 H -0.996748 0.251402 -4.833732 0
M  V30 47 H -3.398554 -0.017916 -5.258653 0
M  V30 48 H -4.440841 -0.719351 -0.601006 0
M  V30 49 H -5.275373 -3.005789 0.035233 0
M  V30 50 H -3.742671 -3.649075 -0.750407 0
M  V30 51 H -7.265158 -2.628906 -1.210796 0
M  V30 52 H -8.652659 -3.245542 -3.098928 0
M  V30 53 H -7.680922 -4.348745 -5.034590 0
M  V30 54 H -5.217523 -4.864273 -5.098850 0
M  V30 55 H -3.778176 -4.220631 -3.132978 0
M  V30 56 H -1.661992 -1.234994 -0.912903 0
M  V30 57 H 2.262777 -1.143281 0.787966 0
M  V30 58 H 4.429318 1.355277 2.965613 0
M  V30 59 H 5.024897 0.748395 4.511441 0
M  V30 60 H 3.823892 1.395359 6.721705 0
M  V30 61 H 1.669272 2.587328 7.334052 0
M  V30 62 H -0.613477 3.507485 5.867494 0
M  V30 63 H -1.561760 3.623264 3.615129 0
M  V30 64 H -0.316900 2.678219 1.665726 0
M  V30 65 H 1.823930 1.660751 2.083616 0
M  V30 END ATOM
M  V30 BEGIN BOND
M  V30 1 1 1 2
M  V30 2 1 2 3
M  V30 3 1 3 4
M  V30 4 1 4 5
M  V30 5 2 5 6
M  V30 6 1 6 7
M  V30 7 2 7 8
M  V30 8 1 8 9
M  V30 9 1 9 10
M  V30 10 2 10 11
M  V30 11 1 11 12
M  V30 12 2 12 13
M  V30 13 1 13 14
M  V30 14 2 14 15
M  V30 15 1 15 16
M  V30 16 1 16 17
M  V30 17 1 17 18
M  V30 18 1 18 19
M  V30 19 2 19 20
M  V30 20 1 20 21
M  V30 21 2 21 22
M  V30 22 1 22 23
M  V30 23 2 23 24
M  V30 24 2 16 25
M  V30 25 2 9 26
M  V30 26 1 2 27
M  V30 27 1 27 28
M  V30 28 2 28 29
M  V30 29 1 29 30
M  V30 30 1 30 31
M  V30 31 2 31 32
M  V30 32 1 32 33
M  V30 33 2 33 34
M  V30 34 1 34 35
M  V30 35 2 35 36
M  V30 36 1 26 5
M  V30 37 1 36 28
M  V30 38 1 25 12
M  V30 39 1 36 31
M  V30 40 1 24 19
M  V30 41 1 1 37
M  V30 42 1 1 38
M  V30 43 1 2 39 CFG=3
M  V30 44 1 3 40
M  V30 45 1 3 41
M  V30 46 1 6 42
M  V30 47 1 8 43
M  V30 48 1 10 44
M  V30 49 1 11 45
M  V30 50 1 13 46
M  V30 51 1 14 47
M  V30 52 1 17 48
M  V30 53 1 18 49
M  V30 54 1 18 50
M  V30 55 1 20 51
M  V30 56 1 21 52
M  V30 57 1 22 53
M  V30 58 1 23 54
M  V30 59 1 24 55
M  V30 60 1 25 56
M  V30 61 1 26 57
M  V30 62 1 27 58
M  V30 63 1 27 59
M  V30 64 1 29 60
M  V30 65 1 30 61
M  V30 66 1 32 62
M  V30 67 1 33 63
M  V30 68 1 34 64
M  V30 69 1 35 65
M  V30 END BOND
M  V30 END CTAB
M  END
>  <Dataset>  (489) 
ChEMBL_Kinases

>  <Ligand_Instance>  (489) 
nan

>  <PDB_ID>  (489) 
nan

>  <Standardized_SMILES>  (489) 
N[C@H](COc1cncc(/C=C/c2ccnc(NCc3ccccc3)c2)c1)Cc1c[nH]c2ccccc12

>  <Name>  (489) 
nan

>  <Pocket>  (489) 
nan

>  <ATP_Site>  (489) 
nan

>  <Peripheral>  (489) 
nan

>  <Num_H_Atoms_ProtBoundConf>  (489) 
nan

>  <Num_Resolved_Atoms>  (489) 
nan

>  <Num_Not_Resolved_Atoms>  (489) 
nan

$$$$
CHEMBL381532
     RDKit          3D

  0  0  0  0  0  0  0  0  0  0999 V3000
M  V30 BEGIN CTAB
M  V30 COUNTS 63 68 0 0 0
M  V30 BEGIN ATOM
M  V30 1 C 4.228374 -2.700462 1.928483 0
M  V30 2 C 4.150908 -1.217719 2.141023 0
M  V30 3 C 4.747028 -0.668700 3.259895 0
M  V30 4 C 4.676049 0.692574 3.462054 0
M  V30 5 C 4.020687 1.524625 2.569677 0
M  V30 6 C 3.435359 0.948535 1.462409 0
M  V30 7 C 2.675391 1.544747 0.360206 0
M  V30 8 N 2.934964 2.012164 -0.874380 0
M  V30 9 N 1.831384 2.437637 -1.424885 0
M  V30 10 C 0.785710 2.278017 -0.592996 0
M  V30 11 C 1.321136 1.701035 0.565334 0
M  V30 12 C 0.460682 1.379248 1.727487 0
M  V30 13 C 0.391215 2.044152 2.954485 0
M  V30 14 C -0.474440 1.564359 3.887366 0
M  V30 15 C -1.262457 0.465712 3.654620 0
M  V30 16 N -2.165909 -0.168105 4.413627 0
M  V30 17 C -2.668756 -1.205130 3.720264 0
M  V30 18 N -2.099129 -1.258388 2.502356 0
M  V30 19 C -2.274962 -2.187860 1.373875 0
M  V30 20 C -3.335989 -1.655064 0.488386 0
M  V30 21 C -3.665784 -2.480739 -0.691476 0
M  V30 22 N -2.715806 -2.756663 -1.680443 0
M  V30 23 C -1.627084 -3.619034 -1.472487 0
M  V30 24 C -2.179428 -4.946693 -0.974218 0
M  V30 25 O -3.380628 -5.246714 -1.615135 0
M  V30 26 C -3.499242 -4.700043 -2.876272 0
M  V30 27 C -3.361455 -3.206461 -2.938630 0
M  V30 28 C -1.227937 -0.220513 2.464179 0
M  V30 29 C -0.337802 0.273985 1.504656 0
M  V30 30 C -0.479910 2.760726 -1.210231 0
M  V30 31 C 0.061657 3.712015 -2.276188 0
M  V30 32 C 1.360721 3.037548 -2.658678 0
M  V30 33 N 3.512595 -0.400106 1.273379 0
M  V30 34 H 4.047142 -3.263852 2.868303 0
M  V30 35 H 5.186442 -3.016409 1.510604 0
M  V30 36 H 3.418407 -2.981346 1.223288 0
M  V30 37 H 5.276292 -1.279448 3.996121 0
M  V30 38 H 5.110533 1.217304 4.306299 0
M  V30 39 H 3.878943 2.579828 2.581724 0
M  V30 40 H 1.068339 2.886922 2.990457 0
M  V30 41 H -0.474746 2.130362 4.812689 0
M  V30 42 H -3.410187 -1.931666 4.005796 0
M  V30 43 H -1.287542 -2.339035 0.949816 0
M  V30 44 H -2.611773 -3.172621 1.782249 0
M  V30 45 H -3.147026 -0.586617 0.185565 0
M  V30 46 H -4.267294 -1.550863 1.141632 0
M  V30 47 H -4.559138 -2.004604 -1.237325 0
M  V30 48 H -4.155653 -3.420381 -0.280025 0
M  V30 49 H -1.249209 -3.898732 -2.528774 0
M  V30 50 H -0.732438 -3.277952 -0.979192 0
M  V30 51 H -2.405282 -4.824390 0.098892 0
M  V30 52 H -1.396114 -5.698302 -1.105785 0
M  V30 53 H -4.533253 -4.929682 -3.218399 0
M  V30 54 H -2.824630 -5.196100 -3.631209 0
M  V30 55 H -2.617994 -2.948522 -3.724978 0
M  V30 56 H -4.281991 -2.665619 -3.150778 0
M  V30 57 H -0.335149 -0.294984 0.566584 0
M  V30 58 H -1.125010 3.276252 -0.496545 0
M  V30 59 H -1.016283 1.949566 -1.755351 0
M  V30 60 H -0.607238 3.836085 -3.130586 0
M  V30 61 H 0.285990 4.666296 -1.761658 0
M  V30 62 H 1.229510 2.232163 -3.393440 0
M  V30 63 H 2.043740 3.835091 -3.033425 0
M  V30 END ATOM
M  V30 BEGIN BOND
M  V30 1 1 1 2
M  V30 2 2 2 3
M  V30 3 1 3 4
M  V30 4 2 4 5
M  V30 5 1 5 6
M  V30 6 1 6 7
M  V30 7 2 7 8
M  V30 8 1 8 9
M  V30 9 1 9 10
M  V30 10 2 10 11
M  V30 11 1 11 12
M  V30 12 2 12 13
M  V30 13 1 13 14
M  V30 14 2 14 15
M  V30 15 1 15 16
M  V30 16 2 16 17
M  V30 17 1 17 18
M  V30 18 1 18 19
M  V30 19 1 19 20
M  V30 20 1 20 21
M  V30 21 1 21 22
M  V30 22 1 22 23
M  V30 23 1 23 24
M  V30 24 1 24 25
M  V30 25 1 25 26
M  V30 26 1 26 27
M  V30 27 1 18 28
M  V30 28 2 28 29
M  V30 29 1 10 30
M  V30 30 1 30 31
M  V30 31 1 31 32
M  V30 32 2 6 33
M  V30 33 1 33 2
M  V30 34 1 11 7
M  V30 35 1 29 12
M  V30 36 1 32 9
M  V30 37 1 28 15
M  V30 38 1 27 22
M  V30 39 1 1 34
M  V30 40 1 1 35
M  V30 41 1 1 36
M  V30 42 1 3 37
M  V30 43 1 4 38
M  V30 44 1 5 39
M  V30 45 1 13 40
M  V30 46 1 14 41
M  V30 47 1 17 42
M  V30 48 1 19 43
M  V30 49 1 19 44
M  V30 50 1 20 45
M  V30 51 1 20 46
M  V30 52 1 21 47
M  V30 53 1 21 48
M  V30 54 1 23 49
M  V30 55 1 23 50
M  V30 56 1 24 51
M  V30 57 1 24 52
M  V30 58 1 26 53
M  V30 59 1 26 54
M  V30 60 1 27 55
M  V30 61 1 27 56
M  V30 62 1 29 57
M  V30 63 1 30 58
M  V30 64 1 30 59
M  V30 65 1 31 60
M  V30 66 1 31 61
M  V30 67 1 32 62
M  V30 68 1 32 63
M  V30 END BOND
M  V30 END CTAB
M  END
>  <Dataset>  (490) 
ChEMBL_Kinases

>  <Ligand_Instance>  (490) 
nan

>  <PDB_ID>  (490) 
nan

>  <Standardized_SMILES>  (490) 
Cc1cccc(-c2nn3c(c2-c2ccc4ncn(CCCN5CCOCC5)c4c2)CCC3)n1

>  <Name>  (490) 
nan

>  <Pocket>  (490) 
nan

>  <ATP_Site>  (490) 
nan

>  <Peripheral>  (490) 
nan

>  <Num_H_Atoms_ProtBoundConf>  (490) 
nan

>  <Num_Resolved_Atoms>  (490) 
nan

>  <Num_Not_Resolved_Atoms>  (490) 
nan

$$$$
CHEMBL3814539
     RDKit          3D

  0  0  0  0  0  0  0  0  0  0999 V3000
M  V30 BEGIN CTAB
M  V30 COUNTS 38 41 0 0 0
M  V30 BEGIN ATOM
M  V30 1 C -1.151507 -4.905299 3.854043 0
M  V30 2 C 0.243510 -4.334431 3.875593 0
M  V30 3 C 0.223880 -3.046159 3.134027 0
M  V30 4 C 0.467558 -2.998097 1.757009 0
M  V30 5 C 0.441321 -1.785897 1.102274 0
M  V30 6 C 0.690343 -1.694548 -0.332838 0
M  V30 7 C 0.970981 -2.660160 -1.245114 0
M  V30 8 N 1.127936 -2.101208 -2.480405 0
M  V30 9 C 0.946186 -0.765912 -2.357983 0
M  V30 10 N 0.995138 0.224436 -3.281717 0
M  V30 11 C 0.779935 1.525354 -2.951976 0
M  V30 12 C 0.504464 1.837115 -1.636834 0
M  V30 13 C 0.264025 3.213182 -1.217434 0
M  V30 14 C -0.015600 3.645459 0.041664 0
M  V30 15 C -0.175445 5.015633 0.020049 0
M  V30 16 N 0.013263 5.379861 -1.262730 0
M  V30 17 N 0.276207 4.304153 -2.004944 0
M  V30 18 C 0.457402 0.821848 -0.707112 0
M  V30 19 C 0.678866 -0.513460 -1.048716 0
M  V30 20 N 0.179646 -0.719678 1.843624 0
M  V30 21 C -0.061871 -0.701893 3.165273 0
M  V30 22 N -0.326503 0.542103 3.805692 0
M  V30 23 N -0.033633 -1.901556 3.800717 0
M  V30 24 H -1.768244 -4.523223 3.017717 0
M  V30 25 H -1.058727 -6.004830 3.688220 0
M  V30 26 H -1.699929 -4.718162 4.803494 0
M  V30 27 H 1.004528 -5.025539 3.472435 0
M  V30 28 H 0.469030 -4.119209 4.956136 0
M  V30 29 H 0.674953 -3.929416 1.226308 0
M  V30 30 H 1.048932 -3.713110 -0.980690 0
M  V30 31 H 1.350082 -2.610247 -3.370970 0
M  V30 32 H 0.825448 2.289026 -3.707140 0
M  V30 33 H -0.099825 3.006356 0.928771 0
M  V30 34 H -0.407414 5.625578 0.898801 0
M  V30 35 H 0.457761 4.334494 -3.027819 0
M  V30 36 H 0.241866 1.093677 0.303537 0
M  V30 37 H 0.176139 1.103033 4.512633 0
M  V30 38 H -1.235984 0.989592 3.488584 0
M  V30 END ATOM
M  V30 BEGIN BOND
M  V30 1 1 1 2
M  V30 2 1 2 3
M  V30 3 2 3 4
M  V30 4 1 4 5
M  V30 5 1 5 6
M  V30 6 2 6 7
M  V30 7 1 7 8
M  V30 8 1 8 9
M  V30 9 2 9 10
M  V30 10 1 10 11
M  V30 11 2 11 12
M  V30 12 1 12 13
M  V30 13 2 13 14
M  V30 14 1 14 15
M  V30 15 2 15 16
M  V30 16 1 16 17
M  V30 17 1 12 18
M  V30 18 2 18 19
M  V30 19 2 5 20
M  V30 20 1 20 21
M  V30 21 1 21 22
M  V30 22 2 21 23
M  V30 23 1 23 3
M  V30 24 1 19 6
M  V30 25 1 19 9
M  V30 26 1 17 13
M  V30 27 1 1 24
M  V30 28 1 1 25
M  V30 29 1 1 26
M  V30 30 1 2 27
M  V30 31 1 2 28
M  V30 32 1 4 29
M  V30 33 1 7 30
M  V30 34 1 8 31
M  V30 35 1 11 32
M  V30 36 1 14 33
M  V30 37 1 15 34
M  V30 38 1 17 35
M  V30 39 1 18 36
M  V30 40 1 22 37
M  V30 41 1 22 38
M  V30 END BOND
M  V30 END CTAB
M  END
>  <Dataset>  (491) 
ChEMBL_Kinases

>  <Ligand_Instance>  (491) 
nan

>  <PDB_ID>  (491) 
nan

>  <Standardized_SMILES>  (491) 
CCc1cc(-c2c[nH]c3ncc(-c4ccn[nH]4)cc23)nc(N)n1

>  <Name>  (491) 
nan

>  <Pocket>  (491) 
nan

>  <ATP_Site>  (491) 
nan

>  <Peripheral>  (491) 
nan

>  <Num_H_Atoms_ProtBoundConf>  (491) 
nan

>  <Num_Resolved_Atoms>  (491) 
nan

>  <Num_Not_Resolved_Atoms>  (491) 
nan

$$$$
CHEMBL381517
     RDKit          3D

  0  0  0  0  0  0  0  0  0  0999 V3000
M  V30 BEGIN CTAB
M  V30 COUNTS 46 47 0 0 0
M  V30 BEGIN ATOM
M  V30 1 C 0.186705 -1.462899 3.751358 0
M  V30 2 O -0.672079 -0.735989 2.930847 0
M  V30 3 C -0.317183 0.120132 1.904816 0
M  V30 4 C 0.951923 0.408632 1.509420 0
M  V30 5 C 1.279537 1.261593 0.488002 0
M  V30 6 N 2.577806 1.595046 0.043492 0
M  V30 7 C 3.837037 1.162403 0.518833 0
M  V30 8 O 3.880231 0.360186 1.479822 0
M  V30 9 C 5.137869 1.597646 -0.048575 0
M  V30 10 N 6.217583 0.962587 0.679449 0
M  V30 11 C 6.264857 -0.454538 0.453164 0
M  V30 12 C 6.205889 1.216538 2.092500 0
M  V30 13 C 0.212134 1.842081 -0.151201 0
M  V30 14 Cl 0.483104 2.967620 -1.491910 0
M  V30 15 C -1.085902 1.578273 0.216279 0
M  V30 16 C -1.375698 0.713453 1.249932 0
M  V30 17 N -2.751902 0.465972 1.598127 0
M  V30 18 C -3.274367 -0.624775 0.875249 0
M  V30 19 O -2.491385 -1.211017 0.053208 0
M  V30 20 N -4.602112 -1.142808 0.971934 0
M  V30 21 C -5.020163 -2.270427 0.175992 0
M  V30 22 C -6.298022 -2.767917 0.271199 0
M  V30 23 N -6.583906 -3.829922 -0.521607 0
M  V30 24 C -5.700049 -4.374203 -1.348276 0
M  V30 25 C -5.970419 -5.502524 -2.204089 0
M  V30 26 N -6.203775 -6.402800 -2.900330 0
M  V30 27 C -4.409116 -3.870667 -1.443774 0
M  V30 28 N -4.112983 -2.816286 -0.661611 0
M  V30 29 H -0.146810 -1.505347 4.810119 0
M  V30 30 H 1.235623 -1.105609 3.737222 0
M  V30 31 H 0.167595 -2.534630 3.394192 0
M  V30 32 H 1.736886 -0.083568 2.056055 0
M  V30 33 H 2.692624 2.257521 -0.754104 0
M  V30 34 H 5.254565 2.687436 -0.008205 0
M  V30 35 H 5.228907 1.221026 -1.105197 0
M  V30 36 H 5.689743 -0.762794 -0.445704 0
M  V30 37 H 5.906286 -0.967573 1.359690 0
M  V30 38 H 7.352660 -0.745214 0.377223 0
M  V30 39 H 5.920660 0.323878 2.707236 0
M  V30 40 H 5.442067 1.986099 2.375525 0
M  V30 41 H 7.167702 1.631439 2.461071 0
M  V30 42 H -1.881041 2.062823 -0.322045 0
M  V30 43 H -3.383808 0.935047 2.258467 0
M  V30 44 H -5.235716 -0.678285 1.628217 0
M  V30 45 H -7.027920 -2.334027 0.940394 0
M  V30 46 H -3.597343 -4.220079 -2.074507 0
M  V30 END ATOM
M  V30 BEGIN BOND
M  V30 1 1 1 2
M  V30 2 1 2 3
M  V30 3 2 3 4
M  V30 4 1 4 5
M  V30 5 1 5 6
M  V30 6 1 6 7
M  V30 7 2 7 8
M  V30 8 1 7 9
M  V30 9 1 9 10
M  V30 10 1 10 11
M  V30 11 1 10 12
M  V30 12 2 5 13
M  V30 13 1 13 14
M  V30 14 1 13 15
M  V30 15 2 15 16
M  V30 16 1 16 17
M  V30 17 1 17 18
M  V30 18 2 18 19
M  V30 19 1 18 20
M  V30 20 1 20 21
M  V30 21 2 21 22
M  V30 22 1 22 23
M  V30 23 2 23 24
M  V30 24 1 24 25
M  V30 25 3 25 26
M  V30 26 1 24 27
M  V30 27 2 27 28
M  V30 28 1 16 3
M  V30 29 1 28 21
M  V30 30 1 1 29
M  V30 31 1 1 30
M  V30 32 1 1 31
M  V30 33 1 4 32
M  V30 34 1 6 33
M  V30 35 1 9 34
M  V30 36 1 9 35
M  V30 37 1 11 36
M  V30 38 1 11 37
M  V30 39 1 11 38
M  V30 40 1 12 39
M  V30 41 1 12 40
M  V30 42 1 12 41
M  V30 43 1 15 42
M  V30 44 1 17 43
M  V30 45 1 20 44
M  V30 46 1 22 45
M  V30 47 1 27 46
M  V30 END BOND
M  V30 END CTAB
M  END
>  <Dataset>  (492) 
ChEMBL_Kinases

>  <Ligand_Instance>  (492) 
nan

>  <PDB_ID>  (492) 
nan

>  <Standardized_SMILES>  (492) 
COc1cc(NC(=O)CN(C)C)c(Cl)cc1NC(=O)Nc1cnc(C#N)cn1

>  <Name>  (492) 
nan

>  <Pocket>  (492) 
nan

>  <ATP_Site>  (492) 
nan

>  <Peripheral>  (492) 
nan

>  <Num_H_Atoms_ProtBoundConf>  (492) 
nan

>  <Num_Resolved_Atoms>  (492) 
nan

>  <Num_Not_Resolved_Atoms>  (492) 
nan

$$$$
CHEMBL3815097
     RDKit          3D

  0  0  0  0  0  0  0  0  0  0999 V3000
M  V30 BEGIN CTAB
M  V30 COUNTS 26 28 0 0 0
M  V30 BEGIN ATOM
M  V30 1 C -0.828729 -3.842443 4.586345 0
M  V30 2 O -0.361481 -3.613321 3.268887 0
M  V30 3 C -0.355020 -2.324235 2.751160 0
M  V30 4 C -0.755644 -1.145412 3.346583 0
M  V30 5 C -0.663789 0.039243 2.644881 0
M  V30 6 C -0.180204 0.090933 1.353322 0
M  V30 7 N 0.006559 1.091638 0.473534 0
M  V30 8 C 0.512451 0.585429 -0.659943 0
M  V30 9 C 0.853227 1.352871 -1.854050 0
M  V30 10 C 1.374318 0.855900 -3.031071 0
M  V30 11 C 1.535483 1.948250 -3.879149 0
M  V30 12 N 1.117482 3.052111 -3.208927 0
M  V30 13 N 0.707490 2.684137 -1.988014 0
M  V30 14 N 0.644704 -0.740531 -0.492578 0
M  V30 15 C 0.228383 -1.099506 0.741480 0
M  V30 16 C 0.135632 -2.283411 1.445247 0
M  V30 17 H -0.050832 -3.679477 5.363033 0
M  V30 18 H -1.678771 -3.175471 4.842174 0
M  V30 19 H -1.271668 -4.877040 4.677247 0
M  V30 20 H -1.120133 -1.274999 4.355267 0
M  V30 21 H -0.985132 0.920566 3.147432 0
M  V30 22 H -0.211633 2.113648 0.650181 0
M  V30 23 H 1.593254 -0.191871 -3.199695 0
M  V30 24 H 1.932656 1.889655 -4.900669 0
M  V30 25 H 1.119705 4.028830 -3.594187 0
M  V30 26 H 0.477651 -3.142424 0.879658 0
M  V30 END ATOM
M  V30 BEGIN BOND
M  V30 1 1 1 2
M  V30 2 1 2 3
M  V30 3 2 3 4
M  V30 4 1 4 5
M  V30 5 2 5 6
M  V30 6 1 6 7
M  V30 7 1 7 8
M  V30 8 1 8 9
M  V30 9 1 9 10
M  V30 10 2 10 11
M  V30 11 1 11 12
M  V30 12 1 12 13
M  V30 13 2 8 14
M  V30 14 1 14 15
M  V30 15 2 15 16
M  V30 16 1 16 3
M  V30 17 1 15 6
M  V30 18 2 13 9
M  V30 19 1 1 17
M  V30 20 1 1 18
M  V30 21 1 1 19
M  V30 22 1 4 20
M  V30 23 1 5 21
M  V30 24 1 7 22
M  V30 25 1 10 23
M  V30 26 1 11 24
M  V30 27 1 12 25
M  V30 28 1 16 26
M  V30 END BOND
M  V30 END CTAB
M  END
>  <Dataset>  (493) 
ChEMBL_Kinases

>  <Ligand_Instance>  (493) 
nan

>  <PDB_ID>  (493) 
nan

>  <Standardized_SMILES>  (493) 
COc1ccc2[nH]c(-c3cc[nH]n3)nc2c1

>  <Name>  (493) 
nan

>  <Pocket>  (493) 
nan

>  <ATP_Site>  (493) 
nan

>  <Peripheral>  (493) 
nan

>  <Num_H_Atoms_ProtBoundConf>  (493) 
nan

>  <Num_Resolved_Atoms>  (493) 
nan

>  <Num_Not_Resolved_Atoms>  (493) 
nan

$$$$
CHEMBL495938
     RDKit          3D

  0  0  0  0  0  0  0  0  0  0999 V3000
M  V30 BEGIN CTAB
M  V30 COUNTS 42 45 0 0 0
M  V30 BEGIN ATOM
M  V30 1 N 1.115536 -7.386301 -1.461369 0
M  V30 2 C 1.427393 -6.306006 -1.184006 0
M  V30 3 C 1.812189 -4.973055 -0.818237 0
M  V30 4 C 1.364438 -3.863631 -1.505154 0
M  V30 5 C 1.746150 -2.590065 -1.137577 0
M  V30 6 C 2.590709 -2.400856 -0.066058 0
M  V30 7 C 3.106332 -1.153370 0.476875 0
M  V30 8 C 4.432483 -0.934953 0.843311 0
M  V30 9 N 4.558055 0.315274 1.301546 0
M  V30 10 C 3.347001 0.894891 1.235282 0
M  V30 11 C 2.953904 2.163116 1.585817 0
M  V30 12 C 1.634972 2.502276 1.413027 0
M  V30 13 C 0.717856 1.579883 0.893910 0
M  V30 14 N -0.647719 1.890732 0.701145 0
M  V30 15 C -1.590519 0.923954 0.161004 0
M  V30 16 C -1.651511 -0.296032 1.064038 0
M  V30 17 C -1.807771 0.255723 2.471051 0
M  V30 18 C -3.239286 0.768890 2.518829 0
M  V30 19 N -3.424276 1.804955 1.561623 0
M  V30 20 C -2.979675 1.538623 0.235663 0
M  V30 21 N 1.222133 0.364302 0.585922 0
M  V30 22 N 2.464900 0.000879 0.733632 0
M  V30 23 C 3.035035 -3.533798 0.618750 0
M  V30 24 C 2.661722 -4.816533 0.262912 0
M  V30 25 H 0.701242 -3.972908 -2.350399 0
M  V30 26 H 1.441187 -1.676362 -1.620965 0
M  V30 27 H 5.202853 -1.689963 0.752381 0
M  V30 28 H 3.601386 2.925349 1.990550 0
M  V30 29 H 1.219388 3.484316 1.660054 0
M  V30 30 H -0.951771 2.864673 0.969956 0
M  V30 31 H -1.410356 0.673147 -0.888417 0
M  V30 32 H -2.597299 -0.858951 0.811968 0
M  V30 33 H -0.782639 -0.963926 0.968311 0
M  V30 34 H -1.160274 1.154149 2.630502 0
M  V30 35 H -1.609865 -0.487258 3.261612 0
M  V30 36 H -3.882725 -0.097383 2.250995 0
M  V30 37 H -3.435979 1.174438 3.522175 0
M  V30 38 H -3.353489 2.769829 1.892844 0
M  V30 39 H -3.022006 2.499493 -0.327224 0
M  V30 40 H -3.667848 0.842674 -0.272623 0
M  V30 41 H 3.709711 -3.491658 1.485413 0
M  V30 42 H 3.013326 -5.691101 0.802642 0
M  V30 END ATOM
M  V30 BEGIN BOND
M  V30 1 3 1 2
M  V30 2 1 2 3
M  V30 3 2 3 4
M  V30 4 1 4 5
M  V30 5 2 5 6
M  V30 6 1 6 7
M  V30 7 2 7 8
M  V30 8 1 8 9
M  V30 9 2 9 10
M  V30 10 1 10 11
M  V30 11 2 11 12
M  V30 12 1 12 13
M  V30 13 1 13 14
M  V30 14 1 14 15
M  V30 15 1 15 16
M  V30 16 1 16 17
M  V30 17 1 17 18
M  V30 18 1 18 19
M  V30 19 1 19 20
M  V30 20 2 13 21
M  V30 21 1 21 22
M  V30 22 1 6 23
M  V30 23 2 23 24
M  V30 24 1 24 3
M  V30 25 1 22 7
M  V30 26 1 22 10
M  V30 27 1 20 15
M  V30 28 1 4 25
M  V30 29 1 5 26
M  V30 30 1 8 27
M  V30 31 1 11 28
M  V30 32 1 12 29
M  V30 33 1 14 30
M  V30 34 1 15 31
M  V30 35 1 16 32
M  V30 36 1 16 33
M  V30 37 1 17 34
M  V30 38 1 17 35
M  V30 39 1 18 36
M  V30 40 1 18 37
M  V30 41 1 19 38
M  V30 42 1 20 39
M  V30 43 1 20 40
M  V30 44 1 23 41
M  V30 45 1 24 42
M  V30 END BOND
M  V30 END CTAB
M  END
>  <Dataset>  (494) 
ChEMBL_Kinases

>  <Ligand_Instance>  (494) 
nan

>  <PDB_ID>  (494) 
nan

>  <Standardized_SMILES>  (494) 
N#Cc1ccc(-c2cnc3ccc(NC4CCCNC4)nn23)cc1

>  <Name>  (494) 
nan

>  <Pocket>  (494) 
nan

>  <ATP_Site>  (494) 
nan

>  <Peripheral>  (494) 
nan

>  <Num_H_Atoms_ProtBoundConf>  (494) 
nan

>  <Num_Resolved_Atoms>  (494) 
nan

>  <Num_Not_Resolved_Atoms>  (494) 
nan

$$$$
CHEMBL3815046
     RDKit          3D

  0  0  0  0  0  0  0  0  0  0999 V3000
M  V30 BEGIN CTAB
M  V30 COUNTS 59 63 0 0 0
M  V30 BEGIN ATOM
M  V30 1 C 1.223990 0.337634 6.690679 0
M  V30 2 C 2.304444 1.367998 6.461339 0
M  V30 3 C 3.323724 0.870512 5.441248 0
M  V30 4 C 2.570598 0.616562 4.164861 0
M  V30 5 C 3.464131 0.124092 3.086768 0
M  V30 6 C 3.019539 -0.174615 1.846037 0
M  V30 7 C 3.751372 -0.630256 0.791823 0
M  V30 8 C 3.363568 -0.958919 -0.555754 0
M  V30 9 C 4.335207 -1.289434 -1.507814 0
M  V30 10 N 3.735214 -1.561846 -2.676557 0
M  V30 11 C 2.403365 -1.438609 -2.585777 0
M  V30 12 N 1.346963 -1.587369 -3.406545 0
M  V30 13 C 0.066598 -1.392999 -3.019812 0
M  V30 14 C -0.123946 -1.028748 -1.725360 0
M  V30 15 C -1.513437 -0.808881 -1.269058 0
M  V30 16 C -1.857486 0.112922 -0.274419 0
M  V30 17 N -3.197072 0.022058 -0.141276 0
M  V30 18 N -3.686712 -0.890458 -0.986115 0
M  V30 19 C -5.105488 -1.220476 -1.081971 0
M  V30 20 C -5.868219 -0.338359 -2.004312 0
M  V30 21 C -5.530784 -0.602167 -3.421565 0
M  V30 22 N -5.206631 -1.911056 -3.800164 0
M  V30 23 C -5.350443 -2.975012 -2.890164 0
M  V30 24 C -5.320349 -2.651234 -1.448232 0
M  V30 25 C -2.677367 -1.425657 -1.699921 0
M  V30 26 C 0.932196 -0.867510 -0.859463 0
M  V30 27 C 2.209588 -1.070616 -1.281283 0
M  V30 28 N 5.044943 -0.763159 1.124337 0
M  V30 29 C 5.576421 -0.492690 2.324026 0
M  V30 30 N 6.974906 -0.690781 2.505980 0
M  V30 31 N 4.798935 -0.045554 3.324653 0
M  V30 32 H 0.514604 0.329118 5.841221 0
M  V30 33 H 1.668592 -0.651908 6.912098 0
M  V30 34 H 0.681428 0.679820 7.617282 0
M  V30 35 H 2.773742 1.632429 7.432077 0
M  V30 36 H 1.827410 2.269175 6.031628 0
M  V30 37 H 4.072592 1.652328 5.280623 0
M  V30 38 H 3.734429 -0.056727 5.849099 0
M  V30 39 H 1.980163 1.496635 3.854424 0
M  V30 40 H 1.839206 -0.198621 4.370506 0
M  V30 41 H 1.985459 -0.015837 1.718274 0
M  V30 42 H 5.429579 -1.358200 -1.462120 0
M  V30 43 H 4.190271 -1.842168 -3.587380 0
M  V30 44 H -0.714588 -1.535882 -3.748371 0
M  V30 45 H -1.166481 0.753974 0.260611 0
M  V30 46 H -5.571053 -1.087249 -0.060856 0
M  V30 47 H -6.943331 -0.511705 -1.818966 0
M  V30 48 H -5.683090 0.720585 -1.742147 0
M  V30 49 H -4.687216 0.084980 -3.718439 0
M  V30 50 H -6.412360 -0.269823 -4.043341 0
M  V30 51 H -4.471290 -2.017065 -4.526426 0
M  V30 52 H -4.502964 -3.694262 -3.094406 0
M  V30 53 H -6.257009 -3.570905 -3.180995 0
M  V30 54 H -6.282924 -3.013820 -0.992803 0
M  V30 55 H -4.537229 -3.231788 -0.879467 0
M  V30 56 H -2.734632 -2.183677 -2.460655 0
M  V30 57 H 0.674115 -0.586621 0.134311 0
M  V30 58 H 7.097273 -1.743196 2.443000 0
M  V30 59 H 7.156405 -1.699899 2.454575 0
M  V30 END ATOM
M  V30 BEGIN BOND
M  V30 1 1 1 2
M  V30 2 1 2 3
M  V30 3 1 3 4
M  V30 4 1 4 5
M  V30 5 2 5 6
M  V30 6 1 6 7
M  V30 7 1 7 8
M  V30 8 2 8 9
M  V30 9 1 9 10
M  V30 10 1 10 11
M  V30 11 2 11 12
M  V30 12 1 12 13
M  V30 13 2 13 14
M  V30 14 1 14 15
M  V30 15 1 15 16
M  V30 16 2 16 17
M  V30 17 1 17 18
M  V30 18 1 18 19
M  V30 19 1 19 20
M  V30 20 1 20 21
M  V30 21 1 21 22
M  V30 22 1 22 23
M  V30 23 1 23 24
M  V30 24 1 18 25
M  V30 25 1 14 26
M  V30 26 2 26 27
M  V30 27 2 7 28
M  V30 28 1 28 29
M  V30 29 1 29 30
M  V30 30 2 29 31
M  V30 31 1 31 5
M  V30 32 1 27 8
M  V30 33 1 27 11
M  V30 34 2 25 15
M  V30 35 1 24 19
M  V30 36 1 1 32
M  V30 37 1 1 33
M  V30 38 1 1 34
M  V30 39 1 2 35
M  V30 40 1 2 36
M  V30 41 1 3 37
M  V30 42 1 3 38
M  V30 43 1 4 39
M  V30 44 1 4 40
M  V30 45 1 6 41
M  V30 46 1 9 42
M  V30 47 1 10 43
M  V30 48 1 13 44
M  V30 49 1 16 45
M  V30 50 1 19 46
M  V30 51 1 20 47
M  V30 52 1 20 48
M  V30 53 1 21 49
M  V30 54 1 21 50
M  V30 55 1 22 51
M  V30 56 1 23 52
M  V30 57 1 23 53
M  V30 58 1 24 54
M  V30 59 1 24 55
M  V30 60 1 25 56
M  V30 61 1 26 57
M  V30 62 1 30 58
M  V30 63 1 30 59
M  V30 END BOND
M  V30 END CTAB
M  END
>  <Dataset>  (495) 
ChEMBL_Kinases

>  <Ligand_Instance>  (495) 
nan

>  <PDB_ID>  (495) 
nan

>  <Standardized_SMILES>  (495) 
CCCCc1cc(-c2c[nH]c3ncc(-c4cnn(C5CCNCC5)c4)cc23)nc(N)n1

>  <Name>  (495) 
nan

>  <Pocket>  (495) 
nan

>  <ATP_Site>  (495) 
nan

>  <Peripheral>  (495) 
nan

>  <Num_H_Atoms_ProtBoundConf>  (495) 
nan

>  <Num_Resolved_Atoms>  (495) 
nan

>  <Num_Not_Resolved_Atoms>  (495) 
nan

$$$$
CHEMBL3814929
     RDKit          3D

  0  0  0  0  0  0  0  0  0  0999 V3000
M  V30 BEGIN CTAB
M  V30 COUNTS 40 42 0 0 0
M  V30 BEGIN ATOM
M  V30 1 C -1.673036 -5.154382 2.823186 0
M  V30 2 C -1.228053 -4.594521 1.510736 0
M  V30 3 C 0.021327 -3.805527 1.671195 0
M  V30 4 C -0.080892 -2.637347 2.600288 0
M  V30 5 C -1.089517 -1.614614 2.208426 0
M  V30 6 C -0.799643 -1.030444 0.875547 0
M  V30 7 C -0.015828 0.080236 0.724518 0
M  V30 8 C 0.326193 0.713165 -0.431936 0
M  V30 9 C 1.147423 1.871451 -0.667297 0
M  V30 10 C 1.435285 2.284511 -1.967285 0
M  V30 11 N 2.207179 3.381685 -1.935136 0
M  V30 12 C 2.471470 3.754222 -0.673155 0
M  V30 13 N 3.166608 4.746385 -0.092287 0
M  V30 14 C 3.242778 4.857815 1.245271 0
M  V30 15 C 2.591176 3.930822 2.030675 0
M  V30 16 C 1.880740 2.916599 1.435626 0
M  V30 17 C 1.809268 2.811029 0.074709 0
M  V30 18 N -0.216389 0.102377 -1.496315 0
M  V30 19 C -0.991871 -0.982044 -1.454722 0
M  V30 20 N -1.487543 -1.503815 -2.691904 0
M  V30 21 N -1.295427 -1.563086 -0.282360 0
M  V30 22 H -0.841783 -5.045087 3.567037 0
M  V30 23 H -1.838034 -6.270102 2.771071 0
M  V30 24 H -2.583535 -4.717445 3.237188 0
M  V30 25 H -0.969571 -5.459986 0.850641 0
M  V30 26 H -2.029737 -4.065668 0.958279 0
M  V30 27 H 0.314654 -3.460163 0.650397 0
M  V30 28 H 0.830790 -4.488875 1.999002 0
M  V30 29 H -0.248781 -3.006611 3.632449 0
M  V30 30 H 0.910426 -2.137870 2.619232 0
M  V30 31 H -2.138997 -1.950581 2.288929 0
M  V30 32 H -1.005868 -0.773582 2.928691 0
M  V30 33 H 0.350753 0.454028 1.636634 0
M  V30 34 H 1.157631 1.892449 -2.940428 0
M  V30 35 H 2.594518 3.933985 -2.742499 0
M  V30 36 H 3.820040 5.681462 1.672812 0
M  V30 37 H 2.657657 4.028213 3.108284 0
M  V30 38 H 1.403386 2.246048 2.096797 0
M  V30 39 H -2.523068 -1.294669 -2.602059 0
M  V30 40 H -1.078248 -1.978510 -3.534411 0
M  V30 END ATOM
M  V30 BEGIN BOND
M  V30 1 1 1 2
M  V30 2 1 2 3
M  V30 3 1 3 4
M  V30 4 1 4 5
M  V30 5 1 5 6
M  V30 6 2 6 7
M  V30 7 1 7 8
M  V30 8 1 8 9
M  V30 9 2 9 10
M  V30 10 1 10 11
M  V30 11 1 11 12
M  V30 12 2 12 13
M  V30 13 1 13 14
M  V30 14 2 14 15
M  V30 15 1 15 16
M  V30 16 2 16 17
M  V30 17 2 8 18
M  V30 18 1 18 19
M  V30 19 1 19 20
M  V30 20 2 19 21
M  V30 21 1 21 6
M  V30 22 1 17 9
M  V30 23 1 17 12
M  V30 24 1 1 22
M  V30 25 1 1 23
M  V30 26 1 1 24
M  V30 27 1 2 25
M  V30 28 1 2 26
M  V30 29 1 3 27
M  V30 30 1 3 28
M  V30 31 1 4 29
M  V30 32 1 4 30
M  V30 33 1 5 31
M  V30 34 1 5 32
M  V30 35 1 7 33
M  V30 36 1 10 34
M  V30 37 1 11 35
M  V30 38 1 14 36
M  V30 39 1 15 37
M  V30 40 1 16 38
M  V30 41 1 20 39
M  V30 42 1 20 40
M  V30 END BOND
M  V30 END CTAB
M  END
>  <Dataset>  (496) 
ChEMBL_Kinases

>  <Ligand_Instance>  (496) 
nan

>  <PDB_ID>  (496) 
nan

>  <Standardized_SMILES>  (496) 
CCCCCc1cc(-c2c[nH]c3ncccc23)nc(N)n1

>  <Name>  (496) 
nan

>  <Pocket>  (496) 
nan

>  <ATP_Site>  (496) 
nan

>  <Peripheral>  (496) 
nan

>  <Num_H_Atoms_ProtBoundConf>  (496) 
nan

>  <Num_Resolved_Atoms>  (496) 
nan

>  <Num_Not_Resolved_Atoms>  (496) 
nan

$$$$
CHEMBL3814827
     RDKit          3D

  0  0  0  0  0  0  0  0  0  0999 V3000
M  V30 BEGIN CTAB
M  V30 COUNTS 49 51 0 0 0
M  V30 BEGIN ATOM
M  V30 1 F 0.331126 -7.398360 1.083272 0
M  V30 2 C 1.319444 -6.423330 1.144541 0
M  V30 3 F 2.329564 -6.710636 0.244848 0
M  V30 4 F 1.873044 -6.477093 2.401211 0
M  V30 5 C 0.773421 -5.060381 0.897693 0
M  V30 6 C 1.332928 -3.927187 1.446535 0
M  V30 7 C 0.778066 -2.675818 1.180037 0
M  V30 8 C -0.345437 -2.523468 0.361901 0
M  V30 9 O -0.666421 -1.194463 0.278488 0
M  V30 10 C -1.728629 -0.688016 -0.452570 0
M  V30 11 C -1.314829 0.255676 -1.553461 0
M  V30 12 C -0.577454 1.455245 -1.059690 0
M  V30 13 N 0.644948 1.128099 -0.357090 0
M  V30 14 C 1.338441 2.315546 0.110283 0
M  V30 15 C 2.588976 1.948519 0.827326 0
M  V30 16 C 2.652806 1.709744 2.184806 0
M  V30 17 C 3.852151 1.372355 2.784846 0
M  V30 18 C 5.008222 1.268005 2.037407 0
M  V30 19 C 4.864123 1.520904 0.690521 0
M  V30 20 N 3.712249 1.850481 0.080962 0
M  V30 21 C -2.712667 -0.045442 0.472661 0
M  V30 22 C -2.350733 0.797602 1.502630 0
M  V30 23 C -3.271426 1.382444 2.347183 0
M  V30 24 C -4.597945 1.116268 2.156529 0
M  V30 25 C -5.039008 0.289307 1.155769 0
M  V30 26 C -4.082729 -0.272388 0.336641 0
M  V30 27 C -0.883774 -3.671770 -0.172949 0
M  V30 28 C -0.328912 -4.902947 0.095906 0
M  V30 29 H 2.196144 -4.096216 2.069054 0
M  V30 30 H 1.349014 -1.888380 1.696962 0
M  V30 31 H -2.266559 -1.517880 -0.949593 0
M  V30 32 H -0.677775 -0.267878 -2.294054 0
M  V30 33 H -2.195316 0.603777 -2.111931 0
M  V30 34 H -1.156483 2.146377 -0.448878 0
M  V30 35 H -0.300586 2.046079 -1.981759 0
M  V30 36 H 1.295683 0.604147 -1.008420 0
M  V30 37 H 1.601920 3.006890 -0.716423 0
M  V30 38 H 0.624025 2.848663 0.771004 0
M  V30 39 H 1.728274 1.799579 2.744245 0
M  V30 40 H 3.853652 1.194129 3.852941 0
M  V30 41 H 5.959917 1.005390 2.482897 0
M  V30 42 H 5.741784 1.456295 0.035413 0
M  V30 43 H -1.304449 1.013579 1.660900 0
M  V30 44 H -2.963999 2.048819 3.158931 0
M  V30 45 H -5.364863 1.546539 2.787820 0
M  V30 46 H -6.076318 0.017333 0.925662 0
M  V30 47 H -4.360465 -0.942927 -0.483684 0
M  V30 48 H -1.744096 -3.454739 -0.787700 0
M  V30 49 H -0.846146 -5.715920 -0.384021 0
M  V30 END ATOM
M  V30 BEGIN BOND
M  V30 1 1 1 2
M  V30 2 1 2 3
M  V30 3 1 2 4
M  V30 4 1 2 5
M  V30 5 2 5 6
M  V30 6 1 6 7
M  V30 7 2 7 8
M  V30 8 1 8 9
M  V30 9 1 9 10
M  V30 10 1 10 11
M  V30 11 1 11 12
M  V30 12 1 12 13
M  V30 13 1 13 14
M  V30 14 1 14 15
M  V30 15 2 15 16
M  V30 16 1 16 17
M  V30 17 2 17 18
M  V30 18 1 18 19
M  V30 19 2 19 20
M  V30 20 1 10 21
M  V30 21 2 21 22
M  V30 22 1 22 23
M  V30 23 2 23 24
M  V30 24 1 24 25
M  V30 25 2 25 26
M  V30 26 1 8 27
M  V30 27 2 27 28
M  V30 28 1 28 5
M  V30 29 1 20 15
M  V30 30 1 26 21
M  V30 31 1 6 29
M  V30 32 1 7 30
M  V30 33 1 10 31
M  V30 34 1 11 32
M  V30 35 1 11 33
M  V30 36 1 12 34
M  V30 37 1 12 35
M  V30 38 1 13 36
M  V30 39 1 14 37
M  V30 40 1 14 38
M  V30 41 1 16 39
M  V30 42 1 17 40
M  V30 43 1 18 41
M  V30 44 1 19 42
M  V30 45 1 22 43
M  V30 46 1 23 44
M  V30 47 1 24 45
M  V30 48 1 25 46
M  V30 49 1 26 47
M  V30 50 1 27 48
M  V30 51 1 28 49
M  V30 END BOND
M  V30 END CTAB
M  END
>  <Dataset>  (497) 
ChEMBL_Kinases

>  <Ligand_Instance>  (497) 
nan

>  <PDB_ID>  (497) 
nan

>  <Standardized_SMILES>  (497) 
FC(F)(F)c1ccc(OC(CCNCc2ccccn2)c2ccccc2)cc1

>  <Name>  (497) 
nan

>  <Pocket>  (497) 
nan

>  <ATP_Site>  (497) 
nan

>  <Peripheral>  (497) 
nan

>  <Num_H_Atoms_ProtBoundConf>  (497) 
nan

>  <Num_Resolved_Atoms>  (497) 
nan

>  <Num_Not_Resolved_Atoms>  (497) 
nan

$$$$
CHEMBL3814785
     RDKit          3D

  0  0  0  0  0  0  0  0  0  0999 V3000
M  V30 BEGIN CTAB
M  V30 COUNTS 41 44 0 0 0
M  V30 BEGIN ATOM
M  V30 1 C -0.056879 -6.537765 0.985776 0
M  V30 2 C 0.441844 -5.689763 2.103169 0
M  V30 3 C 0.468290 -4.238838 1.813018 0
M  V30 4 C 0.089638 -3.605942 0.647059 0
M  V30 5 C 0.166682 -2.240123 0.513416 0
M  V30 6 C -0.243073 -1.607098 -0.734779 0
M  V30 7 C -0.732248 -2.151874 -1.904295 0
M  V30 8 N -0.977064 -1.161045 -2.800301 0
M  V30 9 C -0.653324 0.037013 -2.232469 0
M  V30 10 N -0.712337 1.311973 -2.704087 0
M  V30 11 C -0.323538 2.356288 -1.924552 0
M  V30 12 C 0.140318 2.160300 -0.639716 0
M  V30 13 C 0.572066 3.238690 0.245448 0
M  V30 14 C 1.172776 4.452019 -0.037396 0
M  V30 15 N 1.375106 5.098771 1.126529 0
M  V30 16 N 0.932309 4.355747 2.137845 0
M  V30 17 C 0.999479 4.760790 3.531738 0
M  V30 18 C 0.430963 3.203130 1.632880 0
M  V30 19 C 0.190062 0.838897 -0.181624 0
M  V30 20 C -0.201951 -0.246482 -0.959685 0
M  V30 21 N 0.631157 -1.568431 1.584410 0
M  V30 22 C 1.001573 -2.162348 2.719142 0
M  V30 23 N 1.456564 -1.232661 3.700354 0
M  V30 24 N 0.925790 -3.512551 2.852119 0
M  V30 25 H -0.926894 -6.074145 0.504062 0
M  V30 26 H -0.287551 -7.539626 1.417135 0
M  V30 27 H 0.737920 -6.652374 0.228044 0
M  V30 28 H 1.483469 -5.978472 2.400416 0
M  V30 29 H -0.165682 -5.853759 3.034736 0
M  V30 30 H -0.260159 -4.254822 -0.126076 0
M  V30 31 H -0.888999 -3.211752 -2.062248 0
M  V30 32 H -1.356332 -1.262010 -3.786430 0
M  V30 33 H -0.367986 3.385035 -2.295316 0
M  V30 34 H 1.417094 4.778836 -1.028617 0
M  V30 35 H 0.975956 5.867998 3.627716 0
M  V30 36 H 0.172867 4.293072 4.114327 0
M  V30 37 H 1.941854 4.385170 4.005098 0
M  V30 38 H 0.017726 2.454504 2.283902 0
M  V30 39 H 0.547935 0.691502 0.810906 0
M  V30 40 H 0.923917 -0.533411 4.293689 0
M  V30 41 H 2.493494 -1.450497 3.659741 0
M  V30 END ATOM
M  V30 BEGIN BOND
M  V30 1 1 1 2
M  V30 2 1 2 3
M  V30 3 2 3 4
M  V30 4 1 4 5
M  V30 5 1 5 6
M  V30 6 2 6 7
M  V30 7 1 7 8
M  V30 8 1 8 9
M  V30 9 2 9 10
M  V30 10 1 10 11
M  V30 11 2 11 12
M  V30 12 1 12 13
M  V30 13 1 13 14
M  V30 14 2 14 15
M  V30 15 1 15 16
M  V30 16 1 16 17
M  V30 17 1 16 18
M  V30 18 1 12 19
M  V30 19 2 19 20
M  V30 20 2 5 21
M  V30 21 1 21 22
M  V30 22 1 22 23
M  V30 23 2 22 24
M  V30 24 1 24 3
M  V30 25 1 20 6
M  V30 26 1 20 9
M  V30 27 2 18 13
M  V30 28 1 1 25
M  V30 29 1 1 26
M  V30 30 1 1 27
M  V30 31 1 2 28
M  V30 32 1 2 29
M  V30 33 1 4 30
M  V30 34 1 7 31
M  V30 35 1 8 32
M  V30 36 1 11 33
M  V30 37 1 14 34
M  V30 38 1 17 35
M  V30 39 1 17 36
M  V30 40 1 17 37
M  V30 41 1 18 38
M  V30 42 1 19 39
M  V30 43 1 23 40
M  V30 44 1 23 41
M  V30 END BOND
M  V30 END CTAB
M  END
>  <Dataset>  (498) 
ChEMBL_Kinases

>  <Ligand_Instance>  (498) 
nan

>  <PDB_ID>  (498) 
nan

>  <Standardized_SMILES>  (498) 
CCc1cc(-c2c[nH]c3ncc(-c4cnn(C)c4)cc23)nc(N)n1

>  <Name>  (498) 
nan

>  <Pocket>  (498) 
nan

>  <ATP_Site>  (498) 
nan

>  <Peripheral>  (498) 
nan

>  <Num_H_Atoms_ProtBoundConf>  (498) 
nan

>  <Num_Resolved_Atoms>  (498) 
nan

>  <Num_Not_Resolved_Atoms>  (498) 
nan

$$$$
CHEMBL3814770
     RDKit          3D

  0  0  0  0  0  0  0  0  0  0999 V3000
M  V30 BEGIN CTAB
M  V30 COUNTS 52 55 0 0 0
M  V30 BEGIN ATOM
M  V30 1 C -1.896188 -4.108322 1.154014 0
M  V30 2 C -1.429254 -4.028308 -0.293885 0
M  V30 3 C 0.031862 -4.262892 -0.317145 0
M  V30 4 C 0.952159 -3.249252 -0.205725 0
M  V30 5 C 2.312880 -3.335481 -0.212427 0
M  V30 6 C 3.294744 -2.284772 -0.115372 0
M  V30 7 C 4.649486 -2.572116 -0.337329 0
M  V30 8 N 5.384954 -1.460189 -0.186686 0
M  V30 9 C 4.614755 -0.408044 0.130420 0
M  V30 10 N 4.801444 0.895598 0.394223 0
M  V30 11 C 3.812246 1.752221 0.703455 0
M  V30 12 C 2.540154 1.219417 0.741924 0
M  V30 13 C 1.418582 2.118554 1.078165 0
M  V30 14 C 1.347033 3.228175 1.893649 0
M  V30 15 N 0.104093 3.683308 1.857626 0
M  V30 16 N -0.673827 2.937349 1.057238 0
M  V30 17 C -2.080388 3.070114 0.728900 0
M  V30 18 C -2.976017 2.323050 1.651986 0
M  V30 19 N -4.378543 2.438901 1.350150 0
M  V30 20 C -4.727750 1.768968 0.132254 0
M  V30 21 C -5.255278 2.010386 2.407903 0
M  V30 22 C 0.145762 1.969182 0.576878 0
M  V30 23 C 2.316114 -0.111665 0.476193 0
M  V30 24 C 3.350485 -0.944315 0.165897 0
M  V30 25 N 2.738302 -4.580158 -0.347366 0
M  V30 26 C 1.927301 -5.637547 -0.463578 0
M  V30 27 N 2.511798 -6.949448 -0.605453 0
M  V30 28 N 0.584774 -5.505975 -0.451227 0
M  V30 29 H -1.031755 -4.020213 1.858428 0
M  V30 30 H -2.336629 -5.113021 1.392080 0
M  V30 31 H -2.605121 -3.288808 1.399337 0
M  V30 32 H -1.976898 -4.740781 -0.943800 0
M  V30 33 H -1.591683 -2.968539 -0.603013 0
M  V30 34 H 0.480151 -2.291329 -0.117218 0
M  V30 35 H 5.176976 -3.495166 -0.597651 0
M  V30 36 H 6.427555 -1.345263 -0.286624 0
M  V30 37 H 4.047629 2.800355 0.904831 0
M  V30 38 H 2.204609 3.605366 2.440133 0
M  V30 39 H -2.247910 2.820968 -0.331395 0
M  V30 40 H -2.359984 4.160442 0.838426 0
M  V30 41 H -2.867543 2.658928 2.716294 0
M  V30 42 H -2.757272 1.230171 1.680425 0
M  V30 43 H -5.765707 2.115186 -0.142167 0
M  V30 44 H -4.835042 0.660499 0.273789 0
M  V30 45 H -4.017699 1.946201 -0.691749 0
M  V30 46 H -4.816358 1.182035 2.993797 0
M  V30 47 H -5.572694 2.853472 3.063249 0
M  V30 48 H -6.209395 1.610617 1.979734 0
M  V30 49 H -0.157125 1.184909 -0.107418 0
M  V30 50 H 1.303842 -0.435040 0.538593 0
M  V30 51 H 2.273690 -7.699348 0.110514 0
M  V30 52 H 3.177019 -7.304925 -1.349586 0
M  V30 END ATOM
M  V30 BEGIN BOND
M  V30 1 1 1 2
M  V30 2 1 2 3
M  V30 3 2 3 4
M  V30 4 1 4 5
M  V30 5 1 5 6
M  V30 6 2 6 7
M  V30 7 1 7 8
M  V30 8 1 8 9
M  V30 9 2 9 10
M  V30 10 1 10 11
M  V30 11 2 11 12
M  V30 12 1 12 13
M  V30 13 1 13 14
M  V30 14 2 14 15
M  V30 15 1 15 16
M  V30 16 1 16 17
M  V30 17 1 17 18
M  V30 18 1 18 19
M  V30 19 1 19 20
M  V30 20 1 19 21
M  V30 21 1 16 22
M  V30 22 1 12 23
M  V30 23 2 23 24
M  V30 24 2 5 25
M  V30 25 1 25 26
M  V30 26 1 26 27
M  V30 27 2 26 28
M  V30 28 1 28 3
M  V30 29 1 24 6
M  V30 30 1 24 9
M  V30 31 2 22 13
M  V30 32 1 1 29
M  V30 33 1 1 30
M  V30 34 1 1 31
M  V30 35 1 2 32
M  V30 36 1 2 33
M  V30 37 1 4 34
M  V30 38 1 7 35
M  V30 39 1 8 36
M  V30 40 1 11 37
M  V30 41 1 14 38
M  V30 42 1 17 39
M  V30 43 1 17 40
M  V30 44 1 18 41
M  V30 45 1 18 42
M  V30 46 1 20 43
M  V30 47 1 20 44
M  V30 48 1 20 45
M  V30 49 1 21 46
M  V30 50 1 21 47
M  V30 51 1 21 48
M  V30 52 1 22 49
M  V30 53 1 23 50
M  V30 54 1 27 51
M  V30 55 1 27 52
M  V30 END BOND
M  V30 END CTAB
M  END
>  <Dataset>  (499) 
ChEMBL_Kinases

>  <Ligand_Instance>  (499) 
nan

>  <PDB_ID>  (499) 
nan

>  <Standardized_SMILES>  (499) 
CCc1cc(-c2c[nH]c3ncc(-c4cnn(CCN(C)C)c4)cc23)nc(N)n1

>  <Name>  (499) 
nan

>  <Pocket>  (499) 
nan

>  <ATP_Site>  (499) 
nan

>  <Peripheral>  (499) 
nan

>  <Num_H_Atoms_ProtBoundConf>  (499) 
nan

>  <Num_Resolved_Atoms>  (499) 
nan

>  <Num_Not_Resolved_Atoms>  (499) 
nan

$$$$
CHEMBL3814704
     RDKit          3D

  0  0  0  0  0  0  0  0  0  0999 V3000
M  V30 BEGIN CTAB
M  V30 COUNTS 31 33 0 0 0
M  V30 BEGIN ATOM
M  V30 1 C -2.137293 -2.956196 3.862481 0
M  V30 2 C -1.738513 -3.614515 2.543194 0
M  V30 3 C -1.385442 -2.496708 1.630263 0
M  V30 4 C -0.083603 -2.005129 1.552502 0
M  V30 5 C 0.110820 -0.954085 0.655256 0
M  V30 6 C 1.475772 -0.441602 0.576382 0
M  V30 7 C 2.620670 -0.832314 1.253616 0
M  V30 8 N 3.675195 -0.083142 0.872684 0
M  V30 9 C 3.224347 0.790713 -0.046266 0
M  V30 10 N 3.886088 1.746592 -0.725361 0
M  V30 11 C 3.313481 2.564634 -1.628118 0
M  V30 12 C 1.945365 2.404704 -1.869538 0
M  V30 13 Br 1.011182 3.497124 -3.122944 0
M  V30 14 C 1.227316 1.436008 -1.194734 0
M  V30 15 C 1.856576 0.607101 -0.266137 0
M  V30 16 N -0.897386 -0.451608 -0.084594 0
M  V30 17 C -2.139885 -0.952026 0.017930 0
M  V30 18 N -3.121017 -0.340825 -0.812798 0
M  V30 19 N -2.370785 -1.964461 0.869901 0
M  V30 20 H -1.190089 -2.597632 4.341107 0
M  V30 21 H -2.712568 -2.024673 3.624843 0
M  V30 22 H -2.743004 -3.602517 4.496133 0
M  V30 23 H -2.640607 -4.138291 2.180461 0
M  V30 24 H -0.859940 -4.271291 2.687720 0
M  V30 25 H 0.679894 -2.438674 2.160817 0
M  V30 26 H 2.644679 -1.636837 1.989220 0
M  V30 27 H 4.640869 -0.202657 1.253631 0
M  V30 28 H 3.808154 3.329865 -2.181666 0
M  V30 29 H 0.175784 1.264649 -1.336389 0
M  V30 30 H -3.607801 -0.802803 -1.625549 0
M  V30 31 H -3.513622 0.642281 -0.758582 0
M  V30 END ATOM
M  V30 BEGIN BOND
M  V30 1 1 1 2
M  V30 2 1 2 3
M  V30 3 2 3 4
M  V30 4 1 4 5
M  V30 5 1 5 6
M  V30 6 2 6 7
M  V30 7 1 7 8
M  V30 8 1 8 9
M  V30 9 2 9 10
M  V30 10 1 10 11
M  V30 11 2 11 12
M  V30 12 1 12 13
M  V30 13 1 12 14
M  V30 14 2 14 15
M  V30 15 2 5 16
M  V30 16 1 16 17
M  V30 17 1 17 18
M  V30 18 2 17 19
M  V30 19 1 19 3
M  V30 20 1 15 6
M  V30 21 1 15 9
M  V30 22 1 1 20
M  V30 23 1 1 21
M  V30 24 1 1 22
M  V30 25 1 2 23
M  V30 26 1 2 24
M  V30 27 1 4 25
M  V30 28 1 7 26
M  V30 29 1 8 27
M  V30 30 1 11 28
M  V30 31 1 14 29
M  V30 32 1 18 30
M  V30 33 1 18 31
M  V30 END BOND
M  V30 END CTAB
M  END
>  <Dataset>  (500) 
ChEMBL_Kinases

>  <Ligand_Instance>  (500) 
nan

>  <PDB_ID>  (500) 
nan

>  <Standardized_SMILES>  (500) 
CCc1cc(-c2c[nH]c3ncc(Br)cc23)nc(N)n1

>  <Name>  (500) 
nan

>  <Pocket>  (500) 
nan

>  <ATP_Site>  (500) 
nan

>  <Peripheral>  (500) 
nan

>  <Num_H_Atoms_ProtBoundConf>  (500) 
nan

>  <Num_Resolved_Atoms>  (500) 
nan

>  <Num_Not_Resolved_Atoms>  (500) 
nan

$$$$
CHEMBL381457
     RDKit          3D

  0  0  0  0  0  0  0  0  0  0999 V3000
M  V30 BEGIN CTAB
M  V30 COUNTS 65 69 0 0 0
M  V30 BEGIN ATOM
M  V30 1 C 2.653815 -4.042521 5.718014 0
M  V30 2 O 1.902922 -3.793313 4.563778 0
M  V30 3 C 2.265635 -2.808664 3.674647 0
M  V30 4 C 3.420885 -2.090211 4.011809 0
M  V30 5 C 3.915310 -1.073159 3.229407 0
M  V30 6 C 3.221774 -0.760182 2.053794 0
M  V30 7 C 3.763889 0.313999 1.230093 0
M  V30 8 C 3.274653 1.689288 1.532874 0
M  V30 9 C 1.808329 1.886101 1.388901 0
M  V30 10 N 1.227243 1.635702 0.126220 0
M  V30 11 C -0.194104 1.868401 0.180924 0
M  V30 12 C -0.823215 1.948975 -1.187807 0
M  V30 13 N -0.151653 2.904157 -2.038734 0
M  V30 14 C -1.013603 3.892305 -2.615540 0
M  V30 15 C 1.015145 3.472399 -1.393270 0
M  V30 16 C 1.862109 2.264951 -0.969131 0
M  V30 17 C 2.104816 -1.495108 1.780511 0
M  V30 18 C 1.553447 -2.516816 2.507177 0
M  V30 19 C 0.400510 -3.309985 2.166316 0
M  V30 20 N 0.157959 -4.490380 2.768952 0
M  V30 21 N -0.956672 -5.040188 2.343263 0
M  V30 22 C -1.521527 -4.244014 1.424066 0
M  V30 23 N -2.635108 -4.292453 0.687805 0
M  V30 24 C -2.980603 -3.329788 -0.166305 0
M  V30 25 N -4.180572 -3.444539 -0.918792 0
M  V30 26 C -4.759511 -2.560342 -1.865712 0
M  V30 27 C -4.166273 -1.363166 -2.187685 0
M  V30 28 C -4.702383 -0.491633 -3.093779 0
M  V30 29 C -5.903815 -0.775106 -3.753786 0
M  V30 30 F -6.440747 0.074125 -4.645796 0
M  V30 31 C -6.461256 -1.982945 -3.400438 0
M  V30 32 C -5.942247 -2.869437 -2.496716 0
M  V30 33 F -6.566119 -4.035300 -2.214526 0
M  V30 34 N -2.130634 -2.299038 -0.240217 0
M  V30 35 C -0.998640 -2.187020 0.467426 0
M  V30 36 C -0.671114 -3.178580 1.325987 0
M  V30 37 H 3.662687 -4.464454 5.460324 0
M  V30 38 H 2.107399 -4.788714 6.363000 0
M  V30 39 H 2.802939 -3.160673 6.361194 0
M  V30 40 H 3.973575 -2.316085 4.918195 0
M  V30 41 H 4.809186 -0.554119 3.539500 0
M  V30 42 H 3.675695 0.098710 0.122139 0
M  V30 43 H 4.880541 0.340314 1.379729 0
M  V30 44 H 3.572793 1.936865 2.592771 0
M  V30 45 H 3.830722 2.434516 0.932381 0
M  V30 46 H 1.537827 2.931458 1.728646 0
M  V30 47 H 1.298924 1.247941 2.174296 0
M  V30 48 H -0.656484 1.024138 0.728764 0
M  V30 49 H -0.429487 2.791948 0.744965 0
M  V30 50 H -0.853065 0.976687 -1.711395 0
M  V30 51 H -1.870864 2.285993 -1.057759 0
M  V30 52 H -1.950842 3.446053 -2.938846 0
M  V30 53 H -1.192903 4.728182 -1.879557 0
M  V30 54 H -0.435377 4.371765 -3.444469 0
M  V30 55 H 1.580903 4.102352 -2.108448 0
M  V30 56 H 0.678524 4.080426 -0.554538 0
M  V30 57 H 2.883487 2.590955 -0.791722 0
M  V30 58 H 1.828769 1.583498 -1.875419 0
M  V30 59 H 1.688534 -1.181046 0.863514 0
M  V30 60 H 0.565400 -5.140635 3.473555 0
M  V30 61 H -4.735753 -4.326014 -0.752549 0
M  V30 62 H -3.244230 -0.995830 -1.772128 0
M  V30 63 H -4.253775 0.475875 -3.373317 0
M  V30 64 H -7.392055 -2.282832 -3.864178 0
M  V30 65 H -0.392781 -1.321594 0.352411 0
M  V30 END ATOM
M  V30 BEGIN BOND
M  V30 1 1 1 2
M  V30 2 1 2 3
M  V30 3 2 3 4
M  V30 4 1 4 5
M  V30 5 2 5 6
M  V30 6 1 6 7
M  V30 7 1 7 8
M  V30 8 1 8 9
M  V30 9 1 9 10
M  V30 10 1 10 11
M  V30 11 1 11 12
M  V30 12 1 12 13
M  V30 13 1 13 14
M  V30 14 1 13 15
M  V30 15 1 15 16
M  V30 16 1 6 17
M  V30 17 2 17 18
M  V30 18 1 18 19
M  V30 19 1 19 20
M  V30 20 1 20 21
M  V30 21 2 21 22
M  V30 22 1 22 23
M  V30 23 2 23 24
M  V30 24 1 24 25
M  V30 25 1 25 26
M  V30 26 2 26 27
M  V30 27 1 27 28
M  V30 28 2 28 29
M  V30 29 1 29 30
M  V30 30 1 29 31
M  V30 31 2 31 32
M  V30 32 1 32 33
M  V30 33 1 24 34
M  V30 34 2 34 35
M  V30 35 1 35 36
M  V30 36 1 18 3
M  V30 37 2 36 19
M  V30 38 1 16 10
M  V30 39 1 36 22
M  V30 40 1 32 26
M  V30 41 1 1 37
M  V30 42 1 1 38
M  V30 43 1 1 39
M  V30 44 1 4 40
M  V30 45 1 5 41
M  V30 46 1 7 42
M  V30 47 1 7 43
M  V30 48 1 8 44
M  V30 49 1 8 45
M  V30 50 1 9 46
M  V30 51 1 9 47
M  V30 52 1 11 48
M  V30 53 1 11 49
M  V30 54 1 12 50
M  V30 55 1 12 51
M  V30 56 1 14 52
M  V30 57 1 14 53
M  V30 58 1 14 54
M  V30 59 1 15 55
M  V30 60 1 15 56
M  V30 61 1 16 57
M  V30 62 1 16 58
M  V30 63 1 17 59
M  V30 64 1 20 60
M  V30 65 1 25 61
M  V30 66 1 27 62
M  V30 67 1 28 63
M  V30 68 1 31 64
M  V30 69 1 35 65
M  V30 END BOND
M  V30 END CTAB
M  END
>  <Dataset>  (501) 
ChEMBL_Kinases

>  <Ligand_Instance>  (501) 
nan

>  <PDB_ID>  (501) 
nan

>  <Standardized_SMILES>  (501) 
COc1ccc(CCCN2CCN(C)CC2)cc1-c1[nH]nc2nc(Nc3ccc(F)cc3F)ncc12

>  <Name>  (501) 
nan

>  <Pocket>  (501) 
nan

>  <ATP_Site>  (501) 
nan

>  <Peripheral>  (501) 
nan

>  <Num_H_Atoms_ProtBoundConf>  (501) 
nan

>  <Num_Resolved_Atoms>  (501) 
nan

>  <Num_Not_Resolved_Atoms>  (501) 
nan

$$$$
CHEMBL3814554
     RDKit          3D

  0  0  0  0  0  0  0  0  0  0999 V3000
M  V30 BEGIN CTAB
M  V30 COUNTS 36 38 0 0 0
M  V30 BEGIN ATOM
M  V30 1 N -2.931941 -2.388217 2.861702 0
M  V30 2 C -1.465427 -2.438957 2.696992 0
M  V30 3 C -1.220633 -3.424118 1.599211 0
M  V30 4 C 0.200983 -3.617461 1.259837 0
M  V30 5 C 0.960183 -2.510612 0.715956 0
M  V30 6 C 0.652387 -1.245519 0.355772 0
M  V30 7 C 1.481551 -0.307735 -0.174459 0
M  V30 8 C 1.193014 1.042590 -0.586382 0
M  V30 9 C 2.176813 1.779865 -1.265330 0
M  V30 10 N 1.704840 2.987379 -1.538581 0
M  V30 11 C 0.447715 3.141662 -1.090993 0
M  V30 12 N -0.448221 4.137578 -1.106198 0
M  V30 13 C -1.646275 3.981616 -0.556381 0
M  V30 14 C -1.979571 2.763734 0.046906 0
M  V30 15 C -1.046011 1.758425 0.050069 0
M  V30 16 C 0.169461 1.930061 -0.513722 0
M  V30 17 N 2.727318 -0.783106 -0.322464 0
M  V30 18 C 3.149572 -2.012498 -0.004369 0
M  V30 19 N 4.525895 -2.312144 -0.245983 0
M  V30 20 N 2.260338 -2.899709 0.524453 0
M  V30 21 H -3.187359 -1.613322 3.516203 0
M  V30 22 H -3.198367 -3.290218 3.313978 0
M  V30 23 H -1.002072 -1.470095 2.622662 0
M  V30 24 H -1.095457 -2.868431 3.678008 0
M  V30 25 H -1.601346 -4.423388 1.970849 0
M  V30 26 H -1.877538 -3.211095 0.728855 0
M  V30 27 H 0.278040 -4.511253 0.561313 0
M  V30 28 H 0.718329 -3.987216 2.184032 0
M  V30 29 H -0.361713 -1.027543 0.496908 0
M  V30 30 H 3.201843 1.530528 -1.582660 0
M  V30 31 H 2.200550 3.776547 -2.041731 0
M  V30 32 H -2.392939 4.782464 -0.558055 0
M  V30 33 H -2.949843 2.687398 0.473386 0
M  V30 34 H -1.351687 0.875506 0.522735 0
M  V30 35 H 5.380779 -1.919629 0.210046 0
M  V30 36 H 4.540456 -3.039957 -1.007582 0
M  V30 END ATOM
M  V30 BEGIN BOND
M  V30 1 1 1 2
M  V30 2 1 2 3
M  V30 3 1 3 4
M  V30 4 1 4 5
M  V30 5 2 5 6
M  V30 6 1 6 7
M  V30 7 1 7 8
M  V30 8 2 8 9
M  V30 9 1 9 10
M  V30 10 1 10 11
M  V30 11 2 11 12
M  V30 12 1 12 13
M  V30 13 2 13 14
M  V30 14 1 14 15
M  V30 15 2 15 16
M  V30 16 2 7 17
M  V30 17 1 17 18
M  V30 18 1 18 19
M  V30 19 2 18 20
M  V30 20 1 20 5
M  V30 21 1 16 8
M  V30 22 1 16 11
M  V30 23 1 1 21
M  V30 24 1 1 22
M  V30 25 1 2 23
M  V30 26 1 2 24
M  V30 27 1 3 25
M  V30 28 1 3 26
M  V30 29 1 4 27
M  V30 30 1 4 28
M  V30 31 1 6 29
M  V30 32 1 9 30
M  V30 33 1 10 31
M  V30 34 1 13 32
M  V30 35 1 14 33
M  V30 36 1 15 34
M  V30 37 1 19 35
M  V30 38 1 19 36
M  V30 END BOND
M  V30 END CTAB
M  END
>  <Dataset>  (502) 
ChEMBL_Kinases

>  <Ligand_Instance>  (502) 
nan

>  <PDB_ID>  (502) 
nan

>  <Standardized_SMILES>  (502) 
NCCCc1cc(-c2c[nH]c3ncccc23)nc(N)n1

>  <Name>  (502) 
nan

>  <Pocket>  (502) 
nan

>  <ATP_Site>  (502) 
nan

>  <Peripheral>  (502) 
nan

>  <Num_H_Atoms_ProtBoundConf>  (502) 
nan

>  <Num_Resolved_Atoms>  (502) 
nan

>  <Num_Not_Resolved_Atoms>  (502) 
nan

$$$$
CHEMBL381527
     RDKit          3D

  0  0  0  0  0  0  0  0  0  0999 V3000
M  V30 BEGIN CTAB
M  V30 COUNTS 55 57 0 0 0
M  V30 BEGIN ATOM
M  V30 1 C 5.660602 -0.018143 4.419899 0
M  V30 2 O 5.265497 0.502540 3.187269 0
M  V30 3 C 4.846700 1.794219 2.939800 0
M  V30 4 C 4.733579 2.821496 3.864863 0
M  V30 5 C 4.287881 4.062271 3.405899 0
M  V30 6 C 3.968507 4.263194 2.069598 0
M  V30 7 C 4.089630 3.213224 1.150887 0
M  V30 8 C 3.708201 3.643074 -0.212198 0
M  V30 9 C 2.234805 3.488701 -0.502689 0
M  V30 10 C 1.838218 2.064557 -0.369315 0
M  V30 11 O 2.085827 0.864039 -0.125740 0
M  V30 12 N 0.428747 2.011289 -0.679749 0
M  V30 13 C -0.262406 0.736275 -0.635552 0
M  V30 14 C -0.876255 0.276792 0.514716 0
M  V30 15 C -1.512316 -0.947985 0.490951 0
M  V30 16 O -2.144876 -1.463425 1.610134 0
M  V30 17 C -2.153669 -0.737505 2.808292 0
M  V30 18 C -1.534018 -1.713024 -0.683719 0
M  V30 19 N -2.171655 -2.979129 -0.757505 0
M  V30 20 C -3.455107 -3.500341 -1.074876 0
M  V30 21 O -4.446655 -2.830025 -1.409485 0
M  V30 22 N -3.462998 -4.916387 -0.958938 0
M  V30 23 C -4.651334 -5.647320 -1.231257 0
M  V30 24 C -4.868710 -6.081213 -2.542216 0
M  V30 25 N -6.000091 -6.786544 -2.825916 0
M  V30 26 C -6.871998 -7.048431 -1.858699 0
M  V30 27 C -8.056439 -7.786869 -2.151231 0
M  V30 28 N -9.024893 -8.399646 -2.375046 0
M  V30 29 C -6.686832 -6.634306 -0.554878 0
M  V30 30 N -5.555174 -5.928529 -0.269605 0
M  V30 31 C -0.897690 -1.193463 -1.806431 0
M  V30 32 C -0.243548 0.037693 -1.828927 0
M  V30 33 Cl 0.536947 0.634295 -3.275873 0
M  V30 34 C 4.530135 1.993950 1.615213 0
M  V30 35 H 6.054908 -1.050269 4.260192 0
M  V30 36 H 4.795886 -0.071955 5.124458 0
M  V30 37 H 6.471013 0.544263 4.922297 0
M  V30 38 H 5.001432 2.579964 4.876419 0
M  V30 39 H 4.220582 4.822715 4.178409 0
M  V30 40 H 3.635828 5.287427 1.870292 0
M  V30 41 H 4.315054 2.988820 -0.905700 0
M  V30 42 H 4.073700 4.668479 -0.443519 0
M  V30 43 H 1.635635 4.122089 0.194997 0
M  V30 44 H 2.091483 3.798774 -1.557328 0
M  V30 45 H -0.370580 2.660384 -0.962619 0
M  V30 46 H -0.848437 0.884263 1.414914 0
M  V30 47 H -1.164278 -0.456529 3.168151 0
M  V30 48 H -2.654716 -1.358125 3.579826 0
M  V30 49 H -2.731453 0.196800 2.605441 0
M  V30 50 H -1.325936 -3.517257 -0.474245 0
M  V30 51 H -2.741918 -5.624786 -0.697467 0
M  V30 52 H -4.126652 -5.842174 -3.298655 0
M  V30 53 H -7.423299 -6.871827 0.193694 0
M  V30 54 H -0.896188 -1.757557 -2.728851 0
M  V30 55 H 4.594407 1.260243 0.838866 0
M  V30 END ATOM
M  V30 BEGIN BOND
M  V30 1 1 1 2
M  V30 2 1 2 3
M  V30 3 2 3 4
M  V30 4 1 4 5
M  V30 5 2 5 6
M  V30 6 1 6 7
M  V30 7 1 7 8
M  V30 8 1 8 9
M  V30 9 1 9 10
M  V30 10 2 10 11
M  V30 11 1 10 12
M  V30 12 1 12 13
M  V30 13 2 13 14
M  V30 14 1 14 15
M  V30 15 1 15 16
M  V30 16 1 16 17
M  V30 17 2 15 18
M  V30 18 1 18 19
M  V30 19 1 19 20
M  V30 20 2 20 21
M  V30 21 1 20 22
M  V30 22 1 22 23
M  V30 23 2 23 24
M  V30 24 1 24 25
M  V30 25 2 25 26
M  V30 26 1 26 27
M  V30 27 3 27 28
M  V30 28 1 26 29
M  V30 29 2 29 30
M  V30 30 1 18 31
M  V30 31 2 31 32
M  V30 32 1 32 33
M  V30 33 2 7 34
M  V30 34 1 34 3
M  V30 35 1 32 13
M  V30 36 1 30 23
M  V30 37 1 1 35
M  V30 38 1 1 36
M  V30 39 1 1 37
M  V30 40 1 4 38
M  V30 41 1 5 39
M  V30 42 1 6 40
M  V30 43 1 8 41
M  V30 44 1 8 42
M  V30 45 1 9 43
M  V30 46 1 9 44
M  V30 47 1 12 45
M  V30 48 1 14 46
M  V30 49 1 17 47
M  V30 50 1 17 48
M  V30 51 1 17 49
M  V30 52 1 19 50
M  V30 53 1 22 51
M  V30 54 1 24 52
M  V30 55 1 29 53
M  V30 56 1 31 54
M  V30 57 1 34 55
M  V30 END BOND
M  V30 END CTAB
M  END
>  <Dataset>  (503) 
ChEMBL_Kinases

>  <Ligand_Instance>  (503) 
nan

>  <PDB_ID>  (503) 
nan

>  <Standardized_SMILES>  (503) 
COc1cccc(CCC(=O)Nc2cc(OC)c(NC(=O)Nc3cnc(C#N)cn3)cc2Cl)c1

>  <Name>  (503) 
nan

>  <Pocket>  (503) 
nan

>  <ATP_Site>  (503) 
nan

>  <Peripheral>  (503) 
nan

>  <Num_H_Atoms_ProtBoundConf>  (503) 
nan

>  <Num_Resolved_Atoms>  (503) 
nan

>  <Num_Not_Resolved_Atoms>  (503) 
nan

$$$$
CHEMBL3810035
     RDKit          3D

  0  0  0  0  0  0  0  0  0  0999 V3000
M  V30 BEGIN CTAB
M  V30 COUNTS 58 62 0 0 0
M  V30 BEGIN ATOM
M  V30 1 C 2.550681 1.677732 5.697990 0
M  V30 2 O 1.511041 1.159515 4.917624 0
M  V30 3 C 1.629347 0.666910 3.637680 0
M  V30 4 C 2.825701 0.626527 2.958211 0
M  V30 5 C 2.985382 0.134150 1.659402 0
M  V30 6 C 4.313779 0.152445 1.058895 0
M  V30 7 C 5.205235 1.151356 1.388069 0
M  V30 8 N 6.324630 0.865973 0.659287 0
M  V30 9 N 6.101863 -0.235482 -0.054896 0
M  V30 10 C 7.088906 -0.819791 -0.944442 0
M  V30 11 C 4.861735 -0.730361 0.150849 0
M  V30 12 C 1.845696 -0.335839 1.045397 0
M  V30 13 C 0.639314 -0.302027 1.713416 0
M  V30 14 C 0.480619 0.182712 2.992841 0
M  V30 15 N -0.801182 0.181554 3.606572 0
M  V30 16 C -2.089798 -0.259413 3.148857 0
M  V30 17 N -3.113653 -0.104891 4.001817 0
M  V30 18 C -4.331416 -0.500715 3.620818 0
M  V30 19 C -4.534150 -1.055294 2.380267 0
M  V30 20 C -5.741624 -1.502494 1.867881 0
M  V30 21 C -5.900052 -2.046170 0.630958 0
M  V30 22 N -4.799931 -2.141791 -0.115461 0
M  V30 23 C -3.589681 -1.743709 0.277107 0
M  V30 24 S -2.136035 -1.900010 -0.781816 0
M  V30 25 C -2.590656 -2.643889 -2.368200 0
M  V30 26 C -3.484946 -1.740694 -3.154096 0
M  V30 27 C -2.749836 -0.546431 -3.724746 0
M  V30 28 C -1.256915 -0.664396 -3.644281 0
M  V30 29 C -0.728596 -2.033390 -3.927306 0
M  V30 30 C -1.358619 -3.097907 -3.080950 0
M  V30 31 C -3.460848 -1.198976 1.530194 0
M  V30 32 N -2.254388 -0.795121 1.936175 0
M  V30 33 H 2.914456 2.660117 5.288147 0
M  V30 34 H 2.180329 1.816903 6.734057 0
M  V30 35 H 3.434662 1.006108 5.723304 0
M  V30 36 H 3.659732 1.016529 3.522368 0
M  V30 37 H 5.113383 1.995430 2.056496 0
M  V30 38 H 7.059526 -1.919758 -0.787322 0
M  V30 39 H 8.116354 -0.481563 -0.699389 0
M  V30 40 H 6.836926 -0.650189 -2.016761 0
M  V30 41 H 4.390961 -1.594823 -0.272598 0
M  V30 42 H 2.023538 -0.704233 0.045115 0
M  V30 43 H -0.127976 -0.702017 1.091551 0
M  V30 44 H -0.750175 0.594384 4.589420 0
M  V30 45 H -5.197775 -0.404869 4.258521 0
M  V30 46 H -6.604774 -1.402428 2.513969 0
M  V30 47 H -6.856005 -2.383675 0.265186 0
M  V30 48 H -3.194696 -3.577078 -2.167573 0
M  V30 49 H -4.314243 -1.440904 -2.500592 0
M  V30 50 H -3.942531 -2.314634 -3.980570 0
M  V30 51 H -3.016705 0.387763 -3.154041 0
M  V30 52 H -3.063329 -0.384409 -4.764671 0
M  V30 53 H -0.840364 0.008277 -4.433724 0
M  V30 54 H -0.850484 -0.295310 -2.684664 0
M  V30 55 H 0.362202 -2.004254 -3.765484 0
M  V30 56 H -0.863344 -2.232674 -5.019658 0
M  V30 57 H -1.542726 -4.000003 -3.715149 0
M  V30 58 H -0.623933 -3.430626 -2.322785 0
M  V30 END ATOM
M  V30 BEGIN BOND
M  V30 1 1 1 2
M  V30 2 1 2 3
M  V30 3 2 3 4
M  V30 4 1 4 5
M  V30 5 1 5 6
M  V30 6 1 6 7
M  V30 7 2 7 8
M  V30 8 1 8 9
M  V30 9 1 9 10
M  V30 10 1 9 11
M  V30 11 2 5 12
M  V30 12 1 12 13
M  V30 13 2 13 14
M  V30 14 1 14 15
M  V30 15 1 15 16
M  V30 16 2 16 17
M  V30 17 1 17 18
M  V30 18 2 18 19
M  V30 19 1 19 20
M  V30 20 2 20 21
M  V30 21 1 21 22
M  V30 22 2 22 23
M  V30 23 1 23 24
M  V30 24 1 24 25
M  V30 25 1 25 26
M  V30 26 1 26 27
M  V30 27 1 27 28
M  V30 28 1 28 29
M  V30 29 1 29 30
M  V30 30 1 23 31
M  V30 31 2 31 32
M  V30 32 1 14 3
M  V30 33 1 32 16
M  V30 34 2 11 6
M  V30 35 1 31 19
M  V30 36 1 30 25
M  V30 37 1 1 33
M  V30 38 1 1 34
M  V30 39 1 1 35
M  V30 40 1 4 36
M  V30 41 1 7 37
M  V30 42 1 10 38
M  V30 43 1 10 39
M  V30 44 1 10 40
M  V30 45 1 11 41
M  V30 46 1 12 42
M  V30 47 1 13 43
M  V30 48 1 15 44
M  V30 49 1 18 45
M  V30 50 1 20 46
M  V30 51 1 21 47
M  V30 52 1 25 48
M  V30 53 1 26 49
M  V30 54 1 26 50
M  V30 55 1 27 51
M  V30 56 1 27 52
M  V30 57 1 28 53
M  V30 58 1 28 54
M  V30 59 1 29 55
M  V30 60 1 29 56
M  V30 61 1 30 57
M  V30 62 1 30 58
M  V30 END BOND
M  V30 END CTAB
M  END
>  <Dataset>  (504) 
ChEMBL_Kinases

>  <Ligand_Instance>  (504) 
nan

>  <PDB_ID>  (504) 
nan

>  <Standardized_SMILES>  (504) 
COc1cc(-c2cnn(C)c2)ccc1Nc1ncc2ccnc(SC3CCCCC3)c2n1

>  <Name>  (504) 
nan

>  <Pocket>  (504) 
nan

>  <ATP_Site>  (504) 
nan

>  <Peripheral>  (504) 
nan

>  <Num_H_Atoms_ProtBoundConf>  (504) 
nan

>  <Num_Resolved_Atoms>  (504) 
nan

>  <Num_Not_Resolved_Atoms>  (504) 
nan

$$$$
CHEMBL496355
     RDKit          3D

  0  0  0  0  0  0  0  0  0  0999 V3000
M  V30 BEGIN CTAB
M  V30 COUNTS 52 55 0 0 0
M  V30 BEGIN ATOM
M  V30 1 C 1.835142 -3.348566 5.195061 0
M  V30 2 N 2.653299 -2.161054 4.978481 0
M  V30 3 C 1.915983 -1.006262 5.468046 0
M  V30 4 C 2.918207 -2.024599 3.537848 0
M  V30 5 C 3.767445 -0.798491 3.293685 0
M  V30 6 C 4.074781 -0.600701 1.824730 0
M  V30 7 C 2.798120 -0.436285 1.041802 0
M  V30 8 C 2.334075 0.856524 0.907759 0
M  V30 9 C 1.158461 1.006933 0.187094 0
M  V30 10 N 0.472595 -0.018249 -0.369271 0
M  V30 11 C -0.674354 -0.057405 -1.095435 0
M  V30 12 C -1.455221 1.123262 -1.440275 0
M  V30 13 C -1.741485 1.711788 -2.649107 0
M  V30 14 C -2.522962 2.845663 -2.702759 0
M  V30 15 N -2.977300 3.333856 -1.556367 0
M  V30 16 C -2.725907 2.796324 -0.351450 0
M  V30 17 N -3.271258 3.409793 0.829679 0
M  V30 18 N -1.961003 1.686862 -0.303504 0
M  V30 19 C -0.923468 -1.376132 -1.413578 0
M  V30 20 C -2.039299 -1.913671 -2.184946 0
M  V30 21 C -2.899742 -2.721890 -1.433841 0
M  V30 22 C -4.001921 -3.307232 -2.022716 0
M  V30 23 C -4.314004 -3.135111 -3.355051 0
M  V30 24 F -5.359367 -3.658101 -4.024178 0
M  V30 25 C -3.451467 -2.333981 -4.076556 0
M  V30 26 C -2.343333 -1.735870 -3.517497 0
M  V30 27 N 0.077155 -2.094364 -0.871863 0
M  V30 28 C 0.950729 -1.268142 -0.221396 0
M  V30 29 C 2.119342 -1.502876 0.484616 0
M  V30 30 H 1.447699 -3.378229 6.230732 0
M  V30 31 H 0.912848 -3.218832 4.557583 0
M  V30 32 H 2.375531 -4.269153 4.920683 0
M  V30 33 H 0.999979 -1.333630 6.000882 0
M  V30 34 H 2.506931 -0.364659 6.141463 0
M  V30 35 H 1.569298 -0.414543 4.591851 0
M  V30 36 H 1.949005 -1.996079 3.046741 0
M  V30 37 H 3.445595 -2.949883 3.258381 0
M  V30 38 H 3.343493 0.104668 3.732528 0
M  V30 39 H 4.749805 -0.985690 3.778578 0
M  V30 40 H 4.691722 0.296434 1.739244 0
M  V30 41 H 4.550173 -1.509536 1.409465 0
M  V30 42 H 2.852358 1.697040 1.335422 0
M  V30 43 H 0.819918 2.049804 0.101371 0
M  V30 44 H -1.284982 1.174979 -3.463329 0
M  V30 45 H -2.701857 3.246414 -3.685361 0
M  V30 46 H -4.253942 3.747056 0.800887 0
M  V30 47 H -2.801135 3.571353 1.749580 0
M  V30 48 H -2.827767 -2.980559 -0.370947 0
M  V30 49 H -4.714040 -3.951934 -1.485919 0
M  V30 50 H -3.544434 -2.090899 -5.136734 0
M  V30 51 H -1.648403 -1.110516 -4.038606 0
M  V30 52 H 2.513302 -2.502171 0.610180 0
M  V30 END ATOM
M  V30 BEGIN BOND
M  V30 1 1 1 2
M  V30 2 1 2 3
M  V30 3 1 2 4
M  V30 4 1 4 5
M  V30 5 1 5 6
M  V30 6 1 6 7
M  V30 7 1 7 8
M  V30 8 2 8 9
M  V30 9 1 9 10
M  V30 10 1 10 11
M  V30 11 1 11 12
M  V30 12 2 12 13
M  V30 13 1 13 14
M  V30 14 2 14 15
M  V30 15 1 15 16
M  V30 16 1 16 17
M  V30 17 2 16 18
M  V30 18 2 11 19
M  V30 19 1 19 20
M  V30 20 2 20 21
M  V30 21 1 21 22
M  V30 22 2 22 23
M  V30 23 1 23 24
M  V30 24 1 23 25
M  V30 25 2 25 26
M  V30 26 1 19 27
M  V30 27 2 27 28
M  V30 28 1 28 29
M  V30 29 2 29 7
M  V30 30 1 28 10
M  V30 31 1 18 12
M  V30 32 1 26 20
M  V30 33 1 1 30
M  V30 34 1 1 31
M  V30 35 1 1 32
M  V30 36 1 3 33
M  V30 37 1 3 34
M  V30 38 1 3 35
M  V30 39 1 4 36
M  V30 40 1 4 37
M  V30 41 1 5 38
M  V30 42 1 5 39
M  V30 43 1 6 40
M  V30 44 1 6 41
M  V30 45 1 8 42
M  V30 46 1 9 43
M  V30 47 1 13 44
M  V30 48 1 14 45
M  V30 49 1 17 46
M  V30 50 1 17 47
M  V30 51 1 21 48
M  V30 52 1 22 49
M  V30 53 1 25 50
M  V30 54 1 26 51
M  V30 55 1 29 52
M  V30 END BOND
M  V30 END CTAB
M  END
>  <Dataset>  (505) 
ChEMBL_Kinases

>  <Ligand_Instance>  (505) 
nan

>  <PDB_ID>  (505) 
nan

>  <Standardized_SMILES>  (505) 
CN(C)CCCc1ccn2c(-c3ccnc(N)n3)c(-c3ccc(F)cc3)nc2c1

>  <Name>  (505) 
nan

>  <Pocket>  (505) 
nan

>  <ATP_Site>  (505) 
nan

>  <Peripheral>  (505) 
nan

>  <Num_H_Atoms_ProtBoundConf>  (505) 
nan

>  <Num_Resolved_Atoms>  (505) 
nan

>  <Num_Not_Resolved_Atoms>  (505) 
nan

$$$$
CHEMBL3809985
     RDKit          3D

  0  0  0  0  0  0  0  0  0  0999 V3000
M  V30 BEGIN CTAB
M  V30 COUNTS 22 23 0 0 0
M  V30 BEGIN ATOM
M  V30 1 O -1.792844 -3.716872 1.426642 0
M  V30 2 C -1.768659 -2.502936 1.092390 0
M  V30 3 C -0.677317 -1.536283 1.146348 0
M  V30 4 C 0.535354 -1.978791 1.632928 0
M  V30 5 C 1.547707 -1.018108 1.664958 0
M  V30 6 O 2.794739 -1.383908 2.140222 0
M  V30 7 C 1.307353 0.266765 1.231738 0
M  V30 8 C 0.083080 0.673804 0.751676 0
M  V30 9 C -0.938364 -0.253015 0.707406 0
M  V30 10 O -2.191498 0.088954 0.237036 0
M  V30 11 C -0.223141 2.016815 0.282449 0
M  V30 12 O -1.337386 2.375867 -0.151272 0
M  V30 13 C 0.869486 3.005938 0.330463 0
M  V30 14 C 2.056597 2.620839 0.793264 0
M  V30 15 C 2.378944 1.261782 1.271818 0
M  V30 16 O 3.534949 0.999547 1.690761 0
M  V30 17 H -2.761629 -2.245968 0.723607 0
M  V30 18 H 0.719282 -2.974982 1.968085 0
M  V30 19 H 3.562230 -1.511864 1.492008 0
M  V30 20 H -2.431380 -0.086023 -0.750659 0
M  V30 21 H 0.756588 4.040466 0.005730 0
M  V30 22 H 2.862434 3.350391 0.828657 0
M  V30 END ATOM
M  V30 BEGIN BOND
M  V30 1 2 1 2
M  V30 2 1 2 3
M  V30 3 2 3 4
M  V30 4 1 4 5
M  V30 5 1 5 6
M  V30 6 2 5 7
M  V30 7 1 7 8
M  V30 8 2 8 9
M  V30 9 1 9 10
M  V30 10 1 8 11
M  V30 11 2 11 12
M  V30 12 1 11 13
M  V30 13 2 13 14
M  V30 14 1 14 15
M  V30 15 2 15 16
M  V30 16 1 9 3
M  V30 17 1 15 7
M  V30 18 1 2 17
M  V30 19 1 4 18
M  V30 20 1 6 19
M  V30 21 1 10 20
M  V30 22 1 13 21
M  V30 23 1 14 22
M  V30 END BOND
M  V30 END CTAB
M  END
>  <Dataset>  (506) 
ChEMBL_Kinases

>  <Ligand_Instance>  (506) 
nan

>  <PDB_ID>  (506) 
nan

>  <Standardized_SMILES>  (506) 
O=Cc1cc(O)c2c(c1O)C(=O)C=CC2=O

>  <Name>  (506) 
nan

>  <Pocket>  (506) 
nan

>  <ATP_Site>  (506) 
nan

>  <Peripheral>  (506) 
nan

>  <Num_H_Atoms_ProtBoundConf>  (506) 
nan

>  <Num_Resolved_Atoms>  (506) 
nan

>  <Num_Not_Resolved_Atoms>  (506) 
nan

$$$$
CHEMBL496381
     RDKit          3D

  0  0  0  0  0  0  0  0  0  0999 V3000
M  V30 BEGIN CTAB
M  V30 COUNTS 27 28 0 0 0
M  V30 BEGIN ATOM
M  V30 1 C -2.551699 -4.219596 3.435005 0
M  V30 2 O -1.658563 -3.246835 2.940671 0
M  V30 3 C -1.322927 -3.295083 1.598775 0
M  V30 4 O -1.889934 -4.239506 0.997301 0
M  V30 5 C -0.409151 -2.331484 1.005518 0
M  V30 6 C 0.147018 -1.307767 1.772623 0
M  V30 7 C 1.018657 -0.407886 1.202798 0
M  V30 8 C 1.339855 -0.522883 -0.129598 0
M  V30 9 C 2.233147 0.459060 -0.769772 0
M  V30 10 C 1.892984 1.708621 -0.526593 0
M  V30 11 S 0.465137 2.194069 0.490070 0
M  V30 12 C 0.342703 3.861141 -0.210781 0
M  V30 13 O -0.762823 4.448739 -0.102724 0
M  V30 14 N 1.638017 4.115386 -0.757923 0
M  V30 15 C 2.456539 2.988096 -0.925551 0
M  V30 16 O 3.633791 3.087582 -1.404903 0
M  V30 17 C 0.830951 -1.511770 -0.953874 0
M  V30 18 C -0.036332 -2.376602 -0.313284 0
M  V30 19 H -2.229912 -4.552920 4.463344 0
M  V30 20 H -3.565191 -3.736226 3.501121 0
M  V30 21 H -2.651872 -5.096763 2.802512 0
M  V30 22 H -0.107814 -1.225233 2.817605 0
M  V30 23 H 1.418687 0.359460 1.871669 0
M  V30 24 H 3.111294 0.355625 -1.397767 0
M  V30 25 H 1.861794 5.107483 -0.984528 0
M  V30 26 H 1.099674 -1.585954 -1.999740 0
M  V30 27 H -0.458370 -3.173115 -0.943742 0
M  V30 END ATOM
M  V30 BEGIN BOND
M  V30 1 1 1 2
M  V30 2 1 2 3
M  V30 3 2 3 4
M  V30 4 1 3 5
M  V30 5 2 5 6
M  V30 6 1 6 7
M  V30 7 2 7 8
M  V30 8 1 8 9
M  V30 9 2 9 10
M  V30 10 1 10 11
M  V30 11 1 11 12
M  V30 12 2 12 13
M  V30 13 1 12 14
M  V30 14 1 14 15
M  V30 15 2 15 16
M  V30 16 1 8 17
M  V30 17 2 17 18
M  V30 18 1 18 5
M  V30 19 1 15 10
M  V30 20 1 1 19
M  V30 21 1 1 20
M  V30 22 1 1 21
M  V30 23 1 6 22
M  V30 24 1 7 23
M  V30 25 1 9 24
M  V30 26 1 14 25
M  V30 27 1 17 26
M  V30 28 1 18 27
M  V30 END BOND
M  V30 END CTAB
M  END
>  <Dataset>  (507) 
ChEMBL_Kinases

>  <Ligand_Instance>  (507) 
nan

>  <PDB_ID>  (507) 
nan

>  <Standardized_SMILES>  (507) 
COC(=O)c1ccc(/C=C2\SC(=O)NC2=O)cc1

>  <Name>  (507) 
nan

>  <Pocket>  (507) 
nan

>  <ATP_Site>  (507) 
nan

>  <Peripheral>  (507) 
nan

>  <Num_H_Atoms_ProtBoundConf>  (507) 
nan

>  <Num_Resolved_Atoms>  (507) 
nan

>  <Num_Not_Resolved_Atoms>  (507) 
nan

$$$$
CHEMBL496536
     RDKit          3D

  0  0  0  0  0  0  0  0  0  0999 V3000
M  V30 BEGIN CTAB
M  V30 COUNTS 40 44 0 0 0
M  V30 BEGIN ATOM
M  V30 1 C 0.578694 -6.614634 1.725731 0
M  V30 2 C 1.077832 -5.857027 2.786887 0
M  V30 3 C 1.359157 -4.531357 2.529052 0
M  V30 4 C 1.173526 -3.941731 1.304468 0
M  V30 5 C 1.496326 -2.532019 1.115096 0
M  V30 6 C 0.724289 -1.858506 0.183627 0
M  V30 7 C 0.935890 -0.525433 -0.080837 0
M  V30 8 C 1.915965 0.193158 0.562931 0
M  V30 9 O 2.308161 1.499754 0.471988 0
M  V30 10 C 1.770932 2.476378 -0.321817 0
M  V30 11 C 2.533869 3.113478 -1.270544 0
M  V30 12 N 2.143662 4.094159 -2.125008 0
M  V30 13 C 0.866269 4.496479 -2.042711 0
M  V30 14 C 0.069693 3.860653 -1.082113 0
M  V30 15 S -1.734811 4.151071 -0.677897 0
M  V30 16 C -1.777931 2.937464 0.584411 0
M  V30 17 C -2.981993 2.641803 1.356970 0
M  V30 18 N -3.401079 2.966577 2.571769 0
M  V30 19 N -4.596017 2.417196 2.774036 0
M  V30 20 N -4.952056 1.739178 1.697390 0
M  V30 21 N -3.961971 1.878907 0.832462 0
M  V30 22 C -0.543630 2.414068 0.641060 0
M  V30 23 C 0.452088 2.846923 -0.190830 0
M  V30 24 C 2.698190 -0.485107 1.505153 0
M  V30 25 C 2.492816 -1.840338 1.782786 0
M  V30 26 C 0.681911 -4.700320 0.271077 0
M  V30 27 C 0.384528 -6.039029 0.483975 0
M  V30 28 H 0.330796 -7.661215 1.836294 0
M  V30 29 H 1.226324 -6.321462 3.759243 0
M  V30 30 H 1.748370 -3.904383 3.322056 0
M  V30 31 H -0.062353 -2.343855 -0.364421 0
M  V30 32 H 0.389061 0.082389 -0.787789 0
M  V30 33 H 3.584299 2.789787 -1.345616 0
M  V30 34 H 0.416272 5.254660 -2.646023 0
M  V30 35 H -5.862196 1.217417 1.622907 0
M  V30 36 H -0.366066 1.630645 1.375823 0
M  V30 37 H 3.511285 -0.073117 2.102311 0
M  V30 38 H 3.058402 -2.405918 2.489499 0
M  V30 39 H 0.521196 -4.270619 -0.712537 0
M  V30 40 H -0.006222 -6.644517 -0.335031 0
M  V30 END ATOM
M  V30 BEGIN BOND
M  V30 1 2 1 2
M  V30 2 1 2 3
M  V30 3 2 3 4
M  V30 4 1 4 5
M  V30 5 2 5 6
M  V30 6 1 6 7
M  V30 7 2 7 8
M  V30 8 1 8 9
M  V30 9 1 9 10
M  V30 10 2 10 11
M  V30 11 1 11 12
M  V30 12 2 12 13
M  V30 13 1 13 14
M  V30 14 1 14 15
M  V30 15 1 15 16
M  V30 16 1 16 17
M  V30 17 1 17 18
M  V30 18 2 18 19
M  V30 19 1 19 20
M  V30 20 1 20 21
M  V30 21 2 16 22
M  V30 22 1 22 23
M  V30 23 1 8 24
M  V30 24 2 24 25
M  V30 25 1 4 26
M  V30 26 2 26 27
M  V30 27 1 27 1
M  V30 28 1 25 5
M  V30 29 1 23 10
M  V30 30 2 23 14
M  V30 31 2 21 17
M  V30 32 1 1 28
M  V30 33 1 2 29
M  V30 34 1 3 30
M  V30 35 1 6 31
M  V30 36 1 7 32
M  V30 37 1 11 33
M  V30 38 1 13 34
M  V30 39 1 20 35
M  V30 40 1 22 36
M  V30 41 1 24 37
M  V30 42 1 25 38
M  V30 43 1 26 39
M  V30 44 1 27 40
M  V30 END BOND
M  V30 END CTAB
M  END
>  <Dataset>  (508) 
ChEMBL_Kinases

>  <Ligand_Instance>  (508) 
nan

>  <PDB_ID>  (508) 
nan

>  <Standardized_SMILES>  (508) 
c1ccc(-c2ccc(Oc3cncc4sc(-c5nn[nH]n5)cc34)cc2)cc1

>  <Name>  (508) 
nan

>  <Pocket>  (508) 
nan

>  <ATP_Site>  (508) 
nan

>  <Peripheral>  (508) 
nan

>  <Num_H_Atoms_ProtBoundConf>  (508) 
nan

>  <Num_Resolved_Atoms>  (508) 
nan

>  <Num_Not_Resolved_Atoms>  (508) 
nan

$$$$
CHEMBL3809938
     RDKit          3D

  0  0  0  0  0  0  0  0  0  0999 V3000
M  V30 BEGIN CTAB
M  V30 COUNTS 23 24 0 0 0
M  V30 BEGIN ATOM
M  V30 1 O 2.018025 2.345842 1.695655 0
M  V30 2 C 1.573898 1.260987 1.242553 0
M  V30 3 C 2.512795 0.240072 0.805764 0
M  V30 4 C 2.226024 -0.950254 0.307079 0
M  V30 5 C 3.288854 -1.899434 -0.100484 0
M  V30 6 Br 5.007161 -1.071334 0.234474 0
M  V30 7 C 0.804236 -1.243318 0.194652 0
M  V30 8 O 0.441607 -2.371208 -0.277176 0
M  V30 9 C -0.248274 -0.304145 0.597907 0
M  V30 10 C -1.596522 -0.605427 0.481395 0
M  V30 11 O -1.864857 -1.841535 -0.036692 0
M  V30 12 C -2.502882 0.351777 0.891071 0
M  V30 13 C -2.105076 1.572791 1.401826 0
M  V30 14 C -0.762322 1.863948 1.514115 0
M  V30 15 O -0.382864 3.091746 2.027868 0
M  V30 16 C 0.176421 0.920909 1.110151 0
M  V30 17 H 3.584673 0.469894 0.894235 0
M  V30 18 H 3.248152 -2.184296 -1.171235 0
M  V30 19 H 3.245358 -2.816658 0.543588 0
M  V30 20 H -2.848013 -2.153148 -0.050940 0
M  V30 21 H -3.547379 0.079192 0.784292 0
M  V30 22 H -2.905136 2.233204 1.685798 0
M  V30 23 H -0.849234 3.487234 2.833218 0
M  V30 END ATOM
M  V30 BEGIN BOND
M  V30 1 2 1 2
M  V30 2 1 2 3
M  V30 3 2 3 4
M  V30 4 1 4 5
M  V30 5 1 5 6
M  V30 6 1 4 7
M  V30 7 2 7 8
M  V30 8 1 7 9
M  V30 9 2 9 10
M  V30 10 1 10 11
M  V30 11 1 10 12
M  V30 12 2 12 13
M  V30 13 1 13 14
M  V30 14 1 14 15
M  V30 15 2 14 16
M  V30 16 1 16 2
M  V30 17 1 16 9
M  V30 18 1 3 17
M  V30 19 1 5 18
M  V30 20 1 5 19
M  V30 21 1 11 20
M  V30 22 1 12 21
M  V30 23 1 13 22
M  V30 24 1 15 23
M  V30 END BOND
M  V30 END CTAB
M  END
>  <Dataset>  (509) 
ChEMBL_Kinases

>  <Ligand_Instance>  (509) 
nan

>  <PDB_ID>  (509) 
nan

>  <Standardized_SMILES>  (509) 
O=C1C=C(CBr)C(=O)c2c(O)ccc(O)c21

>  <Name>  (509) 
nan

>  <Pocket>  (509) 
nan

>  <ATP_Site>  (509) 
nan

>  <Peripheral>  (509) 
nan

>  <Num_H_Atoms_ProtBoundConf>  (509) 
nan

>  <Num_Resolved_Atoms>  (509) 
nan

>  <Num_Not_Resolved_Atoms>  (509) 
nan

$$$$
CHEMBL3809925
     RDKit          3D

  0  0  0  0  0  0  0  0  0  0999 V3000
M  V30 BEGIN CTAB
M  V30 COUNTS 53 57 0 0 0
M  V30 BEGIN ATOM
M  V30 1 C 2.095038 4.105935 -1.470784 0
M  V30 2 O 1.034617 3.337432 -0.953830 0
M  V30 3 C 1.308305 2.071987 -0.452749 0
M  V30 4 C 2.592207 1.578856 -0.461464 0
M  V30 5 C 2.904079 0.341601 0.020748 0
M  V30 6 C 4.268246 -0.171577 0.006226 0
M  V30 7 C 4.760858 -1.045547 0.960104 0
M  V30 8 N 6.039263 -1.278077 0.599749 0
M  V30 9 N 6.356080 -0.623008 -0.482446 0
M  V30 10 C 7.653175 -0.624949 -1.174481 0
M  V30 11 C 5.290071 0.079068 -0.889901 0
M  V30 12 C 1.889323 -0.436768 0.533985 0
M  V30 13 C 0.615869 0.090967 0.525880 0
M  V30 14 C 0.243667 1.330243 0.053218 0
M  V30 15 N -1.086954 1.815653 0.072532 0
M  V30 16 C -2.265175 1.208829 0.544332 0
M  V30 17 N -3.416334 1.901924 0.435218 0
M  V30 18 C -4.610209 1.477070 0.830294 0
M  V30 19 C -4.659504 0.223538 1.395751 0
M  V30 20 C -5.885443 -0.247169 1.816806 0
M  V30 21 C -5.913666 -1.505584 2.380825 0
M  V30 22 N -4.814669 -2.256956 2.524775 0
M  V30 23 C -3.597527 -1.800937 2.111829 0
M  V30 24 N -2.412863 -2.600795 2.290523 0
M  V30 25 C -2.453757 -3.901917 2.859715 0
M  V30 26 C -3.022856 -4.992537 2.019457 0
M  V30 27 C -2.238070 -5.221890 0.728172 0
M  V30 28 C -3.619113 -4.738485 0.660693 0
M  V30 29 C -3.529599 -0.547426 1.543076 0
M  V30 30 N -2.392413 -0.004196 1.105271 0
M  V30 31 H 2.534579 3.475050 -2.296266 0
M  V30 32 H 2.894082 4.329491 -0.761646 0
M  V30 33 H 1.681878 5.017946 -1.980311 0
M  V30 34 H 3.366426 2.233952 -0.879380 0
M  V30 35 H 4.207245 -1.440011 1.805946 0
M  V30 36 H 7.601104 -1.243552 -2.083872 0
M  V30 37 H 8.422215 -1.110210 -0.526318 0
M  V30 38 H 7.941410 0.390381 -1.502137 0
M  V30 39 H 5.168749 0.735025 -1.738697 0
M  V30 40 H 2.119050 -1.420100 0.920502 0
M  V30 41 H -0.123684 -0.575849 0.942578 0
M  V30 42 H -1.168451 2.792639 -0.341523 0
M  V30 43 H -5.495546 2.081340 0.714746 0
M  V30 44 H -6.839698 0.295374 1.740565 0
M  V30 45 H -6.817334 -1.949907 2.734162 0
M  V30 46 H -1.512392 -2.180297 1.980904 0
M  V30 47 H -1.389177 -4.212395 3.086484 0
M  V30 48 H -2.969469 -3.858424 3.852446 0
M  V30 49 H -3.453572 -5.881573 2.529758 0
M  V30 50 H -2.077508 -6.295326 0.503327 0
M  V30 51 H -1.360068 -4.609591 0.509170 0
M  V30 52 H -4.404136 -5.448058 0.287560 0
M  V30 53 H -3.872284 -3.705172 0.436079 0
M  V30 END ATOM
M  V30 BEGIN BOND
M  V30 1 1 1 2
M  V30 2 1 2 3
M  V30 3 2 3 4
M  V30 4 1 4 5
M  V30 5 1 5 6
M  V30 6 1 6 7
M  V30 7 2 7 8
M  V30 8 1 8 9
M  V30 9 1 9 10
M  V30 10 1 9 11
M  V30 11 2 5 12
M  V30 12 1 12 13
M  V30 13 2 13 14
M  V30 14 1 14 15
M  V30 15 1 15 16
M  V30 16 2 16 17
M  V30 17 1 17 18
M  V30 18 2 18 19
M  V30 19 1 19 20
M  V30 20 2 20 21
M  V30 21 1 21 22
M  V30 22 2 22 23
M  V30 23 1 23 24
M  V30 24 1 24 25
M  V30 25 1 25 26
M  V30 26 1 26 27
M  V30 27 1 27 28
M  V30 28 1 23 29
M  V30 29 2 29 30
M  V30 30 1 14 3
M  V30 31 1 30 16
M  V30 32 2 11 6
M  V30 33 1 29 19
M  V30 34 1 28 26
M  V30 35 1 1 31
M  V30 36 1 1 32
M  V30 37 1 1 33
M  V30 38 1 4 34
M  V30 39 1 7 35
M  V30 40 1 10 36
M  V30 41 1 10 37
M  V30 42 1 10 38
M  V30 43 1 11 39
M  V30 44 1 12 40
M  V30 45 1 13 41
M  V30 46 1 15 42
M  V30 47 1 18 43
M  V30 48 1 20 44
M  V30 49 1 21 45
M  V30 50 1 24 46
M  V30 51 1 25 47
M  V30 52 1 25 48
M  V30 53 1 26 49
M  V30 54 1 27 50
M  V30 55 1 27 51
M  V30 56 1 28 52
M  V30 57 1 28 53
M  V30 END BOND
M  V30 END CTAB
M  END
>  <Dataset>  (510) 
ChEMBL_Kinases

>  <Ligand_Instance>  (510) 
nan

>  <PDB_ID>  (510) 
nan

>  <Standardized_SMILES>  (510) 
COc1cc(-c2cnn(C)c2)ccc1Nc1ncc2ccnc(NCC3CC3)c2n1

>  <Name>  (510) 
nan

>  <Pocket>  (510) 
nan

>  <ATP_Site>  (510) 
nan

>  <Peripheral>  (510) 
nan

>  <Num_H_Atoms_ProtBoundConf>  (510) 
nan

>  <Num_Resolved_Atoms>  (510) 
nan

>  <Num_Not_Resolved_Atoms>  (510) 
nan

$$$$
CHEMBL496538
     RDKit          3D

  0  0  0  0  0  0  0  0  0  0999 V3000
M  V30 BEGIN CTAB
M  V30 COUNTS 37 39 0 0 0
M  V30 BEGIN ATOM
M  V30 1 C 1.703221 -4.883872 1.180777 0
M  V30 2 C 1.109782 -3.499536 1.063595 0 CFG=1
M  V30 3 C 1.628530 -2.828881 -0.181972 0
M  V30 4 O 1.212372 -3.501931 -1.345216 0
M  V30 5 N -0.313038 -3.570854 1.146955 0
M  V30 6 C -1.165571 -2.433211 1.070665 0
M  V30 7 C -2.542191 -2.509566 1.152125 0
M  V30 8 C -3.394724 -1.433448 1.082557 0
M  V30 9 C -2.809670 -0.204534 0.920117 0
M  V30 10 N -3.392800 1.007841 0.821726 0
M  V30 11 C -2.389576 1.914470 0.671496 0
M  V30 12 C -1.223672 1.187084 0.687064 0
M  V30 13 C 0.065418 1.860088 0.546631 0
M  V30 14 C 0.353748 3.024261 1.255937 0
M  V30 15 C 1.594160 3.651097 1.105435 0
M  V30 16 C 2.547836 3.124075 0.252384 0
M  V30 17 C 3.849222 3.737699 0.062315 0
M  V30 18 N 4.887269 4.231675 -0.069864 0
M  V30 19 C 2.294212 1.962608 -0.471974 0
M  V30 20 C 1.055246 1.381255 -0.288948 0
M  V30 21 N -1.484546 -0.124320 0.840981 0
M  V30 22 N -0.681377 -1.182599 0.911272 0
M  V30 23 H 2.579810 -5.055240 0.555660 0
M  V30 24 H 2.029154 -5.078121 2.235495 0
M  V30 25 H 0.956170 -5.660910 0.921838 0
M  V30 26 H 1.479100 -2.901159 1.916154 0
M  V30 27 H 2.739344 -2.942079 -0.159301 0
M  V30 28 H 1.317468 -1.784465 -0.233893 0
M  V30 29 H 1.242313 -2.839965 -2.085321 0
M  V30 30 H -0.796377 -4.497242 1.271760 0
M  V30 31 H -2.980732 -3.490896 1.280312 0
M  V30 32 H -4.462200 -1.554586 1.152347 0
M  V30 33 H -2.658797 2.954211 0.574826 0
M  V30 34 H -0.367782 3.451190 1.921949 0
M  V30 35 H 1.824327 4.557651 1.655035 0
M  V30 36 H 2.995308 1.491990 -1.159891 0
M  V30 37 H 0.796689 0.483799 -0.818058 0
M  V30 END ATOM
M  V30 BEGIN BOND
M  V30 1 1 1 2
M  V30 2 1 2 3
M  V30 3 1 3 4
M  V30 4 1 2 5
M  V30 5 1 5 6
M  V30 6 1 6 7
M  V30 7 2 7 8
M  V30 8 1 8 9
M  V30 9 2 9 10
M  V30 10 1 10 11
M  V30 11 2 11 12
M  V30 12 1 12 13
M  V30 13 2 13 14
M  V30 14 1 14 15
M  V30 15 2 15 16
M  V30 16 1 16 17
M  V30 17 3 17 18
M  V30 18 1 16 19
M  V30 19 2 19 20
M  V30 20 1 12 21
M  V30 21 1 21 22
M  V30 22 2 22 6
M  V30 23 1 21 9
M  V30 24 1 20 13
M  V30 25 1 1 23
M  V30 26 1 1 24
M  V30 27 1 1 25
M  V30 28 1 2 26 CFG=1
M  V30 29 1 3 27
M  V30 30 1 3 28
M  V30 31 1 4 29
M  V30 32 1 5 30
M  V30 33 1 7 31
M  V30 34 1 8 32
M  V30 35 1 11 33
M  V30 36 1 14 34
M  V30 37 1 15 35
M  V30 38 1 19 36
M  V30 39 1 20 37
M  V30 END BOND
M  V30 END CTAB
M  END
>  <Dataset>  (511) 
ChEMBL_Kinases

>  <Ligand_Instance>  (511) 
nan

>  <PDB_ID>  (511) 
nan

>  <Standardized_SMILES>  (511) 
C[C@@H](CO)Nc1ccc2ncc(-c3ccc(C#N)cc3)n2n1

>  <Name>  (511) 
nan

>  <Pocket>  (511) 
nan

>  <ATP_Site>  (511) 
nan

>  <Peripheral>  (511) 
nan

>  <Num_H_Atoms_ProtBoundConf>  (511) 
nan

>  <Num_Resolved_Atoms>  (511) 
nan

>  <Num_Not_Resolved_Atoms>  (511) 
nan

$$$$
CHEMBL496543
     RDKit          3D

  0  0  0  0  0  0  0  0  0  0999 V3000
M  V30 BEGIN CTAB
M  V30 COUNTS 44 48 0 0 0
M  V30 BEGIN ATOM
M  V30 1 C 0.757413 -4.990631 3.210787 0
M  V30 2 O 1.906394 -4.755449 4.007423 0
M  V30 3 C 2.677796 -3.608536 3.811841 0
M  V30 4 C 3.805944 -3.320710 4.552212 0
M  V30 5 C 4.506462 -2.142193 4.273487 0
M  V30 6 C 4.096832 -1.271947 3.284757 0
M  V30 7 C 2.972839 -1.529696 2.525583 0
M  V30 8 C 2.473653 -0.663485 1.462714 0
M  V30 9 C 2.613972 0.708947 1.485853 0
M  V30 10 C 2.111878 1.486188 0.430186 0
M  V30 11 C 1.459650 0.897278 -0.667820 0
M  V30 12 O 1.101708 1.932541 -1.504646 0
M  V30 13 C -0.031640 2.684693 -1.316624 0
M  V30 14 C 0.239719 4.038901 -1.107544 0
M  V30 15 N -0.650971 5.034257 -0.892831 0
M  V30 16 C -1.934763 4.710041 -0.874714 0
M  V30 17 C -2.237755 3.345455 -1.084054 0
M  V30 18 S -3.910014 2.479496 -1.138105 0
M  V30 19 C -3.214876 0.884550 -1.442889 0
M  V30 20 C -4.026823 -0.305120 -1.598183 0
M  V30 21 N -5.363237 -0.376736 -1.556583 0
M  V30 22 N -5.713146 -1.656085 -1.744476 0
M  V30 23 N -4.618221 -2.388858 -1.903322 0
M  V30 24 N -3.584044 -1.554712 -1.812617 0
M  V30 25 C -1.857333 1.063762 -1.486481 0
M  V30 26 C -1.347634 2.296281 -1.307656 0
M  V30 27 C 1.337101 -0.475348 -0.659089 0
M  V30 28 C 1.832076 -1.232530 0.380484 0
M  V30 29 C 2.306401 -2.709501 2.834032 0
M  V30 30 H -0.008440 -4.195079 3.362966 0
M  V30 31 H 1.008501 -5.005400 2.140179 0
M  V30 32 H 0.319995 -5.943154 3.549972 0
M  V30 33 H 4.119227 -4.009102 5.325129 0
M  V30 34 H 5.398084 -1.913741 4.857579 0
M  V30 35 H 4.649226 -0.366065 3.082332 0
M  V30 36 H 3.125029 1.075441 2.362353 0
M  V30 37 H 2.330320 2.543286 0.651102 0
M  V30 38 H 1.271060 4.436441 -1.099177 0
M  V30 39 H -2.786432 5.349591 -0.720922 0
M  V30 40 H -4.361622 -3.385000 -2.070672 0
M  V30 41 H -1.296244 0.166120 -1.669943 0
M  V30 42 H 0.832769 -0.789822 -1.552988 0
M  V30 43 H 1.664604 -2.293355 0.253685 0
M  V30 44 H 1.422430 -2.921835 2.244267 0
M  V30 END ATOM
M  V30 BEGIN BOND
M  V30 1 1 1 2
M  V30 2 1 2 3
M  V30 3 2 3 4
M  V30 4 1 4 5
M  V30 5 2 5 6
M  V30 6 1 6 7
M  V30 7 1 7 8
M  V30 8 2 8 9
M  V30 9 1 9 10
M  V30 10 2 10 11
M  V30 11 1 11 12
M  V30 12 1 12 13
M  V30 13 2 13 14
M  V30 14 1 14 15
M  V30 15 2 15 16
M  V30 16 1 16 17
M  V30 17 1 17 18
M  V30 18 1 18 19
M  V30 19 1 19 20
M  V30 20 1 20 21
M  V30 21 2 21 22
M  V30 22 1 22 23
M  V30 23 1 23 24
M  V30 24 2 19 25
M  V30 25 1 25 26
M  V30 26 1 11 27
M  V30 27 2 27 28
M  V30 28 2 7 29
M  V30 29 1 29 3
M  V30 30 1 28 8
M  V30 31 1 26 13
M  V30 32 2 26 17
M  V30 33 2 24 20
M  V30 34 1 1 30
M  V30 35 1 1 31
M  V30 36 1 1 32
M  V30 37 1 4 33
M  V30 38 1 5 34
M  V30 39 1 6 35
M  V30 40 1 9 36
M  V30 41 1 10 37
M  V30 42 1 14 38
M  V30 43 1 16 39
M  V30 44 1 23 40
M  V30 45 1 25 41
M  V30 46 1 27 42
M  V30 47 1 28 43
M  V30 48 1 29 44
M  V30 END BOND
M  V30 END CTAB
M  END
>  <Dataset>  (512) 
ChEMBL_Kinases

>  <Ligand_Instance>  (512) 
nan

>  <PDB_ID>  (512) 
nan

>  <Standardized_SMILES>  (512) 
COc1cccc(-c2ccc(Oc3cncc4sc(-c5nn[nH]n5)cc34)cc2)c1

>  <Name>  (512) 
nan

>  <Pocket>  (512) 
nan

>  <ATP_Site>  (512) 
nan

>  <Peripheral>  (512) 
nan

>  <Num_H_Atoms_ProtBoundConf>  (512) 
nan

>  <Num_Resolved_Atoms>  (512) 
nan

>  <Num_Not_Resolved_Atoms>  (512) 
nan

$$$$
CHEMBL496559
     RDKit          3D

  0  0  0  0  0  0  0  0  0  0999 V3000
M  V30 BEGIN CTAB
M  V30 COUNTS 55 58 0 0 0
M  V30 BEGIN ATOM
M  V30 1 C 2.281318 -2.308069 6.312775 0
M  V30 2 C 3.166443 -2.159940 5.127962 0
M  V30 3 C 2.502136 -2.007470 3.796802 0
M  V30 4 C 1.619942 -0.825257 3.644532 0
M  V30 5 C 1.032350 -0.747405 2.253242 0
M  V30 6 C 1.712240 0.004711 1.281033 0
M  V30 7 C 1.350780 0.195216 -0.033759 0
M  V30 8 N 0.216178 -0.413675 -0.416264 0
M  V30 9 C -0.414520 -0.437014 -1.604865 0
M  V30 10 C 0.049109 0.250070 -2.805635 0
M  V30 11 C 0.488239 -0.220839 -4.024906 0
M  V30 12 C 0.864321 0.693642 -4.984158 0
M  V30 13 N 0.822328 2.022791 -4.784545 0
M  V30 14 C 0.391126 2.458877 -3.588628 0
M  V30 15 N 0.360853 3.879309 -3.414362 0
M  V30 16 N 0.008673 1.602380 -2.608543 0
M  V30 17 C -1.549963 -1.210053 -1.479571 0
M  V30 18 C -2.553960 -1.533342 -2.486009 0
M  V30 19 C -3.789095 -0.977444 -2.133048 0
M  V30 20 C -4.905774 -1.141642 -2.923542 0
M  V30 21 C -4.812614 -1.866296 -4.086268 0
M  V30 22 F -5.795433 -2.135314 -4.989688 0
M  V30 23 C -3.601581 -2.411905 -4.433232 0
M  V30 24 C -2.477341 -2.256311 -3.653480 0
M  V30 25 N -1.570850 -1.641382 -0.184426 0
M  V30 26 C -0.492350 -1.151619 0.454098 0
M  V30 27 C -0.111525 -1.328236 1.763922 0
M  V30 28 N 0.648750 -0.578160 4.643452 0
M  V30 29 C -0.379742 -1.514838 4.881144 0
M  V30 30 C 0.055870 0.722354 4.383537 0
M  V30 31 H 1.540877 -3.104104 6.238784 0
M  V30 32 H 1.861922 -1.327139 6.622582 0
M  V30 33 H 2.906802 -2.602688 7.222984 0
M  V30 34 H 3.821838 -3.069139 5.066249 0
M  V30 35 H 3.901320 -1.317585 5.265565 0
M  V30 36 H 2.043970 -2.963018 3.461627 0
M  V30 37 H 3.351970 -1.862217 3.059028 0
M  V30 38 H 2.324180 0.062285 3.703559 0
M  V30 39 H 2.644449 0.508416 1.582470 0
M  V30 40 H 1.959265 0.799249 -0.689428 0
M  V30 41 H 0.476417 -1.282865 -4.056539 0
M  V30 42 H 1.195104 0.219583 -5.910838 0
M  V30 43 H 1.103108 4.483149 -3.846353 0
M  V30 44 H -0.403365 4.316291 -2.854983 0
M  V30 45 H -4.012062 -0.376907 -1.237646 0
M  V30 46 H -5.889207 -0.743892 -2.716522 0
M  V30 47 H -3.381770 -3.011796 -5.329716 0
M  V30 48 H -1.477998 -2.634199 -3.815930 0
M  V30 49 H -0.681576 -1.917391 2.430047 0
M  V30 50 H -0.514707 -1.537939 6.016014 0
M  V30 51 H -0.185989 -2.565600 4.637759 0
M  V30 52 H -1.398623 -1.173694 4.544921 0
M  V30 53 H -0.718768 0.995224 5.126286 0
M  V30 54 H -0.473672 0.681256 3.409464 0
M  V30 55 H 0.835691 1.520645 4.270293 0
M  V30 END ATOM
M  V30 BEGIN BOND
M  V30 1 1 1 2
M  V30 2 1 2 3
M  V30 3 1 3 4
M  V30 4 1 4 5
M  V30 5 1 5 6
M  V30 6 2 6 7
M  V30 7 1 7 8
M  V30 8 1 8 9
M  V30 9 1 9 10
M  V30 10 2 10 11
M  V30 11 1 11 12
M  V30 12 2 12 13
M  V30 13 1 13 14
M  V30 14 1 14 15
M  V30 15 2 14 16
M  V30 16 2 9 17
M  V30 17 1 17 18
M  V30 18 2 18 19
M  V30 19 1 19 20
M  V30 20 2 20 21
M  V30 21 1 21 22
M  V30 22 1 21 23
M  V30 23 2 23 24
M  V30 24 1 17 25
M  V30 25 2 25 26
M  V30 26 1 26 27
M  V30 27 1 4 28
M  V30 28 1 28 29
M  V30 29 1 28 30
M  V30 30 2 27 5
M  V30 31 1 26 8
M  V30 32 1 16 10
M  V30 33 1 24 18
M  V30 34 1 1 31
M  V30 35 1 1 32
M  V30 36 1 1 33
M  V30 37 1 2 34
M  V30 38 1 2 35
M  V30 39 1 3 36
M  V30 40 1 3 37
M  V30 41 1 4 38
M  V30 42 1 6 39
M  V30 43 1 7 40
M  V30 44 1 11 41
M  V30 45 1 12 42
M  V30 46 1 15 43
M  V30 47 1 15 44
M  V30 48 1 19 45
M  V30 49 1 20 46
M  V30 50 1 23 47
M  V30 51 1 24 48
M  V30 52 1 27 49
M  V30 53 1 29 50
M  V30 54 1 29 51
M  V30 55 1 29 52
M  V30 56 1 30 53
M  V30 57 1 30 54
M  V30 58 1 30 55
M  V30 END BOND
M  V30 END CTAB
M  END
>  <Dataset>  (513) 
ChEMBL_Kinases

>  <Ligand_Instance>  (513) 
nan

>  <PDB_ID>  (513) 
nan

>  <Standardized_SMILES>  (513) 
CCCC(c1ccn2c(-c3ccnc(N)n3)c(-c3ccc(F)cc3)nc2c1)N(C)C

>  <Name>  (513) 
nan

>  <Pocket>  (513) 
nan

>  <ATP_Site>  (513) 
nan

>  <Peripheral>  (513) 
nan

>  <Num_H_Atoms_ProtBoundConf>  (513) 
nan

>  <Num_Resolved_Atoms>  (513) 
nan

>  <Num_Not_Resolved_Atoms>  (513) 
nan

$$$$
CHEMBL381260
     RDKit          3D

  0  0  0  0  0  0  0  0  0  0999 V3000
M  V30 BEGIN CTAB
M  V30 COUNTS 64 68 0 0 0
M  V30 BEGIN ATOM
M  V30 1 N 6.206320 -2.228847 4.774994 0
M  V30 2 C 5.057556 -2.221671 3.831194 0 CFG=2
M  V30 3 C 4.989146 -0.844207 3.250535 0
M  V30 4 O 3.980556 -0.755485 2.304775 0
M  V30 5 C 3.594419 0.312389 1.547951 0
M  V30 6 C 4.131076 1.582885 1.546523 0
M  V30 7 N 3.610345 2.518224 0.718079 0
M  V30 8 C 2.580020 2.210636 -0.095122 0
M  V30 9 C 1.991291 0.980250 -0.155943 0
M  V30 10 C 0.878508 0.640048 -1.033107 0
M  V30 11 C 0.293878 1.436207 -1.879787 0
M  V30 12 C -0.804803 1.132161 -2.758626 0
M  V30 13 C -1.367608 2.037278 -3.634327 0
M  V30 14 C -2.423317 1.724453 -4.468455 0
M  V30 15 N -2.962383 0.493374 -4.463523 0
M  V30 16 C -2.476589 -0.462002 -3.637669 0
M  V30 17 S -3.171847 -2.100356 -3.613103 0
M  V30 18 C -4.517312 -2.275992 -2.424546 0
M  V30 19 C -5.718717 -1.480748 -2.775484 0
M  V30 20 C -5.916927 -0.186318 -2.353606 0
M  V30 21 C -6.994782 0.626505 -2.625733 0
M  V30 22 C -7.996212 0.062472 -3.422368 0
M  V30 23 C -7.852827 -1.226839 -3.873306 0
M  V30 24 C -6.746233 -1.999346 -3.568374 0
M  V30 25 C -1.409301 -0.120860 -2.804350 0
M  V30 26 C 2.526901 0.032943 0.690581 0
M  V30 27 C 3.891651 -2.666088 4.638884 0
M  V30 28 C 2.587835 -2.747180 4.013842 0
M  V30 29 C 2.044274 -3.878703 3.430225 0
M  V30 30 N 0.828424 -3.687798 2.886543 0
M  V30 31 C 0.547464 -2.379460 3.115793 0
M  V30 32 C -0.585225 -1.672769 2.774682 0
M  V30 33 C -0.643756 -0.335198 3.140076 0
M  V30 34 C 0.381427 0.288507 3.820617 0
M  V30 35 C 1.487471 -0.467874 4.133386 0
M  V30 36 C 1.599545 -1.799297 3.795119 0
M  V30 37 H 6.039664 -2.855042 5.569247 0
M  V30 38 H 6.458774 -1.269230 5.070974 0
M  V30 39 H 5.338516 -2.969478 3.051606 0
M  V30 40 H 5.954983 -0.631288 2.709957 0
M  V30 41 H 4.946185 -0.056823 4.032024 0
M  V30 42 H 4.942216 1.672984 2.245025 0
M  V30 43 H 2.216325 3.007020 -0.728424 0
M  V30 44 H 0.475588 -0.355468 -1.005131 0
M  V30 45 H 0.676688 2.467563 -1.938723 0
M  V30 46 H -0.969722 3.049917 -3.679515 0
M  V30 47 H -2.828411 2.475976 -5.139640 0
M  V30 48 H -4.732380 -3.365060 -2.338194 0
M  V30 49 H -4.187042 -1.938269 -1.410548 0
M  V30 50 H -5.107435 0.220436 -1.730023 0
M  V30 51 H -7.008600 1.642091 -2.214700 0
M  V30 52 H -8.842318 0.700198 -3.635876 0
M  V30 53 H -8.640917 -1.656925 -4.494248 0
M  V30 54 H -6.625358 -3.014654 -3.919307 0
M  V30 55 H -1.074298 -0.912281 -2.181787 0
M  V30 56 H 2.056224 -0.963242 0.646650 0
M  V30 57 H 4.088368 -3.680788 5.106135 0
M  V30 58 H 3.866483 -1.983720 5.538214 0
M  V30 59 H 2.546796 -4.844721 3.406207 0
M  V30 60 H 0.261877 -4.416995 2.403208 0
M  V30 61 H -1.433059 -2.071703 2.246412 0
M  V30 62 H -1.490348 0.316694 2.921478 0
M  V30 63 H 0.330864 1.348590 4.108928 0
M  V30 64 H 2.330535 -0.042450 4.667397 0
M  V30 END ATOM
M  V30 BEGIN BOND
M  V30 1 1 1 2
M  V30 2 1 2 3
M  V30 3 1 3 4
M  V30 4 1 4 5
M  V30 5 2 5 6
M  V30 6 1 6 7
M  V30 7 2 7 8
M  V30 8 1 8 9
M  V30 9 1 9 10
M  V30 10 2 10 11
M  V30 11 1 11 12
M  V30 12 2 12 13
M  V30 13 1 13 14
M  V30 14 2 14 15
M  V30 15 1 15 16
M  V30 16 1 16 17
M  V30 17 1 17 18
M  V30 18 1 18 19
M  V30 19 2 19 20
M  V30 20 1 20 21
M  V30 21 2 21 22
M  V30 22 1 22 23
M  V30 23 2 23 24
M  V30 24 2 16 25
M  V30 25 2 9 26
M  V30 26 1 2 27
M  V30 27 1 27 28
M  V30 28 2 28 29
M  V30 29 1 29 30
M  V30 30 1 30 31
M  V30 31 2 31 32
M  V30 32 1 32 33
M  V30 33 2 33 34
M  V30 34 1 34 35
M  V30 35 2 35 36
M  V30 36 1 26 5
M  V30 37 1 36 28
M  V30 38 1 25 12
M  V30 39 1 36 31
M  V30 40 1 24 19
M  V30 41 1 1 37
M  V30 42 1 1 38
M  V30 43 1 2 39 CFG=3
M  V30 44 1 3 40
M  V30 45 1 3 41
M  V30 46 1 6 42
M  V30 47 1 8 43
M  V30 48 1 10 44
M  V30 49 1 11 45
M  V30 50 1 13 46
M  V30 51 1 14 47
M  V30 52 1 18 48
M  V30 53 1 18 49
M  V30 54 1 20 50
M  V30 55 1 21 51
M  V30 56 1 22 52
M  V30 57 1 23 53
M  V30 58 1 24 54
M  V30 59 1 25 55
M  V30 60 1 26 56
M  V30 61 1 27 57
M  V30 62 1 27 58
M  V30 63 1 29 59
M  V30 64 1 30 60
M  V30 65 1 32 61
M  V30 66 1 33 62
M  V30 67 1 34 63
M  V30 68 1 35 64
M  V30 END BOND
M  V30 END CTAB
M  END
>  <Dataset>  (514) 
ChEMBL_Kinases

>  <Ligand_Instance>  (514) 
nan

>  <PDB_ID>  (514) 
nan

>  <Standardized_SMILES>  (514) 
N[C@H](COc1cncc(/C=C/c2ccnc(SCc3ccccc3)c2)c1)Cc1c[nH]c2ccccc12

>  <Name>  (514) 
nan

>  <Pocket>  (514) 
nan

>  <ATP_Site>  (514) 
nan

>  <Peripheral>  (514) 
nan

>  <Num_H_Atoms_ProtBoundConf>  (514) 
nan

>  <Num_Resolved_Atoms>  (514) 
nan

>  <Num_Not_Resolved_Atoms>  (514) 
nan

$$$$
CHEMBL3809764
     RDKit          3D

  0  0  0  0  0  0  0  0  0  0999 V3000
M  V30 BEGIN CTAB
M  V30 COUNTS 60 64 0 0 0
M  V30 BEGIN ATOM
M  V30 1 C 0.500695 -3.987796 3.531391 0
M  V30 2 C 0.998611 -3.536878 2.197780 0
M  V30 3 O 2.139382 -3.810325 1.762741 0
M  V30 4 N 0.044343 -2.751882 1.442744 0
M  V30 5 C 0.449543 -2.290368 0.153018 0
M  V30 6 C 1.071793 -1.035800 0.171571 0
M  V30 7 C 1.523333 -0.457624 -1.009349 0
M  V30 8 N 2.123209 0.828089 -1.142990 0
M  V30 9 C 1.570325 1.693564 -0.173627 0
M  V30 10 C 2.003445 2.136613 1.035477 0
M  V30 11 C 1.249104 3.004414 1.832063 0
M  V30 12 N 1.800156 3.426323 3.060864 0
M  V30 13 C 1.588638 4.192463 4.236010 0
M  V30 14 C 1.161149 5.635155 3.992941 0
M  V30 15 C 0.310631 4.632741 4.802241 0
M  V30 16 N 0.069895 3.361119 1.306939 0
M  V30 17 N -0.871321 4.136622 1.759364 0
M  V30 18 C -1.912381 4.259556 0.955887 0
M  V30 19 C -1.647448 3.490285 -0.148060 0
M  V30 20 C -2.479780 3.300809 -1.294940 0
M  V30 21 N -3.157096 3.129685 -2.227747 0
M  V30 22 C -0.407124 2.960209 0.128372 0
M  V30 23 N 0.350708 2.128006 -0.604217 0
M  V30 24 C 1.370658 -1.114519 -2.242625 0
M  V30 25 C 0.752234 -2.349920 -2.217698 0
M  V30 26 C 0.292555 -2.945862 -1.069698 0
M  V30 27 N -0.373359 -4.213759 -0.981486 0
M  V30 28 C -1.677099 -4.133330 -0.340310 0
M  V30 29 C -2.696260 -5.003166 -1.012442 0
M  V30 30 N -2.277838 -5.512665 -2.281667 0
M  V30 31 C -2.527982 -4.603683 -3.378423 0
M  V30 32 C -0.988096 -6.070712 -2.362595 0
M  V30 33 C 0.021016 -5.535621 -1.414773 0
M  V30 34 H -0.174207 -3.238996 3.999659 0
M  V30 35 H -0.063826 -4.942335 3.470345 0
M  V30 36 H 1.379076 -4.098953 4.204956 0
M  V30 37 H -0.920041 -2.528595 1.834976 0
M  V30 38 H 1.233359 -0.455896 1.068707 0
M  V30 39 H 2.853925 1.002549 -1.881540 0
M  V30 40 H 2.981692 1.733951 1.282511 0
M  V30 41 H 2.779102 3.022172 3.199172 0
M  V30 42 H 2.475558 4.181489 4.960281 0
M  V30 43 H 1.651593 6.452474 4.580659 0
M  V30 44 H 0.788576 5.943037 3.000222 0
M  V30 45 H -0.654898 4.341475 4.397579 0
M  V30 46 H 0.346512 4.829891 5.925945 0
M  V30 47 H -2.802987 4.853777 1.130304 0
M  V30 48 H 1.713743 -0.697573 -3.181180 0
M  V30 49 H 0.608830 -2.903474 -3.149660 0
M  V30 50 H -2.024877 -3.089841 -0.239240 0
M  V30 51 H -1.522429 -4.529630 0.683175 0
M  V30 52 H -3.005944 -5.841748 -0.361066 0
M  V30 53 H -3.607691 -4.375514 -1.178948 0
M  V30 54 H -1.730832 -4.676086 -4.146868 0
M  V30 55 H -2.443544 -3.560729 -2.951046 0
M  V30 56 H -3.556440 -4.752328 -3.824510 0
M  V30 57 H -1.111064 -7.193768 -2.231184 0
M  V30 58 H -0.668892 -5.997185 -3.447246 0
M  V30 59 H 0.007293 -6.197048 -0.517577 0
M  V30 60 H 1.049447 -5.587825 -1.830309 0
M  V30 END ATOM
M  V30 BEGIN BOND
M  V30 1 1 1 2
M  V30 2 2 2 3
M  V30 3 1 2 4
M  V30 4 1 4 5
M  V30 5 2 5 6
M  V30 6 1 6 7
M  V30 7 1 7 8
M  V30 8 1 8 9
M  V30 9 1 9 10
M  V30 10 2 10 11
M  V30 11 1 11 12
M  V30 12 1 12 13
M  V30 13 1 13 14
M  V30 14 1 14 15
M  V30 15 1 11 16
M  V30 16 1 16 17
M  V30 17 2 17 18
M  V30 18 1 18 19
M  V30 19 1 19 20
M  V30 20 3 20 21
M  V30 21 2 19 22
M  V30 22 1 22 23
M  V30 23 2 7 24
M  V30 24 1 24 25
M  V30 25 2 25 26
M  V30 26 1 26 27
M  V30 27 1 27 28
M  V30 28 1 28 29
M  V30 29 1 29 30
M  V30 30 1 30 31
M  V30 31 1 30 32
M  V30 32 1 32 33
M  V30 33 1 26 5
M  V30 34 1 33 27
M  V30 35 2 23 9
M  V30 36 1 15 13
M  V30 37 1 22 16
M  V30 38 1 1 34
M  V30 39 1 1 35
M  V30 40 1 1 36
M  V30 41 1 4 37
M  V30 42 1 6 38
M  V30 43 1 8 39
M  V30 44 1 10 40
M  V30 45 1 12 41
M  V30 46 1 13 42
M  V30 47 1 14 43
M  V30 48 1 14 44
M  V30 49 1 15 45
M  V30 50 1 15 46
M  V30 51 1 18 47
M  V30 52 1 24 48
M  V30 53 1 25 49
M  V30 54 1 28 50
M  V30 55 1 28 51
M  V30 56 1 29 52
M  V30 57 1 29 53
M  V30 58 1 31 54
M  V30 59 1 31 55
M  V30 60 1 31 56
M  V30 61 1 32 57
M  V30 62 1 32 58
M  V30 63 1 33 59
M  V30 64 1 33 60
M  V30 END BOND
M  V30 END CTAB
M  END
>  <Dataset>  (515) 
ChEMBL_Kinases

>  <Ligand_Instance>  (515) 
nan

>  <PDB_ID>  (515) 
nan

>  <Standardized_SMILES>  (515) 
CC(=O)Nc1cc(Nc2cc(NC3CC3)n3ncc(C#N)c3n2)ccc1N1CCN(C)CC1

>  <Name>  (515) 
nan

>  <Pocket>  (515) 
nan

>  <ATP_Site>  (515) 
nan

>  <Peripheral>  (515) 
nan

>  <Num_H_Atoms_ProtBoundConf>  (515) 
nan

>  <Num_Resolved_Atoms>  (515) 
nan

>  <Num_Not_Resolved_Atoms>  (515) 
nan

$$$$
CHEMBL496560
     RDKit          3D

  0  0  0  0  0  0  0  0  0  0999 V3000
M  V30 BEGIN CTAB
M  V30 COUNTS 38 40 0 0 0
M  V30 BEGIN ATOM
M  V30 1 N 2.600902 -3.612431 5.074491 0
M  V30 2 C 2.050277 -3.951781 3.806617 0
M  V30 3 N 2.152714 -5.203675 3.324718 0
M  V30 4 C 1.654564 -5.595261 2.131536 0
M  V30 5 C 0.989533 -4.653695 1.337897 0
M  V30 6 C 0.885922 -3.370912 1.834343 0
M  V30 7 C 0.203400 -2.344272 1.052722 0
M  V30 8 C -0.380641 -2.509454 -0.185696 0
M  V30 9 C -0.891266 -1.279795 -0.518486 0
M  V30 10 C -0.648857 -0.353571 0.463572 0
M  V30 11 N 0.026499 -1.058505 1.406660 0
M  V30 12 C -1.057513 1.075528 0.438647 0
M  V30 13 C 0.131363 1.850390 -0.071851 0
M  V30 14 C -0.194646 3.335266 -0.132410 0
M  V30 15 C 1.005205 4.120341 -0.647865 0
M  V30 16 O 2.058412 3.910721 0.215447 0
M  V30 17 C -2.274505 1.230819 -0.432751 0
M  V30 18 N -2.011979 0.582054 -1.703218 0
M  V30 19 C -1.628387 -0.788386 -1.698278 0
M  V30 20 O -1.886298 -1.582354 -2.638869 0
M  V30 21 N 1.409181 -3.059203 3.033294 0
M  V30 22 H 1.708787 -3.656972 5.631243 0
M  V30 23 H 3.612947 -3.414842 5.202825 0
M  V30 24 H 1.750940 -6.612583 1.765756 0
M  V30 25 H 0.561488 -4.883995 0.370583 0
M  V30 26 H -0.410288 -3.416729 -0.739163 0
M  V30 27 H 0.388748 -0.682056 2.324328 0
M  V30 28 H -1.244469 1.384838 1.481688 0
M  V30 29 H 0.422365 1.527428 -1.091878 0
M  V30 30 H 0.965221 1.649776 0.631376 0
M  V30 31 H -0.441461 3.733897 0.869489 0
M  V30 32 H -1.016508 3.484464 -0.860666 0
M  V30 33 H 1.250106 3.786892 -1.686807 0
M  V30 34 H 0.716199 5.186788 -0.614588 0
M  V30 35 H 2.800777 3.392959 -0.175512 0
M  V30 36 H -2.613618 2.258484 -0.535937 0
M  V30 37 H -3.087524 0.647953 0.073674 0
M  V30 38 H -2.082872 1.050741 -2.654751 0
M  V30 END ATOM
M  V30 BEGIN BOND
M  V30 1 1 1 2
M  V30 2 2 2 3
M  V30 3 1 3 4
M  V30 4 2 4 5
M  V30 5 1 5 6
M  V30 6 1 6 7
M  V30 7 2 7 8
M  V30 8 1 8 9
M  V30 9 2 9 10
M  V30 10 1 10 11
M  V30 11 1 10 12
M  V30 12 1 12 13
M  V30 13 1 13 14
M  V30 14 1 14 15
M  V30 15 1 15 16
M  V30 16 1 12 17
M  V30 17 1 17 18
M  V30 18 1 18 19
M  V30 19 2 19 20
M  V30 20 2 6 21
M  V30 21 1 21 2
M  V30 22 1 11 7
M  V30 23 1 19 9
M  V30 24 1 1 22
M  V30 25 1 1 23
M  V30 26 1 4 24
M  V30 27 1 5 25
M  V30 28 1 8 26
M  V30 29 1 11 27
M  V30 30 1 12 28
M  V30 31 1 13 29
M  V30 32 1 13 30
M  V30 33 1 14 31
M  V30 34 1 14 32
M  V30 35 1 15 33
M  V30 36 1 15 34
M  V30 37 1 16 35
M  V30 38 1 17 36
M  V30 39 1 17 37
M  V30 40 1 18 38
M  V30 END BOND
M  V30 END CTAB
M  END
>  <Dataset>  (516) 
ChEMBL_Kinases

>  <Ligand_Instance>  (516) 
nan

>  <PDB_ID>  (516) 
nan

>  <Standardized_SMILES>  (516) 
Nc1nccc(-c2cc3c([nH]2)C(CCCO)CNC3=O)n1

>  <Name>  (516) 
nan

>  <Pocket>  (516) 
nan

>  <ATP_Site>  (516) 
nan

>  <Peripheral>  (516) 
nan

>  <Num_H_Atoms_ProtBoundConf>  (516) 
nan

>  <Num_Resolved_Atoms>  (516) 
nan

>  <Num_Not_Resolved_Atoms>  (516) 
nan

$$$$
CHEMBL496567
     RDKit          3D

  0  0  0  0  0  0  0  0  0  0999 V3000
M  V30 BEGIN CTAB
M  V30 COUNTS 50 52 0 0 0
M  V30 BEGIN ATOM
M  V30 1 C 3.439236 -6.443838 -0.807989 0
M  V30 2 C 2.367741 -5.423052 -1.070127 0
M  V30 3 C 1.142216 -5.862782 -0.280144 0
M  V30 4 C 2.002181 -5.438982 -2.532836 0
M  V30 5 C 2.774397 -4.046953 -0.699170 0
M  V30 6 C 2.534012 -3.562939 0.591263 0
M  V30 7 N 3.002889 -2.321282 0.617395 0
M  V30 8 C 3.516989 -2.020506 -0.588063 0
M  V30 9 C 4.162283 -0.819187 -1.143035 0
M  V30 10 S 3.002813 0.328213 -1.902906 0
M  V30 11 C 1.921951 1.005573 -0.577925 0
M  V30 12 C 1.631459 1.006415 0.730289 0
M  V30 13 N 0.644349 1.783527 1.101661 0
M  V30 14 C -0.029898 2.478666 0.490638 0
M  V30 15 N -1.134365 3.404961 0.609498 0
M  V30 16 C -1.514247 3.467090 2.001575 0 CFG=1
M  V30 17 C -2.663076 4.434660 2.184451 0
M  V30 18 C -3.837177 3.833665 2.918313 0
M  V30 19 C -4.340357 2.557513 2.312099 0 CFG=2
M  V30 20 N -5.106886 1.830274 3.321272 0
M  V30 21 C -3.194663 1.668896 1.881973 0
M  V30 22 C -1.948917 2.155398 2.580723 0
M  V30 23 S 0.683708 2.196398 -1.248696 0
M  V30 24 O 3.357983 -3.092316 -1.354037 0
M  V30 25 H 3.291957 -6.979275 0.156825 0
M  V30 26 H 3.430020 -7.256583 -1.581017 0
M  V30 27 H 4.433116 -5.954791 -0.844082 0
M  V30 28 H 1.357928 -6.655958 0.435688 0
M  V30 29 H 0.766676 -4.989040 0.316766 0
M  V30 30 H 0.314005 -6.168342 -0.930137 0
M  V30 31 H 1.033833 -5.970977 -2.695661 0
M  V30 32 H 1.896465 -4.416675 -2.908627 0
M  V30 33 H 2.826478 -5.909158 -3.106697 0
M  V30 34 H 2.081839 -3.964343 1.492332 0
M  V30 35 H 4.646750 -0.245121 -0.301363 0
M  V30 36 H 4.970457 -1.031027 -1.844318 0
M  V30 37 H 2.317789 0.325905 1.210966 0
M  V30 38 H -1.532326 3.900804 -0.201635 0
M  V30 39 H -0.619957 3.797196 2.588098 0
M  V30 40 H -3.059587 4.792608 1.209581 0
M  V30 41 H -2.308709 5.292263 2.786133 0
M  V30 42 H -3.614136 3.710929 4.011250 0
M  V30 43 H -4.664895 4.570333 2.832976 0
M  V30 44 H -5.039847 2.733888 1.465863 0
M  V30 45 H -5.760680 1.140796 2.846939 0
M  V30 46 H -4.501340 1.343254 3.994809 0
M  V30 47 H -3.031561 1.868180 0.800337 0
M  V30 48 H -3.417761 0.605630 2.075479 0
M  V30 49 H -2.150882 2.338705 3.660047 0
M  V30 50 H -1.178730 1.359947 2.562490 0
M  V30 END ATOM
M  V30 BEGIN BOND
M  V30 1 1 1 2
M  V30 2 1 2 3
M  V30 3 1 2 4
M  V30 4 1 2 5
M  V30 5 2 5 6
M  V30 6 1 6 7
M  V30 7 2 7 8
M  V30 8 1 8 9
M  V30 9 1 9 10
M  V30 10 1 10 11
M  V30 11 2 11 12
M  V30 12 1 12 13
M  V30 13 2 13 14
M  V30 14 1 14 15
M  V30 15 1 15 16
M  V30 16 1 16 17
M  V30 17 1 17 18
M  V30 18 1 18 19
M  V30 19 1 19 20
M  V30 20 1 19 21
M  V30 21 1 21 22
M  V30 22 1 14 23
M  V30 23 1 8 24
M  V30 24 1 24 5
M  V30 25 1 23 11
M  V30 26 1 22 16
M  V30 27 1 1 25
M  V30 28 1 1 26
M  V30 29 1 1 27
M  V30 30 1 3 28
M  V30 31 1 3 29
M  V30 32 1 3 30
M  V30 33 1 4 31
M  V30 34 1 4 32
M  V30 35 1 4 33
M  V30 36 1 6 34
M  V30 37 1 9 35
M  V30 38 1 9 36
M  V30 39 1 12 37
M  V30 40 1 15 38
M  V30 41 1 16 39 CFG=1
M  V30 42 1 17 40
M  V30 43 1 17 41
M  V30 44 1 18 42
M  V30 45 1 18 43
M  V30 46 1 19 44 CFG=3
M  V30 47 1 20 45
M  V30 48 1 20 46
M  V30 49 1 21 47
M  V30 50 1 21 48
M  V30 51 1 22 49
M  V30 52 1 22 50
M  V30 END BOND
M  V30 END CTAB
M  END
>  <Dataset>  (517) 
ChEMBL_Kinases

>  <Ligand_Instance>  (517) 
nan

>  <PDB_ID>  (517) 
nan

>  <Standardized_SMILES>  (517) 
CC(C)(C)c1cnc(CSc2cnc(N[C@H]3CC[C@H](N)CC3)s2)o1

>  <Name>  (517) 
nan

>  <Pocket>  (517) 
nan

>  <ATP_Site>  (517) 
nan

>  <Peripheral>  (517) 
nan

>  <Num_H_Atoms_ProtBoundConf>  (517) 
nan

>  <Num_Resolved_Atoms>  (517) 
nan

>  <Num_Not_Resolved_Atoms>  (517) 
nan

$$$$
CHEMBL3809656
     RDKit          3D

  0  0  0  0  0  0  0  0  0  0999 V3000
M  V30 BEGIN CTAB
M  V30 COUNTS 51 55 0 0 0
M  V30 BEGIN ATOM
M  V30 1 C -2.611589 3.937256 -0.591202 0
M  V30 2 O -2.275027 2.832096 0.212682 0
M  V30 3 C -1.271809 1.930473 -0.081974 0
M  V30 4 C -0.505878 2.052485 -1.216987 0
M  V30 5 C 0.500040 1.165289 -1.531560 0
M  V30 6 C 1.282134 1.341607 -2.748644 0
M  V30 7 C 2.618402 0.998269 -2.972558 0
M  V30 8 N 2.919257 1.341636 -4.237381 0
M  V30 9 N 1.880556 1.881276 -4.850172 0
M  V30 10 C 1.860921 2.363464 -6.217460 0
M  V30 11 C 0.874088 1.889380 -3.958736 0
M  V30 12 C 0.735196 0.119393 -0.663511 0
M  V30 13 C -0.047975 0.022138 0.466214 0
M  V30 14 C -1.063284 0.882476 0.823166 0
M  V30 15 N -1.842677 0.736347 2.001715 0
M  V30 16 C -1.768493 -0.241707 3.008953 0
M  V30 17 N -2.653716 -0.133499 4.033295 0
M  V30 18 C -2.711048 -0.977240 5.056734 0
M  V30 19 C -1.823982 -2.021549 5.082865 0
M  V30 20 C -1.906803 -2.881635 6.153402 0
M  V30 21 C -1.034797 -3.954018 6.226340 0
M  V30 22 N -0.145965 -4.089736 5.228414 0
M  V30 23 C -0.076917 -3.227121 4.172611 0
M  V30 24 C 0.925720 -3.470490 3.142772 0
M  V30 25 C 1.871157 -2.748289 2.420522 0
M  V30 26 N 2.511759 -3.589790 1.579089 0
M  V30 27 N 2.029028 -4.815781 1.721559 0
M  V30 28 C 2.489856 -5.982937 0.968534 0
M  V30 29 C 1.066915 -4.778989 2.660612 0
M  V30 30 C -0.921342 -2.145024 4.053106 0
M  V30 31 N -0.904919 -1.267434 3.044981 0
M  V30 32 H -2.010018 4.803711 -0.187887 0
M  V30 33 H -2.434655 3.817827 -1.659070 0
M  V30 34 H -3.669945 4.254773 -0.399205 0
M  V30 35 H -0.666728 2.860657 -1.913789 0
M  V30 36 H 3.272753 0.541271 -2.247596 0
M  V30 37 H 0.851755 2.622750 -6.557005 0
M  V30 38 H 2.309993 1.596877 -6.886799 0
M  V30 39 H 2.573716 3.239948 -6.249472 0
M  V30 40 H -0.133085 2.255764 -4.101281 0
M  V30 41 H 1.521956 -0.564206 -0.921539 0
M  V30 42 H 0.213102 -0.818093 1.067956 0
M  V30 43 H -2.567087 1.488652 2.093267 0
M  V30 44 H -3.433536 -0.820969 5.816000 0
M  V30 45 H -2.636429 -2.741464 6.940003 0
M  V30 46 H -1.116596 -4.617607 7.075015 0
M  V30 47 H 1.927171 -1.686478 2.647113 0
M  V30 48 H 3.581629 -5.992686 0.914368 0
M  V30 49 H 2.072040 -5.968104 -0.074176 0
M  V30 50 H 2.057795 -6.877629 1.448589 0
M  V30 51 H 0.535067 -5.690050 2.932785 0
M  V30 END ATOM
M  V30 BEGIN BOND
M  V30 1 1 1 2
M  V30 2 1 2 3
M  V30 3 2 3 4
M  V30 4 1 4 5
M  V30 5 1 5 6
M  V30 6 1 6 7
M  V30 7 2 7 8
M  V30 8 1 8 9
M  V30 9 1 9 10
M  V30 10 1 9 11
M  V30 11 2 5 12
M  V30 12 1 12 13
M  V30 13 2 13 14
M  V30 14 1 14 15
M  V30 15 1 15 16
M  V30 16 2 16 17
M  V30 17 1 17 18
M  V30 18 2 18 19
M  V30 19 1 19 20
M  V30 20 2 20 21
M  V30 21 1 21 22
M  V30 22 2 22 23
M  V30 23 1 23 24
M  V30 24 1 24 25
M  V30 25 2 25 26
M  V30 26 1 26 27
M  V30 27 1 27 28
M  V30 28 1 27 29
M  V30 29 1 23 30
M  V30 30 2 30 31
M  V30 31 1 14 3
M  V30 32 1 31 16
M  V30 33 2 11 6
M  V30 34 1 30 19
M  V30 35 2 29 24
M  V30 36 1 1 32
M  V30 37 1 1 33
M  V30 38 1 1 34
M  V30 39 1 4 35
M  V30 40 1 7 36
M  V30 41 1 10 37
M  V30 42 1 10 38
M  V30 43 1 10 39
M  V30 44 1 11 40
M  V30 45 1 12 41
M  V30 46 1 13 42
M  V30 47 1 15 43
M  V30 48 1 18 44
M  V30 49 1 20 45
M  V30 50 1 21 46
M  V30 51 1 25 47
M  V30 52 1 28 48
M  V30 53 1 28 49
M  V30 54 1 28 50
M  V30 55 1 29 51
M  V30 END BOND
M  V30 END CTAB
M  END
>  <Dataset>  (518) 
ChEMBL_Kinases

>  <Ligand_Instance>  (518) 
nan

>  <PDB_ID>  (518) 
nan

>  <Standardized_SMILES>  (518) 
COc1cc(-c2cnn(C)c2)ccc1Nc1ncc2ccnc(-c3cnn(C)c3)c2n1

>  <Name>  (518) 
nan

>  <Pocket>  (518) 
nan

>  <ATP_Site>  (518) 
nan

>  <Peripheral>  (518) 
nan

>  <Num_H_Atoms_ProtBoundConf>  (518) 
nan

>  <Num_Resolved_Atoms>  (518) 
nan

>  <Num_Not_Resolved_Atoms>  (518) 
nan

$$$$
CHEMBL3809620
     RDKit          3D

  0  0  0  0  0  0  0  0  0  0999 V3000
M  V30 BEGIN CTAB
M  V30 COUNTS 68 71 0 0 0
M  V30 BEGIN ATOM
M  V30 1 C 3.456352 -5.486452 0.998641 0
M  V30 2 C 4.243457 -5.068563 -0.183765 0
M  V30 3 N 4.241888 -3.688130 -0.422011 0
M  V30 4 C 4.913045 -2.803498 0.438692 0
M  V30 5 C 4.262077 -2.666270 1.764397 0
M  V30 6 C 2.971626 -3.198571 -0.918500 0
M  V30 7 C 3.024167 -1.720784 -1.203981 0
M  V30 8 N 1.726479 -1.231978 -1.702059 0
M  V30 9 C 1.234541 -1.650506 -3.001044 0
M  V30 10 C 0.921928 -0.323614 -0.918181 0
M  V30 11 C -0.300391 -0.830868 -0.529887 0
M  V30 12 C -1.194943 -0.107812 0.229571 0
M  V30 13 C -0.838923 1.169213 0.606323 0
M  V30 14 N -1.713245 1.974987 1.394752 0
M  V30 15 C -2.892065 1.328790 1.844671 0
M  V30 16 C -4.116534 1.206301 1.233314 0
M  V30 17 C -5.198763 0.552275 1.772497 0
M  V30 18 N -6.429060 0.480235 1.082632 0
M  V30 19 C -7.030604 0.928783 -0.114139 0
M  V30 20 C -6.275695 0.616218 -1.366719 0
M  V30 21 C -6.601512 2.050795 -0.966601 0
M  V30 22 N -4.993716 0.007723 2.990037 0
M  V30 23 N -5.823241 -0.673658 3.759272 0
M  V30 24 C -5.210596 -1.029884 4.889591 0
M  V30 25 C -3.935344 -0.543125 4.815351 0
M  V30 26 C -2.882816 -0.663247 5.785337 0
M  V30 27 N -2.023473 -0.775437 6.569244 0
M  V30 28 C -3.829535 0.102676 3.612676 0
M  V30 29 N -2.767837 0.748818 3.076702 0
M  V30 30 C 0.390046 1.640484 0.198901 0
M  V30 31 C 1.305686 0.948374 -0.557248 0
M  V30 32 N 2.559284 1.400276 -0.984284 0
M  V30 33 C 3.209447 2.638501 -0.753603 0
M  V30 34 C 4.554814 3.014196 -1.260870 0
M  V30 35 O 2.624755 3.512443 -0.065961 0
M  V30 36 H 3.925039 -5.250325 1.969767 0
M  V30 37 H 3.384582 -6.612318 0.980406 0
M  V30 38 H 2.440173 -5.046141 1.002549 0
M  V30 39 H 3.776933 -5.564180 -1.077241 0
M  V30 40 H 5.313624 -5.403400 -0.084592 0
M  V30 41 H 5.932742 -3.274560 0.644336 0
M  V30 42 H 5.197765 -1.830693 -0.024260 0
M  V30 43 H 3.208672 -2.990726 1.829896 0
M  V30 44 H 4.261743 -1.586128 2.121167 0
M  V30 45 H 4.815325 -3.178736 2.601235 0
M  V30 46 H 2.716020 -3.756646 -1.846017 0
M  V30 47 H 2.193377 -3.407131 -0.161533 0
M  V30 48 H 3.307624 -1.209858 -0.279523 0
M  V30 49 H 3.763309 -1.475458 -1.986007 0
M  V30 50 H 1.184406 -0.807866 -3.712808 0
M  V30 51 H 0.161448 -1.950111 -2.832347 0
M  V30 52 H 1.736695 -2.543915 -3.377470 0
M  V30 53 H -0.614013 -1.825764 -0.804782 0
M  V30 54 H -2.146138 -0.503206 0.532723 0
M  V30 55 H -1.441399 2.963082 1.589138 0
M  V30 56 H -4.082460 1.683377 0.289935 0
M  V30 57 H -7.125544 -0.104400 1.647687 0
M  V30 58 H -8.126090 0.679563 -0.213641 0
M  V30 59 H -6.794035 0.211040 -2.256773 0
M  V30 60 H -5.218206 0.305639 -1.304463 0
M  V30 61 H -7.389049 2.537332 -1.620227 0
M  V30 62 H -5.836648 2.764151 -0.692748 0
M  V30 63 H -5.531519 -1.584535 5.763188 0
M  V30 64 H 0.619491 2.642451 0.519357 0
M  V30 65 H 3.174679 0.795152 -1.571172 0
M  V30 66 H 4.502508 3.858070 -1.978400 0
M  V30 67 H 5.255871 3.282306 -0.457939 0
M  V30 68 H 5.034551 2.144380 -1.788421 0
M  V30 END ATOM
M  V30 BEGIN BOND
M  V30 1 1 1 2
M  V30 2 1 2 3
M  V30 3 1 3 4
M  V30 4 1 4 5
M  V30 5 1 3 6
M  V30 6 1 6 7
M  V30 7 1 7 8
M  V30 8 1 8 9
M  V30 9 1 8 10
M  V30 10 2 10 11
M  V30 11 1 11 12
M  V30 12 2 12 13
M  V30 13 1 13 14
M  V30 14 1 14 15
M  V30 15 1 15 16
M  V30 16 2 16 17
M  V30 17 1 17 18
M  V30 18 1 18 19
M  V30 19 1 19 20
M  V30 20 1 20 21
M  V30 21 1 17 22
M  V30 22 1 22 23
M  V30 23 2 23 24
M  V30 24 1 24 25
M  V30 25 1 25 26
M  V30 26 3 26 27
M  V30 27 2 25 28
M  V30 28 1 28 29
M  V30 29 1 13 30
M  V30 30 2 30 31
M  V30 31 1 31 32
M  V30 32 1 32 33
M  V30 33 1 33 34
M  V30 34 2 33 35
M  V30 35 1 31 10
M  V30 36 2 29 15
M  V30 37 1 21 19
M  V30 38 1 28 22
M  V30 39 1 1 36
M  V30 40 1 1 37
M  V30 41 1 1 38
M  V30 42 1 2 39
M  V30 43 1 2 40
M  V30 44 1 4 41
M  V30 45 1 4 42
M  V30 46 1 5 43
M  V30 47 1 5 44
M  V30 48 1 5 45
M  V30 49 1 6 46
M  V30 50 1 6 47
M  V30 51 1 7 48
M  V30 52 1 7 49
M  V30 53 1 9 50
M  V30 54 1 9 51
M  V30 55 1 9 52
M  V30 56 1 11 53
M  V30 57 1 12 54
M  V30 58 1 14 55
M  V30 59 1 16 56
M  V30 60 1 18 57
M  V30 61 1 19 58
M  V30 62 1 20 59
M  V30 63 1 20 60
M  V30 64 1 21 61
M  V30 65 1 21 62
M  V30 66 1 24 63
M  V30 67 1 30 64
M  V30 68 1 32 65
M  V30 69 1 34 66
M  V30 70 1 34 67
M  V30 71 1 34 68
M  V30 END BOND
M  V30 END CTAB
M  END
>  <Dataset>  (519) 
ChEMBL_Kinases

>  <Ligand_Instance>  (519) 
nan

>  <PDB_ID>  (519) 
nan

>  <Standardized_SMILES>  (519) 
CCN(CC)CCN(C)c1ccc(Nc2cc(NC3CC3)n3ncc(C#N)c3n2)cc1NC(C)=O

>  <Name>  (519) 
nan

>  <Pocket>  (519) 
nan

>  <ATP_Site>  (519) 
nan

>  <Peripheral>  (519) 
nan

>  <Num_H_Atoms_ProtBoundConf>  (519) 
nan

>  <Num_Resolved_Atoms>  (519) 
nan

>  <Num_Not_Resolved_Atoms>  (519) 
nan

$$$$
CHEMBL3809604
     RDKit          3D

  0  0  0  0  0  0  0  0  0  0999 V3000
M  V30 BEGIN CTAB
M  V30 COUNTS 69 73 0 0 0
M  V30 BEGIN ATOM
M  V30 1 C -3.620737 0.572327 -1.386964 0
M  V30 2 C -3.320968 -0.826527 -1.782205 0
M  V30 3 C -2.129975 -1.225732 -2.269603 0
M  V30 4 C -1.157292 -0.147525 -2.382598 0
M  V30 5 O -1.304256 1.063550 -2.076500 0
M  V30 6 N 0.170648 -0.271864 -2.876156 0
M  V30 7 C 0.895546 0.954055 -2.867764 0
M  V30 8 C 0.705674 1.626338 -4.067426 0
M  V30 9 C 1.315424 2.862680 -4.308411 0
M  V30 10 C 2.110716 3.395289 -3.320885 0
M  V30 11 N 2.840389 4.528203 -3.191759 0
M  V30 12 N 3.444671 4.564177 -1.997084 0
M  V30 13 C 3.127406 3.440719 -1.292371 0
M  V30 14 C 2.297989 2.725599 -2.129726 0
M  V30 15 C 1.697270 1.506962 -1.891435 0
M  V30 16 C -1.781085 -2.635122 -2.612083 0
M  V30 17 C -0.813289 -3.226255 -1.637711 0
M  V30 18 C 0.508868 -3.608529 -1.664006 0
M  V30 19 C 1.112551 -4.126044 -0.543986 0
M  V30 20 C 0.455759 -4.295364 0.653546 0
M  V30 21 F 1.184545 -4.818628 1.670575 0
M  V30 22 C -0.876970 -3.921680 0.715628 0
M  V30 23 C -1.532125 -4.128895 2.022668 0
M  V30 24 C -1.164104 -3.104142 3.027720 0
M  V30 25 O -1.903942 -3.264284 4.052293 0
M  V30 26 N -0.196478 -2.065062 3.016471 0
M  V30 27 C -0.307185 -1.373510 4.309615 0
M  V30 28 C 0.662980 -0.265243 4.378946 0
M  V30 29 C 0.357796 0.882562 3.670197 0
M  V30 30 C -0.854509 1.106057 2.855946 0
M  V30 31 F -1.986018 0.999659 3.655125 0
M  V30 32 F -0.951468 0.271739 1.761713 0
M  V30 33 F -0.839810 2.399440 2.365667 0
M  V30 34 C 1.316322 1.896338 3.768334 0
M  V30 35 C 2.494826 1.859854 4.480083 0
M  V30 36 C 2.743281 0.691036 5.165468 0
M  V30 37 C 1.833451 -0.373156 5.119213 0
M  V30 38 C 2.127219 -1.626750 5.878144 0
M  V30 39 F 2.188482 -2.717781 5.049595 0
M  V30 40 F 1.223518 -1.753243 6.912000 0
M  V30 41 F 3.376746 -1.470841 6.497253 0
M  V30 42 C -1.493763 -3.394262 -0.423536 0
M  V30 43 N -3.004986 -3.431573 -2.616976 0
M  V30 44 C -4.289474 -3.126302 -2.113001 0
M  V30 45 O -5.182506 -3.992578 -2.063984 0
M  V30 46 N -4.408695 -1.774806 -1.696740 0
M  V30 47 H -4.664842 0.618542 -0.997449 0
M  V30 48 H -3.594234 1.267109 -2.255564 0
M  V30 49 H -2.992690 0.890966 -0.530285 0
M  V30 50 H 0.509283 -1.189260 -3.200180 0
M  V30 51 H 0.102636 1.310852 -4.923115 0
M  V30 52 H 1.201826 3.428230 -5.223418 0
M  V30 53 H 2.927002 5.277000 -3.917224 0
M  V30 54 H 3.452247 3.166869 -0.296233 0
M  V30 55 H 1.762524 0.891235 -1.017433 0
M  V30 56 H -1.327730 -2.677470 -3.606321 0
M  V30 57 H 0.901608 -3.433597 -2.653442 0
M  V30 58 H 2.157571 -4.378482 -0.728563 0
M  V30 59 H -2.644104 -4.121421 1.844034 0
M  V30 60 H -1.343543 -5.139065 2.459395 0
M  V30 61 H 0.325068 -2.066995 2.116182 0
M  V30 62 H -1.339830 -1.033787 4.464119 0
M  V30 63 H -0.094089 -2.128203 5.095681 0
M  V30 64 H 1.110129 2.827199 3.217754 0
M  V30 65 H 3.150588 2.718030 4.471467 0
M  V30 66 H 3.651404 0.599594 5.743413 0
M  V30 67 H -2.530102 -3.164642 -0.175471 0
M  V30 68 H -2.850349 -4.376821 -3.082456 0
M  V30 69 H -5.333980 -1.472547 -1.313856 0
M  V30 END ATOM
M  V30 BEGIN BOND
M  V30 1 1 1 2
M  V30 2 2 2 3
M  V30 3 1 3 4
M  V30 4 2 4 5
M  V30 5 1 4 6
M  V30 6 1 6 7
M  V30 7 2 7 8
M  V30 8 1 8 9
M  V30 9 2 9 10
M  V30 10 1 10 11
M  V30 11 1 11 12
M  V30 12 2 12 13
M  V30 13 1 13 14
M  V30 14 2 14 15
M  V30 15 1 3 16
M  V30 16 1 16 17
M  V30 17 2 17 18
M  V30 18 1 18 19
M  V30 19 2 19 20
M  V30 20 1 20 21
M  V30 21 1 20 22
M  V30 22 1 22 23
M  V30 23 1 23 24
M  V30 24 2 24 25
M  V30 25 1 24 26
M  V30 26 1 26 27
M  V30 27 1 27 28
M  V30 28 2 28 29
M  V30 29 1 29 30
M  V30 30 1 30 31
M  V30 31 1 30 32
M  V30 32 1 30 33
M  V30 33 1 29 34
M  V30 34 2 34 35
M  V30 35 1 35 36
M  V30 36 2 36 37
M  V30 37 1 37 38
M  V30 38 1 38 39
M  V30 39 1 38 40
M  V30 40 1 38 41
M  V30 41 2 22 42
M  V30 42 1 16 43
M  V30 43 1 43 44
M  V30 44 2 44 45
M  V30 45 1 44 46
M  V30 46 1 46 2
M  V30 47 1 15 7
M  V30 48 1 42 17
M  V30 49 1 14 10
M  V30 50 1 37 28
M  V30 51 1 1 47
M  V30 52 1 1 48
M  V30 53 1 1 49
M  V30 54 1 6 50
M  V30 55 1 8 51
M  V30 56 1 9 52
M  V30 57 1 11 53
M  V30 58 1 13 54
M  V30 59 1 15 55
M  V30 60 1 16 56
M  V30 61 1 18 57
M  V30 62 1 19 58
M  V30 63 1 23 59
M  V30 64 1 23 60
M  V30 65 1 26 61
M  V30 66 1 27 62
M  V30 67 1 27 63
M  V30 68 1 34 64
M  V30 69 1 35 65
M  V30 70 1 36 66
M  V30 71 1 42 67
M  V30 72 1 43 68
M  V30 73 1 46 69
M  V30 END BOND
M  V30 END CTAB
M  END
>  <Dataset>  (520) 
ChEMBL_Kinases

>  <Ligand_Instance>  (520) 
nan

>  <PDB_ID>  (520) 
nan

>  <Standardized_SMILES>  (520) 
CC1=C(C(=O)Nc2ccc3[nH]ncc3c2)C(c2ccc(F)c(CC(=O)NCc3c(C(F)(F)F)cccc3C(F)(F)F)c2)NC(=O)N1

>  <Name>  (520) 
nan

>  <Pocket>  (520) 
nan

>  <ATP_Site>  (520) 
nan

>  <Peripheral>  (520) 
nan

>  <Num_H_Atoms_ProtBoundConf>  (520) 
nan

>  <Num_Resolved_Atoms>  (520) 
nan

>  <Num_Not_Resolved_Atoms>  (520) 
nan

$$$$
CHEMBL496752
     RDKit          3D

  0  0  0  0  0  0  0  0  0  0999 V3000
M  V30 BEGIN CTAB
M  V30 COUNTS 44 48 0 0 0
M  V30 BEGIN ATOM
M  V30 1 C -0.038980 -6.817320 5.338283 0
M  V30 2 O -0.516159 -5.528506 5.009647 0
M  V30 3 C 0.005699 -4.716551 4.015645 0
M  V30 4 C -0.669854 -3.497345 3.920090 0
M  V30 5 C -0.322113 -2.529608 2.998341 0
M  V30 6 C 0.727523 -2.756353 2.131873 0
M  V30 7 C 1.178519 -1.800711 1.124219 0
M  V30 8 C 1.039364 -0.457392 1.433572 0
M  V30 9 C 1.453110 0.487462 0.513520 0
M  V30 10 C 2.006719 0.135002 -0.717980 0
M  V30 11 O 2.444938 1.012261 -1.694343 0
M  V30 12 C 2.342010 2.391383 -1.643199 0
M  V30 13 C 3.451837 3.202344 -1.661930 0
M  V30 14 N 3.505628 4.532402 -1.620067 0
M  V30 15 C 2.358028 5.211562 -1.550391 0
M  V30 16 C 1.210338 4.471380 -1.528063 0
M  V30 17 S -0.569153 4.996109 -1.442347 0
M  V30 18 C -1.278380 3.234488 -1.473686 0
M  V30 19 C -2.669482 2.972088 -1.428594 0
M  V30 20 N -3.525413 3.459042 -2.351845 0
M  V30 21 N -4.753665 3.083194 -2.100771 0
M  V30 22 N -4.709333 2.337245 -0.995874 0
M  V30 23 N -3.444254 2.261108 -0.575110 0
M  V30 24 C -0.129389 2.475009 -1.542836 0
M  V30 25 C 1.120949 3.009872 -1.572920 0
M  V30 26 C 2.142385 -1.217204 -1.019907 0
M  V30 27 C 1.723391 -2.170659 -0.088213 0
M  V30 28 C 1.406896 -3.966521 2.217951 0
M  V30 29 C 1.053271 -4.929352 3.142261 0
M  V30 30 H 0.029209 -6.969622 6.439616 0
M  V30 31 H -0.610717 -7.619784 4.837337 0
M  V30 32 H 1.006505 -6.888923 4.976487 0
M  V30 33 H -1.517010 -3.205041 4.552906 0
M  V30 34 H -0.841242 -1.582667 2.917889 0
M  V30 35 H 0.619164 -0.107206 2.369002 0
M  V30 36 H 1.361703 1.540101 0.727979 0
M  V30 37 H 4.409589 2.662375 -1.718698 0
M  V30 38 H 2.166687 6.274314 -1.507315 0
M  V30 39 H -5.580836 1.925064 -0.604907 0
M  V30 40 H -0.335361 1.421432 -1.570048 0
M  V30 41 H 2.553268 -1.615743 -1.933464 0
M  V30 42 H 1.826621 -3.242164 -0.318202 0
M  V30 43 H 2.245331 -4.253838 1.590307 0
M  V30 44 H 1.520543 -5.893549 3.281374 0
M  V30 END ATOM
M  V30 BEGIN BOND
M  V30 1 1 1 2
M  V30 2 1 2 3
M  V30 3 2 3 4
M  V30 4 1 4 5
M  V30 5 2 5 6
M  V30 6 1 6 7
M  V30 7 2 7 8
M  V30 8 1 8 9
M  V30 9 2 9 10
M  V30 10 1 10 11
M  V30 11 1 11 12
M  V30 12 2 12 13
M  V30 13 1 13 14
M  V30 14 2 14 15
M  V30 15 1 15 16
M  V30 16 1 16 17
M  V30 17 1 17 18
M  V30 18 1 18 19
M  V30 19 1 19 20
M  V30 20 2 20 21
M  V30 21 1 21 22
M  V30 22 1 22 23
M  V30 23 2 18 24
M  V30 24 1 24 25
M  V30 25 1 10 26
M  V30 26 2 26 27
M  V30 27 1 6 28
M  V30 28 2 28 29
M  V30 29 1 29 3
M  V30 30 1 27 7
M  V30 31 1 25 12
M  V30 32 2 25 16
M  V30 33 2 23 19
M  V30 34 1 1 30
M  V30 35 1 1 31
M  V30 36 1 1 32
M  V30 37 1 4 33
M  V30 38 1 5 34
M  V30 39 1 8 35
M  V30 40 1 9 36
M  V30 41 1 13 37
M  V30 42 1 15 38
M  V30 43 1 22 39
M  V30 44 1 24 40
M  V30 45 1 26 41
M  V30 46 1 27 42
M  V30 47 1 28 43
M  V30 48 1 29 44
M  V30 END BOND
M  V30 END CTAB
M  END
>  <Dataset>  (521) 
ChEMBL_Kinases

>  <Ligand_Instance>  (521) 
nan

>  <PDB_ID>  (521) 
nan

>  <Standardized_SMILES>  (521) 
COc1ccc(-c2ccc(Oc3cncc4sc(-c5nn[nH]n5)cc34)cc2)cc1

>  <Name>  (521) 
nan

>  <Pocket>  (521) 
nan

>  <ATP_Site>  (521) 
nan

>  <Peripheral>  (521) 
nan

>  <Num_H_Atoms_ProtBoundConf>  (521) 
nan

>  <Num_Resolved_Atoms>  (521) 
nan

>  <Num_Not_Resolved_Atoms>  (521) 
nan

$$$$
CHEMBL496757
     RDKit          3D

  0  0  0  0  0  0  0  0  0  0999 V3000
M  V30 BEGIN CTAB
M  V30 COUNTS 44 47 0 0 0
M  V30 BEGIN ATOM
M  V30 1 N 0.223217 -6.186822 3.675489 0
M  V30 2 C 0.575691 -5.439777 2.881450 0
M  V30 3 C 1.008053 -4.488953 1.901758 0
M  V30 4 C 1.213390 -4.772530 0.564589 0
M  V30 5 C 1.629970 -3.793426 -0.304376 0
M  V30 6 C 1.860396 -2.484693 0.125802 0
M  V30 7 C 2.298405 -1.565117 -0.919338 0
M  V30 8 C 3.272040 -1.892131 -1.847802 0
M  V30 9 N 3.405067 -0.809285 -2.638589 0
M  V30 10 C 2.535868 0.136817 -2.194948 0
M  V30 11 C 2.335875 1.400593 -2.708877 0
M  V30 12 C 1.392433 2.172455 -2.077308 0
M  V30 13 C 0.667660 1.715642 -0.974047 0
M  V30 14 N -0.319691 2.497214 -0.300619 0
M  V30 15 C -1.061577 2.008536 0.844253 0 CFG=1
M  V30 16 C -1.844156 0.779250 0.510580 0
M  V30 17 C -1.809011 -0.218701 1.623547 0
M  V30 18 C -2.019945 0.414562 2.976151 0
M  V30 19 C -0.969268 1.440823 3.243206 0 CFG=2
M  V30 20 O -1.576303 2.635831 3.686643 0
M  V30 21 C -0.154323 1.681596 2.002544 0
M  V30 22 N 0.940747 0.457058 -0.547235 0
M  V30 23 N 1.840007 -0.310036 -1.130720 0
M  V30 24 C 1.659675 -2.192264 1.451919 0
M  V30 25 C 1.241476 -3.188169 2.307902 0
M  V30 26 H 1.018800 -5.802147 0.290295 0
M  V30 27 H 1.753416 -4.154412 -1.338425 0
M  V30 28 H 3.824472 -2.821451 -1.936597 0
M  V30 29 H 2.856379 1.810576 -3.548711 0
M  V30 30 H 1.175728 3.164005 -2.411777 0
M  V30 31 H -0.467661 3.467123 -0.706141 0
M  V30 32 H -1.708690 2.853599 1.186043 0
M  V30 33 H -1.422430 0.282589 -0.389961 0
M  V30 34 H -2.887100 1.039991 0.221465 0
M  V30 35 H -2.588769 -0.991685 1.411263 0
M  V30 36 H -0.845070 -0.742256 1.645134 0
M  V30 37 H -1.912866 -0.375796 3.774538 0
M  V30 38 H -3.054437 0.801416 3.085600 0
M  V30 39 H -0.295133 1.155674 4.101755 0
M  V30 40 H -2.362204 2.355517 4.255031 0
M  V30 41 H 0.467762 0.784991 1.817678 0
M  V30 42 H 0.545497 2.551957 2.188763 0
M  V30 43 H 1.847263 -1.173329 1.746118 0
M  V30 44 H 1.107230 -2.875657 3.333539 0
M  V30 END ATOM
M  V30 BEGIN BOND
M  V30 1 3 1 2
M  V30 2 1 2 3
M  V30 3 2 3 4
M  V30 4 1 4 5
M  V30 5 2 5 6
M  V30 6 1 6 7
M  V30 7 2 7 8
M  V30 8 1 8 9
M  V30 9 2 9 10
M  V30 10 1 10 11
M  V30 11 2 11 12
M  V30 12 1 12 13
M  V30 13 1 13 14
M  V30 14 1 14 15
M  V30 15 1 15 16
M  V30 16 1 16 17
M  V30 17 1 17 18
M  V30 18 1 18 19
M  V30 19 1 19 20
M  V30 20 1 19 21
M  V30 21 2 13 22
M  V30 22 1 22 23
M  V30 23 1 6 24
M  V30 24 2 24 25
M  V30 25 1 25 3
M  V30 26 1 23 7
M  V30 27 1 23 10
M  V30 28 1 21 15
M  V30 29 1 4 26
M  V30 30 1 5 27
M  V30 31 1 8 28
M  V30 32 1 11 29
M  V30 33 1 12 30
M  V30 34 1 14 31
M  V30 35 1 15 32 CFG=1
M  V30 36 1 16 33
M  V30 37 1 16 34
M  V30 38 1 17 35
M  V30 39 1 17 36
M  V30 40 1 18 37
M  V30 41 1 18 38
M  V30 42 1 19 39 CFG=1
M  V30 43 1 20 40
M  V30 44 1 21 41
M  V30 45 1 21 42
M  V30 46 1 24 43
M  V30 47 1 25 44
M  V30 END BOND
M  V30 END CTAB
M  END
>  <Dataset>  (522) 
ChEMBL_Kinases

>  <Ligand_Instance>  (522) 
nan

>  <PDB_ID>  (522) 
nan

>  <Standardized_SMILES>  (522) 
N#Cc1ccc(-c2cnc3ccc(N[C@H]4CCC[C@H](O)C4)nn23)cc1

>  <Name>  (522) 
nan

>  <Pocket>  (522) 
nan

>  <ATP_Site>  (522) 
nan

>  <Peripheral>  (522) 
nan

>  <Num_H_Atoms_ProtBoundConf>  (522) 
nan

>  <Num_Resolved_Atoms>  (522) 
nan

>  <Num_Not_Resolved_Atoms>  (522) 
nan

$$$$
CHEMBL3809531
     RDKit          3D

  0  0  0  0  0  0  0  0  0  0999 V3000
M  V30 BEGIN CTAB
M  V30 COUNTS 41 44 0 0 0
M  V30 BEGIN ATOM
M  V30 1 C 0.490656 -5.369204 3.210467 0
M  V30 2 O 1.576880 -5.481790 2.308995 0
M  V30 3 C 1.804943 -4.411143 1.454157 0
M  V30 4 C 0.990313 -3.308488 1.511688 0
M  V30 5 C 1.258165 -2.273589 0.642984 0
M  V30 6 C 2.258664 -2.225158 -0.280235 0
M  V30 7 N 2.537341 -1.156895 -1.168404 0
M  V30 8 C 1.920904 0.118462 -1.224183 0
M  V30 9 N 2.322872 0.961623 -2.207017 0
M  V30 10 C 1.834282 2.194789 -2.380467 0
M  V30 11 C 0.862580 2.653979 -1.517319 0
M  V30 12 C 0.361058 3.925501 -1.701633 0
M  V30 13 C -0.614245 4.386752 -0.837412 0
M  V30 14 N -1.033045 3.566998 0.152326 0
M  V30 15 C -0.514116 2.327150 0.296969 0
M  V30 16 C -1.046789 1.546356 1.405170 0
M  V30 17 C -0.215065 0.854483 2.259866 0
M  V30 18 N -0.986434 0.228717 3.180031 0
M  V30 19 N -2.256045 0.482415 2.959952 0
M  V30 20 C -3.406203 0.004760 3.716096 0
M  V30 21 C -2.317850 1.286975 1.878813 0
M  V30 22 C 0.459275 1.793193 -0.521318 0
M  V30 23 N 0.973726 0.582966 -0.392724 0
M  V30 24 C 3.039973 -3.355320 -0.291451 0
M  V30 25 C 2.836718 -4.428249 0.542550 0
M  V30 26 H 0.360528 -6.285793 3.820482 0
M  V30 27 H -0.428317 -5.192867 2.607211 0
M  V30 28 H 0.622353 -4.456337 3.848448 0
M  V30 29 H 0.174042 -3.272041 2.219241 0
M  V30 30 H 0.583827 -1.435007 0.727366 0
M  V30 31 H 3.308148 -1.355480 -1.874996 0
M  V30 32 H 2.217746 2.796218 -3.195237 0
M  V30 33 H 0.713087 4.572116 -2.508152 0
M  V30 34 H -1.061929 5.367349 -0.907879 0
M  V30 35 H 0.880676 0.801354 2.226453 0
M  V30 36 H -3.228299 -1.048529 4.076431 0
M  V30 37 H -3.628578 0.611267 4.601554 0
M  V30 38 H -4.277274 -0.059733 3.018896 0
M  V30 39 H -3.186000 1.716548 1.382254 0
M  V30 40 H 3.883004 -3.457881 -0.983020 0
M  V30 41 H 3.481261 -5.302516 0.498130 0
M  V30 END ATOM
M  V30 BEGIN BOND
M  V30 1 1 1 2
M  V30 2 1 2 3
M  V30 3 2 3 4
M  V30 4 1 4 5
M  V30 5 2 5 6
M  V30 6 1 6 7
M  V30 7 1 7 8
M  V30 8 2 8 9
M  V30 9 1 9 10
M  V30 10 2 10 11
M  V30 11 1 11 12
M  V30 12 2 12 13
M  V30 13 1 13 14
M  V30 14 2 14 15
M  V30 15 1 15 16
M  V30 16 1 16 17
M  V30 17 2 17 18
M  V30 18 1 18 19
M  V30 19 1 19 20
M  V30 20 1 19 21
M  V30 21 1 15 22
M  V30 22 2 22 23
M  V30 23 1 6 24
M  V30 24 2 24 25
M  V30 25 1 25 3
M  V30 26 1 23 8
M  V30 27 1 22 11
M  V30 28 2 21 16
M  V30 29 1 1 26
M  V30 30 1 1 27
M  V30 31 1 1 28
M  V30 32 1 4 29
M  V30 33 1 5 30
M  V30 34 1 7 31
M  V30 35 1 10 32
M  V30 36 1 12 33
M  V30 37 1 13 34
M  V30 38 1 17 35
M  V30 39 1 20 36
M  V30 40 1 20 37
M  V30 41 1 20 38
M  V30 42 1 21 39
M  V30 43 1 24 40
M  V30 44 1 25 41
M  V30 END BOND
M  V30 END CTAB
M  END
>  <Dataset>  (523) 
ChEMBL_Kinases

>  <Ligand_Instance>  (523) 
nan

>  <PDB_ID>  (523) 
nan

>  <Standardized_SMILES>  (523) 
COc1ccc(Nc2ncc3ccnc(-c4cnn(C)c4)c3n2)cc1

>  <Name>  (523) 
nan

>  <Pocket>  (523) 
nan

>  <ATP_Site>  (523) 
nan

>  <Peripheral>  (523) 
nan

>  <Num_H_Atoms_ProtBoundConf>  (523) 
nan

>  <Num_Resolved_Atoms>  (523) 
nan

>  <Num_Not_Resolved_Atoms>  (523) 
nan

$$$$
CHEMBL496772
     RDKit          3D

  0  0  0  0  0  0  0  0  0  0999 V3000
M  V30 BEGIN CTAB
M  V30 COUNTS 39 41 0 0 0
M  V30 BEGIN ATOM
M  V30 1 C -3.489511 -3.015292 2.341661 0
M  V30 2 C -2.161553 -3.657600 2.496343 0
M  V30 3 C -1.571617 -3.134958 3.806566 0
M  V30 4 C -1.186329 -3.499605 1.389325 0
M  V30 5 C -0.835421 -2.090771 1.115791 0
M  V30 6 C 0.197528 -1.964149 -0.024035 0
M  V30 7 C 0.557220 -0.501161 -0.053799 0
M  V30 8 N 1.759260 0.033602 -0.377068 0
M  V30 9 C 1.744610 1.365373 -0.310819 0
M  V30 10 C 2.827122 2.306107 -0.580629 0
M  V30 11 C 2.676789 3.663864 -0.473876 0
M  V30 12 C 3.766873 4.491751 -0.751129 0
M  V30 13 N 4.962642 3.989519 -1.120914 0
M  V30 14 C 5.157009 2.660917 -1.239066 0
M  V30 15 C 4.072338 1.849364 -0.962621 0
M  V30 16 C 0.469361 1.727276 0.075493 0
M  V30 17 C -0.263536 0.568996 0.234016 0
M  V30 18 C -1.637885 0.161421 0.618426 0
M  V30 19 O -2.428535 1.106819 0.889514 0
M  V30 20 N -1.940301 -1.256351 0.645877 0
M  V30 21 H -4.171745 -3.485907 3.122179 0
M  V30 22 H -3.473772 -1.933132 2.556302 0
M  V30 23 H -4.021794 -3.212435 1.393902 0
M  V30 24 H -2.326730 -4.753861 2.643075 0
M  V30 25 H -0.476835 -2.984523 3.672689 0
M  V30 26 H -1.765591 -3.785998 4.661288 0
M  V30 27 H -1.978689 -2.124716 4.010054 0
M  V30 28 H -1.457805 -4.069194 0.472735 0
M  V30 29 H -0.233720 -4.000975 1.736636 0
M  V30 30 H -0.335455 -1.681914 2.011436 0
M  V30 31 H -0.327797 -2.239321 -0.942006 0
M  V30 32 H 1.085330 -2.577337 0.197255 0
M  V30 33 H 2.621761 -0.485857 -0.651076 0
M  V30 34 H 1.721419 4.044527 -0.179394 0
M  V30 35 H 3.555736 5.554644 -0.640487 0
M  V30 36 H 6.111252 2.242113 -1.535004 0
M  V30 37 H 4.264815 0.779960 -1.068156 0
M  V30 38 H 0.026564 2.699203 0.248962 0
M  V30 39 H -2.906043 -1.431204 0.316667 0
M  V30 END ATOM
M  V30 BEGIN BOND
M  V30 1 1 1 2
M  V30 2 1 2 3
M  V30 3 1 2 4
M  V30 4 1 4 5
M  V30 5 1 5 6
M  V30 6 1 6 7
M  V30 7 1 7 8
M  V30 8 1 8 9
M  V30 9 1 9 10
M  V30 10 2 10 11
M  V30 11 1 11 12
M  V30 12 2 12 13
M  V30 13 1 13 14
M  V30 14 2 14 15
M  V30 15 2 9 16
M  V30 16 1 16 17
M  V30 17 1 17 18
M  V30 18 2 18 19
M  V30 19 1 18 20
M  V30 20 1 20 5
M  V30 21 2 17 7
M  V30 22 1 15 10
M  V30 23 1 1 21
M  V30 24 1 1 22
M  V30 25 1 1 23
M  V30 26 1 2 24
M  V30 27 1 3 25
M  V30 28 1 3 26
M  V30 29 1 3 27
M  V30 30 1 4 28
M  V30 31 1 4 29
M  V30 32 1 5 30
M  V30 33 1 6 31
M  V30 34 1 6 32
M  V30 35 1 8 33
M  V30 36 1 11 34
M  V30 37 1 12 35
M  V30 38 1 14 36
M  V30 39 1 15 37
M  V30 40 1 16 38
M  V30 41 1 20 39
M  V30 END BOND
M  V30 END CTAB
M  END
>  <Dataset>  (524) 
ChEMBL_Kinases

>  <Ligand_Instance>  (524) 
nan

>  <PDB_ID>  (524) 
nan

>  <Standardized_SMILES>  (524) 
CC(C)CC1Cc2[nH]c(-c3ccncc3)cc2C(=O)N1

>  <Name>  (524) 
nan

>  <Pocket>  (524) 
nan

>  <ATP_Site>  (524) 
nan

>  <Peripheral>  (524) 
nan

>  <Num_H_Atoms_ProtBoundConf>  (524) 
nan

>  <Num_Resolved_Atoms>  (524) 
nan

>  <Num_Not_Resolved_Atoms>  (524) 
nan

$$$$
CHEMBL3809788
     RDKit          3D

  0  0  0  0  0  0  0  0  0  0999 V3000
M  V30 BEGIN CTAB
M  V30 COUNTS 66 70 0 0 0
M  V30 BEGIN ATOM
M  V30 1 C 3.062614 -4.967198 3.268073 0
M  V30 2 C 2.489417 -3.684778 3.737470 0
M  V30 3 C 2.360242 -2.577882 2.989852 0
M  V30 4 C 2.842994 -2.707277 1.633271 0
M  V30 5 O 3.351932 -3.757977 1.121757 0
M  V30 6 N 2.869900 -1.752945 0.597143 0
M  V30 7 C 3.405752 -2.154498 -0.661236 0
M  V30 8 C 2.702776 -2.717846 -1.719634 0
M  V30 9 C 3.350953 -3.062624 -2.889470 0
M  V30 10 C 4.703458 -2.832058 -2.972135 0
M  V30 11 N 5.475532 -3.111168 -4.036846 0
M  V30 12 N 6.724431 -2.744234 -3.728733 0
M  V30 13 C 6.725070 -2.235716 -2.467841 0
M  V30 14 C 5.450944 -2.276693 -1.955482 0
M  V30 15 C 4.761641 -1.945524 -0.799338 0
M  V30 16 C 1.723132 -1.328640 3.479514 0
M  V30 17 C 0.382096 -1.096068 2.832872 0
M  V30 18 C -0.493879 -2.075901 3.315692 0
M  V30 19 C -1.821043 -2.049530 2.867614 0
M  V30 20 C -2.210451 -1.074953 1.981263 0
M  V30 21 F -3.460461 -0.989532 1.507230 0
M  V30 22 C -1.351773 -0.112332 1.506617 0
M  V30 23 C -1.569929 0.999346 0.592477 0
M  V30 24 O -0.689497 1.790454 0.137220 0
M  V30 25 N -2.806990 1.414990 0.034536 0
M  V30 26 C -2.876745 2.547350 -0.868912 0
M  V30 27 C -4.295491 2.711982 -1.275032 0
M  V30 28 C -4.827841 1.880663 -2.236916 0
M  V30 29 C -4.085259 0.812326 -2.945932 0
M  V30 30 F -3.574819 -0.164396 -2.135853 0
M  V30 31 F -3.080465 1.360564 -3.755085 0
M  V30 32 F -4.937892 0.179395 -3.825460 0
M  V30 33 C -6.177168 2.114719 -2.534409 0
M  V30 34 C -6.980248 3.071749 -1.964088 0
M  V30 35 C -6.373803 3.858522 -1.015453 0
M  V30 36 C -5.049459 3.703411 -0.655124 0
M  V30 37 C -4.396019 4.554867 0.372118 0
M  V30 38 F -3.912519 3.810049 1.446388 0
M  V30 39 F -5.413301 5.335921 0.940372 0
M  V30 40 F -3.480738 5.432772 -0.119200 0
M  V30 41 C -0.049368 -0.140840 1.948428 0
M  V30 42 N 1.536685 -1.375809 4.926734 0
M  V30 43 C 1.631602 -2.495329 5.775421 0
M  V30 44 O 1.288773 -2.380272 6.976204 0
M  V30 45 N 2.124766 -3.657130 5.131399 0
M  V30 46 H 4.131380 -4.877752 2.968287 0
M  V30 47 H 2.416399 -5.381563 2.446138 0
M  V30 48 H 2.994807 -5.746680 4.071849 0
M  V30 49 H 2.493103 -0.797446 0.835644 0
M  V30 50 H 1.640656 -2.857308 -1.550953 0
M  V30 51 H 2.765178 -3.504914 -3.701870 0
M  V30 52 H 5.364407 -3.516677 -4.990434 0
M  V30 53 H 7.559133 -1.834369 -1.875144 0
M  V30 54 H 5.373749 -1.511113 -0.017783 0
M  V30 55 H 2.351755 -0.467276 3.246134 0
M  V30 56 H -0.320097 -2.888625 4.005685 0
M  V30 57 H -2.613997 -2.734425 3.149213 0
M  V30 58 H -3.669914 0.866478 0.315837 0
M  V30 59 H -2.251308 2.233928 -1.754872 0
M  V30 60 H -2.397466 3.449064 -0.492366 0
M  V30 61 H -6.649467 1.477981 -3.293980 0
M  V30 62 H -8.002711 3.173396 -2.259643 0
M  V30 63 H -6.943370 4.652939 -0.505160 0
M  V30 64 H 0.749763 0.535610 1.686879 0
M  V30 65 H 1.305105 -0.441823 5.336661 0
M  V30 66 H 2.210124 -4.513656 5.739629 0
M  V30 END ATOM
M  V30 BEGIN BOND
M  V30 1 1 1 2
M  V30 2 2 2 3
M  V30 3 1 3 4
M  V30 4 2 4 5
M  V30 5 1 4 6
M  V30 6 1 6 7
M  V30 7 2 7 8
M  V30 8 1 8 9
M  V30 9 2 9 10
M  V30 10 1 10 11
M  V30 11 1 11 12
M  V30 12 2 12 13
M  V30 13 1 13 14
M  V30 14 2 14 15
M  V30 15 1 3 16
M  V30 16 1 16 17
M  V30 17 2 17 18
M  V30 18 1 18 19
M  V30 19 2 19 20
M  V30 20 1 20 21
M  V30 21 1 20 22
M  V30 22 1 22 23
M  V30 23 2 23 24
M  V30 24 1 23 25
M  V30 25 1 25 26
M  V30 26 1 26 27
M  V30 27 2 27 28
M  V30 28 1 28 29
M  V30 29 1 29 30
M  V30 30 1 29 31
M  V30 31 1 29 32
M  V30 32 1 28 33
M  V30 33 2 33 34
M  V30 34 1 34 35
M  V30 35 2 35 36
M  V30 36 1 36 37
M  V30 37 1 37 38
M  V30 38 1 37 39
M  V30 39 1 37 40
M  V30 40 2 22 41
M  V30 41 1 16 42
M  V30 42 1 42 43
M  V30 43 2 43 44
M  V30 44 1 43 45
M  V30 45 1 45 2
M  V30 46 1 15 7
M  V30 47 1 41 17
M  V30 48 1 14 10
M  V30 49 1 36 27
M  V30 50 1 1 46
M  V30 51 1 1 47
M  V30 52 1 1 48
M  V30 53 1 6 49
M  V30 54 1 8 50
M  V30 55 1 9 51
M  V30 56 1 11 52
M  V30 57 1 13 53
M  V30 58 1 15 54
M  V30 59 1 16 55
M  V30 60 1 18 56
M  V30 61 1 19 57
M  V30 62 1 25 58
M  V30 63 1 26 59
M  V30 64 1 26 60
M  V30 65 1 33 61
M  V30 66 1 34 62
M  V30 67 1 35 63
M  V30 68 1 41 64
M  V30 69 1 42 65
M  V30 70 1 45 66
M  V30 END BOND
M  V30 END CTAB
M  END
>  <Dataset>  (525) 
ChEMBL_Kinases

>  <Ligand_Instance>  (525) 
nan

>  <PDB_ID>  (525) 
nan

>  <Standardized_SMILES>  (525) 
CC1=C(C(=O)Nc2ccc3[nH]ncc3c2)C(c2ccc(F)c(C(=O)NCc3c(C(F)(F)F)cccc3C(F)(F)F)c2)NC(=O)N1

>  <Name>  (525) 
nan

>  <Pocket>  (525) 
nan

>  <ATP_Site>  (525) 
nan

>  <Peripheral>  (525) 
nan

>  <Num_H_Atoms_ProtBoundConf>  (525) 
nan

>  <Num_Resolved_Atoms>  (525) 
nan

>  <Num_Not_Resolved_Atoms>  (525) 
nan

$$$$
CHEMBL381201
     RDKit          3D

  0  0  0  0  0  0  0  0  0  0999 V3000
M  V30 BEGIN CTAB
M  V30 COUNTS 66 70 0 0 0
M  V30 BEGIN ATOM
M  V30 1 C 4.482625 -3.897478 2.592104 0
M  V30 2 C 3.115469 -3.328865 2.302702 0
M  V30 3 C 2.299447 -4.256003 1.419284 0
M  V30 4 C 2.380295 -3.215999 3.622337 0
M  V30 5 N 3.183913 -2.071993 1.675135 0
M  V30 6 C 3.844836 -1.984601 0.430287 0
M  V30 7 C 3.096106 -1.041737 -0.487758 0
M  V30 8 C 2.136225 -0.246138 0.357988 0
M  V30 9 O 1.428631 0.722707 -0.309331 0
M  V30 10 C 0.051890 0.680601 -0.356916 0
M  V30 11 C -0.358055 1.797482 -1.104429 0
M  V30 12 C -1.713937 2.058438 -1.347692 0
M  V30 13 C -2.233223 3.187775 -2.109100 0
M  V30 14 C -2.533274 4.377395 -1.452883 0
M  V30 15 C -3.024833 5.427139 -2.212898 0
M  V30 16 C -3.192833 5.247073 -3.572553 0
M  V30 17 F -3.669171 6.251109 -4.335861 0
M  V30 18 C -2.885392 4.044747 -4.211165 0
M  V30 19 C -2.392416 2.986461 -3.460098 0
M  V30 20 Cl -1.989575 1.454016 -4.208846 0
M  V30 21 C -2.686913 1.214882 -0.852953 0
M  V30 22 C -4.043562 1.384943 -1.037195 0
M  V30 23 C -4.951510 0.491157 -0.506195 0
M  V30 24 C -4.440473 -0.578665 0.216307 0
M  V30 25 O -5.301810 -1.386892 0.694272 0
M  V30 26 N -3.111473 -0.777057 0.417406 0
M  V30 27 C -2.681447 -1.907806 1.175030 0
M  V30 28 C -2.651596 -2.002845 2.542101 0
M  V30 29 Cl -3.193128 -0.602172 3.451572 0
M  V30 30 C -2.204407 -3.176171 3.135245 0
M  V30 31 C -1.795377 -4.232479 2.327073 0
M  V30 32 C -1.815214 -4.163461 0.946393 0
M  V30 33 C -2.266591 -2.979429 0.374910 0
M  V30 34 Cl -2.274034 -2.938273 -1.388206 0
M  V30 35 C -2.266142 0.123043 -0.121072 0
M  V30 36 C -0.937659 -0.147349 0.126816 0
M  V30 37 C 2.937796 0.287780 1.538264 0
M  V30 38 C 3.191687 -0.903814 2.472098 0
M  V30 39 H 4.437450 -4.484302 3.528672 0
M  V30 40 H 5.169136 -3.035213 2.685565 0
M  V30 41 H 4.741197 -4.558331 1.740151 0
M  V30 42 H 1.808406 -4.995527 2.087048 0
M  V30 43 H 1.478685 -3.664047 0.957653 0
M  V30 44 H 2.952399 -4.744393 0.661336 0
M  V30 45 H 1.380125 -2.746905 3.533266 0
M  V30 46 H 2.215041 -4.232381 4.067396 0
M  V30 47 H 2.934763 -2.652357 4.394326 0
M  V30 48 H 4.901584 -1.643149 0.615600 0
M  V30 49 H 3.841605 -2.962375 -0.086012 0
M  V30 50 H 3.857258 -0.292187 -0.854679 0
M  V30 51 H 2.605536 -1.539166 -1.336628 0
M  V30 52 H 1.446395 -0.985908 0.802394 0
M  V30 53 H 0.236480 2.585323 -1.583487 0
M  V30 54 H -2.396290 4.503038 -0.387533 0
M  V30 55 H -3.288100 6.398561 -1.784776 0
M  V30 56 H -3.034644 3.946805 -5.292883 0
M  V30 57 H -4.362041 2.246611 -1.614205 0
M  V30 58 H -6.021099 0.616745 -0.646021 0
M  V30 59 H -2.192137 -3.221760 4.208575 0
M  V30 60 H -1.449851 -5.139888 2.833849 0
M  V30 61 H -1.484834 -5.016929 0.361916 0
M  V30 62 H -0.529044 -0.954925 0.673481 0
M  V30 63 H 2.275817 0.965179 2.114966 0
M  V30 64 H 3.845786 0.817675 1.258007 0
M  V30 65 H 4.191326 -0.713047 2.959895 0
M  V30 66 H 2.460957 -0.968969 3.277190 0
M  V30 END ATOM
M  V30 BEGIN BOND
M  V30 1 1 1 2
M  V30 2 1 2 3
M  V30 3 1 2 4
M  V30 4 1 2 5
M  V30 5 1 5 6
M  V30 6 1 6 7
M  V30 7 1 7 8
M  V30 8 1 8 9
M  V30 9 1 9 10
M  V30 10 2 10 11
M  V30 11 1 11 12
M  V30 12 1 12 13
M  V30 13 2 13 14
M  V30 14 1 14 15
M  V30 15 2 15 16
M  V30 16 1 16 17
M  V30 17 1 16 18
M  V30 18 2 18 19
M  V30 19 1 19 20
M  V30 20 2 12 21
M  V30 21 1 21 22
M  V30 22 2 22 23
M  V30 23 1 23 24
M  V30 24 2 24 25
M  V30 25 1 24 26
M  V30 26 1 26 27
M  V30 27 2 27 28
M  V30 28 1 28 29
M  V30 29 1 28 30
M  V30 30 2 30 31
M  V30 31 1 31 32
M  V30 32 2 32 33
M  V30 33 1 33 34
M  V30 34 1 26 35
M  V30 35 2 35 36
M  V30 36 1 8 37
M  V30 37 1 37 38
M  V30 38 1 38 5
M  V30 39 1 36 10
M  V30 40 1 19 13
M  V30 41 1 35 21
M  V30 42 1 33 27
M  V30 43 1 1 39
M  V30 44 1 1 40
M  V30 45 1 1 41
M  V30 46 1 3 42
M  V30 47 1 3 43
M  V30 48 1 3 44
M  V30 49 1 4 45
M  V30 50 1 4 46
M  V30 51 1 4 47
M  V30 52 1 6 48
M  V30 53 1 6 49
M  V30 54 1 7 50
M  V30 55 1 7 51
M  V30 56 1 8 52
M  V30 57 1 11 53
M  V30 58 1 14 54
M  V30 59 1 15 55
M  V30 60 1 18 56
M  V30 61 1 22 57
M  V30 62 1 23 58
M  V30 63 1 30 59
M  V30 64 1 31 60
M  V30 65 1 32 61
M  V30 66 1 36 62
M  V30 67 1 37 63
M  V30 68 1 37 64
M  V30 69 1 38 65
M  V30 70 1 38 66
M  V30 END BOND
M  V30 END CTAB
M  END
>  <Dataset>  (526) 
ChEMBL_Kinases

>  <Ligand_Instance>  (526) 
nan

>  <PDB_ID>  (526) 
nan

>  <Standardized_SMILES>  (526) 
CC(C)(C)N1CCC(Oc2cc(-c3ccc(F)cc3Cl)c3ccc(=O)n(-c4c(Cl)cccc4Cl)c3c2)CC1

>  <Name>  (526) 
nan

>  <Pocket>  (526) 
nan

>  <ATP_Site>  (526) 
nan

>  <Peripheral>  (526) 
nan

>  <Num_H_Atoms_ProtBoundConf>  (526) 
nan

>  <Num_Resolved_Atoms>  (526) 
nan

>  <Num_Not_Resolved_Atoms>  (526) 
nan

$$$$
CHEMBL381193
     RDKit          3D

  0  0  0  0  0  0  0  0  0  0999 V3000
M  V30 BEGIN CTAB
M  V30 COUNTS 33 34 0 0 0
M  V30 BEGIN ATOM
M  V30 1 N -1.050514 -6.245669 4.466146 0
M  V30 2 C -1.108489 -4.921427 3.935394 0
M  V30 3 O -1.457052 -3.975385 4.706696 0
M  V30 4 N -0.770093 -4.734020 2.562020 0
M  V30 5 C -0.746872 -3.555106 1.809205 0
M  V30 6 S 0.727793 -2.402106 1.601955 0
M  V30 7 C -0.117803 -1.307541 0.587053 0
M  V30 8 C 0.500641 -0.067233 0.011459 0
M  V30 9 C 0.979553 0.932309 -0.461537 0
M  V30 10 C 1.549876 2.113165 -1.046220 0
M  V30 11 C 1.451687 2.324668 -2.407138 0
M  V30 12 C 2.004440 3.465261 -2.960132 0
M  V30 13 C 2.646712 4.380733 -2.158592 0
M  V30 14 C 2.753530 4.184750 -0.798258 0
M  V30 15 N 3.411723 5.106303 0.081683 0
M  V30 16 C 2.195413 3.035638 -0.248882 0
M  V30 17 C -1.341658 -1.738956 0.419725 0
M  V30 18 C -1.674419 -2.910875 1.055244 0
M  V30 19 C -3.017116 -3.531381 0.966719 0
M  V30 20 N -4.071050 -2.951096 0.208003 0
M  V30 21 O -3.292867 -4.585063 1.546656 0
M  V30 22 H -2.046267 -6.535113 4.297709 0
M  V30 23 H -1.521159 -7.161620 4.689192 0
M  V30 24 H -0.487071 -5.572003 1.975187 0
M  V30 25 H 0.945385 1.613919 -3.077467 0
M  V30 26 H 1.928643 3.634099 -4.030300 0
M  V30 27 H 3.091970 5.292484 -2.579286 0
M  V30 28 H 4.401906 5.269871 0.317475 0
M  V30 29 H 2.655326 5.690974 0.532944 0
M  V30 30 H 2.246117 2.819834 0.829449 0
M  V30 31 H -2.045545 -1.184529 -0.194753 0
M  V30 32 H -3.751512 -2.545685 -0.718992 0
M  V30 33 H -5.050252 -2.921272 0.516750 0
M  V30 END ATOM
M  V30 BEGIN BOND
M  V30 1 1 1 2
M  V30 2 2 2 3
M  V30 3 1 2 4
M  V30 4 1 4 5
M  V30 5 1 5 6
M  V30 6 1 6 7
M  V30 7 1 7 8
M  V30 8 3 8 9
M  V30 9 1 9 10
M  V30 10 2 10 11
M  V30 11 1 11 12
M  V30 12 2 12 13
M  V30 13 1 13 14
M  V30 14 1 14 15
M  V30 15 2 14 16
M  V30 16 2 7 17
M  V30 17 1 17 18
M  V30 18 1 18 19
M  V30 19 1 19 20
M  V30 20 2 19 21
M  V30 21 2 18 5
M  V30 22 1 16 10
M  V30 23 1 1 22
M  V30 24 1 1 23
M  V30 25 1 4 24
M  V30 26 1 11 25
M  V30 27 1 12 26
M  V30 28 1 13 27
M  V30 29 1 15 28
M  V30 30 1 15 29
M  V30 31 1 16 30
M  V30 32 1 17 31
M  V30 33 1 20 32
M  V30 34 1 20 33
M  V30 END BOND
M  V30 END CTAB
M  END
>  <Dataset>  (527) 
ChEMBL_Kinases

>  <Ligand_Instance>  (527) 
nan

>  <PDB_ID>  (527) 
nan

>  <Standardized_SMILES>  (527) 
NC(=O)Nc1sc(C#Cc2cccc(N)c2)cc1C(N)=O

>  <Name>  (527) 
nan

>  <Pocket>  (527) 
nan

>  <ATP_Site>  (527) 
nan

>  <Peripheral>  (527) 
nan

>  <Num_H_Atoms_ProtBoundConf>  (527) 
nan

>  <Num_Resolved_Atoms>  (527) 
nan

>  <Num_Not_Resolved_Atoms>  (527) 
nan

$$$$
CHEMBL381187
     RDKit          3D

  0  0  0  0  0  0  0  0  0  0999 V3000
M  V30 BEGIN CTAB
M  V30 COUNTS 52 56 0 0 0
M  V30 BEGIN ATOM
M  V30 1 N 3.488643 -3.411687 -1.315873 0
M  V30 2 C 2.425527 -2.439295 -1.050012 0 CFG=1
M  V30 3 C 1.635055 -2.860665 0.136867 0
M  V30 4 O 0.582391 -2.037116 0.523320 0
M  V30 5 C -0.509804 -1.774852 -0.247414 0
M  V30 6 C -1.008581 -2.119034 -1.481531 0
M  V30 7 N -2.171048 -1.655566 -1.960860 0
M  V30 8 C -2.961041 -0.809903 -1.279937 0
M  V30 9 C -2.534753 -0.405526 -0.014362 0
M  V30 10 C -3.434431 0.511689 0.675414 0
M  V30 11 C -2.908710 1.461105 1.556801 0
M  V30 12 C -3.719734 2.356820 2.237035 0
M  V30 13 C -5.079244 2.279420 2.012737 0
M  V30 14 C -5.985869 3.126266 2.639146 0
M  V30 15 N -7.310529 3.029617 2.401787 0
M  V30 16 C -7.827793 2.117801 1.553753 0
M  V30 17 C -6.939355 1.270617 0.925003 0
M  V30 18 C -5.576600 1.334595 1.138557 0
M  V30 19 C -4.797361 0.442537 0.457801 0
M  V30 20 C -1.322695 -0.888875 0.484384 0
M  V30 21 C 3.168533 -1.123893 -0.791364 0
M  V30 22 C 3.965128 -0.761123 -1.993165 0
M  V30 23 C 5.303186 -0.812751 -2.325579 0
M  V30 24 N 5.482240 -0.347499 -3.574338 0
M  V30 25 C 4.270208 0.013505 -4.074714 0
M  V30 26 C 3.852734 0.544663 -5.284271 0
M  V30 27 C 2.561058 0.846547 -5.605817 0
M  V30 28 C 1.614745 0.594096 -4.633727 0
M  V30 29 C 1.975930 0.066111 -3.412514 0
M  V30 30 C 3.302487 -0.237852 -3.097925 0
M  V30 31 H 3.694346 -3.506538 -2.321439 0
M  V30 32 H 3.335857 -4.304303 -0.805591 0
M  V30 33 H 1.891469 -2.318183 -1.977724 0
M  V30 34 H 1.231426 -3.890767 -0.101348 0
M  V30 35 H 2.327796 -3.040412 1.017500 0
M  V30 36 H -0.347190 -2.807273 -1.979061 0
M  V30 37 H -3.859967 -0.516660 -1.775400 0
M  V30 38 H -1.849250 1.532288 1.741212 0
M  V30 39 H -3.322982 3.093549 2.919507 0
M  V30 40 H -5.568275 3.846952 3.310215 0
M  V30 41 H -8.900418 2.087576 1.402907 0
M  V30 42 H -7.352778 0.528441 0.236157 0
M  V30 43 H -5.212319 -0.276901 -0.211963 0
M  V30 44 H -1.171051 -0.463839 1.468507 0
M  V30 45 H 2.499605 -0.297208 -0.540052 0
M  V30 46 H 3.922690 -1.341107 0.009895 0
M  V30 47 H 6.017668 -1.189941 -1.611832 0
M  V30 48 H 6.393601 -0.274752 -4.076835 0
M  V30 49 H 4.591048 0.750878 -6.066908 0
M  V30 50 H 2.239836 1.255003 -6.535389 0
M  V30 51 H 0.560816 0.813346 -4.828079 0
M  V30 52 H 1.215441 -0.122213 -2.667588 0
M  V30 END ATOM
M  V30 BEGIN BOND
M  V30 1 1 1 2
M  V30 2 1 2 3
M  V30 3 1 3 4
M  V30 4 1 4 5
M  V30 5 2 5 6
M  V30 6 1 6 7
M  V30 7 2 7 8
M  V30 8 1 8 9
M  V30 9 1 9 10
M  V30 10 2 10 11
M  V30 11 1 11 12
M  V30 12 2 12 13
M  V30 13 1 13 14
M  V30 14 2 14 15
M  V30 15 1 15 16
M  V30 16 2 16 17
M  V30 17 1 17 18
M  V30 18 2 18 19
M  V30 19 2 9 20
M  V30 20 1 2 21
M  V30 21 1 21 22
M  V30 22 2 22 23
M  V30 23 1 23 24
M  V30 24 1 24 25
M  V30 25 2 25 26
M  V30 26 1 26 27
M  V30 27 2 27 28
M  V30 28 1 28 29
M  V30 29 2 29 30
M  V30 30 1 20 5
M  V30 31 1 30 22
M  V30 32 1 19 10
M  V30 33 1 30 25
M  V30 34 1 18 13
M  V30 35 1 1 31
M  V30 36 1 1 32
M  V30 37 1 2 33 CFG=3
M  V30 38 1 3 34
M  V30 39 1 3 35
M  V30 40 1 6 36
M  V30 41 1 8 37
M  V30 42 1 11 38
M  V30 43 1 12 39
M  V30 44 1 14 40
M  V30 45 1 16 41
M  V30 46 1 17 42
M  V30 47 1 19 43
M  V30 48 1 20 44
M  V30 49 1 21 45
M  V30 50 1 21 46
M  V30 51 1 23 47
M  V30 52 1 24 48
M  V30 53 1 26 49
M  V30 54 1 27 50
M  V30 55 1 28 51
M  V30 56 1 29 52
M  V30 END BOND
M  V30 END CTAB
M  END
>  <Dataset>  (528) 
ChEMBL_Kinases

>  <Ligand_Instance>  (528) 
nan

>  <PDB_ID>  (528) 
nan

>  <Standardized_SMILES>  (528) 
N[C@@H](COc1cncc(-c2ccc3cnccc3c2)c1)Cc1c[nH]c2ccccc12

>  <Name>  (528) 
nan

>  <Pocket>  (528) 
nan

>  <ATP_Site>  (528) 
nan

>  <Peripheral>  (528) 
nan

>  <Num_H_Atoms_ProtBoundConf>  (528) 
nan

>  <Num_Resolved_Atoms>  (528) 
nan

>  <Num_Not_Resolved_Atoms>  (528) 
nan

$$$$
CHEMBL381172
     RDKit          3D

  0  0  0  0  0  0  0  0  0  0999 V3000
M  V30 BEGIN CTAB
M  V30 COUNTS 47 49 0 0 0
M  V30 BEGIN ATOM
M  V30 1 C 0.467551 -1.262834 3.810111 0
M  V30 2 O -0.434004 -0.684571 2.883619 0
M  V30 3 C -0.034265 -0.211841 1.661738 0
M  V30 4 C 1.273170 -0.250860 1.214899 0
M  V30 5 C 1.661108 0.226502 -0.012535 0
M  V30 6 C 3.060174 0.179698 -0.479443 0
M  V30 7 N 3.829654 1.353737 -0.131008 0
M  V30 8 C 5.197285 1.255241 -0.614116 0
M  V30 9 C 6.095068 0.768538 0.513363 0
M  V30 10 O 6.216936 1.786290 1.457286 0
M  V30 11 C 5.024262 2.497620 1.603610 0
M  V30 12 C 3.872705 1.561820 1.303677 0
M  V30 13 C 0.677764 0.767212 -0.821514 0
M  V30 14 C -0.654189 0.846701 -0.455279 0
M  V30 15 C -0.962531 0.340618 0.803942 0
M  V30 16 N -2.339840 0.407813 1.216193 0
M  V30 17 C -3.149387 -0.705131 0.886057 0
M  V30 18 O -2.574731 -1.655414 0.255954 0
M  V30 19 N -4.526145 -0.855852 1.189906 0
M  V30 20 C -5.200008 -2.042042 0.786065 0
M  V30 21 C -5.208972 -3.102190 1.669817 0
M  V30 22 N -5.825124 -4.283536 1.382919 0
M  V30 23 C -6.456325 -4.434513 0.187242 0
M  V30 24 C -7.102398 -5.693104 -0.096678 0
M  V30 25 N -7.623750 -6.703197 -0.316836 0
M  V30 26 C -6.449952 -3.377398 -0.699362 0
M  V30 27 N -5.836482 -2.204962 -0.410504 0
M  V30 28 H 1.440393 -0.693361 3.788576 0
M  V30 29 H 0.066484 -1.257072 4.839918 0
M  V30 30 H 0.690072 -2.300187 3.522565 0
M  V30 31 H 2.042255 -0.670136 1.839502 0
M  V30 32 H 3.032293 0.160960 -1.607116 0
M  V30 33 H 3.546586 -0.771493 -0.202002 0
M  V30 34 H 5.533604 2.268408 -0.868993 0
M  V30 35 H 5.303705 0.601955 -1.491226 0
M  V30 36 H 5.780129 -0.199103 0.931385 0
M  V30 37 H 7.109200 0.598642 0.092888 0
M  V30 38 H 5.017947 3.284381 0.826153 0
M  V30 39 H 4.935141 2.931054 2.630887 0
M  V30 40 H 2.904412 1.920216 1.680209 0
M  V30 41 H 4.097578 0.623613 1.852245 0
M  V30 42 H 0.962788 1.152720 -1.801207 0
M  V30 43 H -1.402133 1.274508 -1.107626 0
M  V30 44 H -2.842396 1.177250 1.736630 0
M  V30 45 H -4.955833 -0.066143 1.700369 0
M  V30 46 H -4.714052 -3.018237 2.636655 0
M  V30 47 H -6.955661 -3.486595 -1.667338 0
M  V30 END ATOM
M  V30 BEGIN BOND
M  V30 1 1 1 2
M  V30 2 1 2 3
M  V30 3 2 3 4
M  V30 4 1 4 5
M  V30 5 1 5 6
M  V30 6 1 6 7
M  V30 7 1 7 8
M  V30 8 1 8 9
M  V30 9 1 9 10
M  V30 10 1 10 11
M  V30 11 1 11 12
M  V30 12 2 5 13
M  V30 13 1 13 14
M  V30 14 2 14 15
M  V30 15 1 15 16
M  V30 16 1 16 17
M  V30 17 2 17 18
M  V30 18 1 17 19
M  V30 19 1 19 20
M  V30 20 2 20 21
M  V30 21 1 21 22
M  V30 22 2 22 23
M  V30 23 1 23 24
M  V30 24 3 24 25
M  V30 25 1 23 26
M  V30 26 2 26 27
M  V30 27 1 15 3
M  V30 28 1 27 20
M  V30 29 1 12 7
M  V30 30 1 1 28
M  V30 31 1 1 29
M  V30 32 1 1 30
M  V30 33 1 4 31
M  V30 34 1 6 32
M  V30 35 1 6 33
M  V30 36 1 8 34
M  V30 37 1 8 35
M  V30 38 1 9 36
M  V30 39 1 9 37
M  V30 40 1 11 38
M  V30 41 1 11 39
M  V30 42 1 12 40
M  V30 43 1 12 41
M  V30 44 1 13 42
M  V30 45 1 14 43
M  V30 46 1 16 44
M  V30 47 1 19 45
M  V30 48 1 21 46
M  V30 49 1 26 47
M  V30 END BOND
M  V30 END CTAB
M  END
>  <Dataset>  (529) 
ChEMBL_Kinases

>  <Ligand_Instance>  (529) 
nan

>  <PDB_ID>  (529) 
nan

>  <Standardized_SMILES>  (529) 
COc1cc(CN2CCOCC2)ccc1NC(=O)Nc1cnc(C#N)cn1

>  <Name>  (529) 
nan

>  <Pocket>  (529) 
nan

>  <ATP_Site>  (529) 
nan

>  <Peripheral>  (529) 
nan

>  <Num_H_Atoms_ProtBoundConf>  (529) 
nan

>  <Num_Resolved_Atoms>  (529) 
nan

>  <Num_Not_Resolved_Atoms>  (529) 
nan

$$$$
CHEMBL381075
     RDKit          3D

  0  0  0  0  0  0  0  0  0  0999 V3000
M  V30 BEGIN CTAB
M  V30 COUNTS 52 55 0 0 0
M  V30 BEGIN ATOM
M  V30 1 N -0.359491 -8.019033 1.084350 0
M  V30 2 C 0.874579 -7.307001 1.130334 0
M  V30 3 C 0.802357 -5.983365 0.818764 0
M  V30 4 C 1.956984 -5.221901 0.840111 0
M  V30 5 C 1.919383 -3.800162 0.513150 0
M  V30 6 C 2.924650 -2.941285 0.481736 0
M  V30 7 C 2.899826 -1.524487 0.158558 0
M  V30 8 C 4.110723 -0.821419 0.186400 0
M  V30 9 N 4.140944 0.487515 -0.101969 0
M  V30 10 C 3.032174 1.166744 -0.423815 0
M  V30 11 C 1.782993 0.596843 -0.486686 0
M  V30 12 O 0.509436 0.965821 -0.761238 0
M  V30 13 C 0.041490 2.208654 -1.091327 0
M  V30 14 C 0.193458 3.299657 -0.085468 0 CFG=1
M  V30 15 N -0.344848 4.536533 -0.681882 0
M  V30 16 C -0.412186 3.069665 1.257750 0
M  V30 17 C -1.848242 2.865866 1.326336 0
M  V30 18 C -2.677145 3.964397 1.621120 0
M  V30 19 N -3.971962 3.599029 1.607892 0
M  V30 20 C -4.091219 2.303352 1.320433 0
M  V30 21 C -5.078592 1.340184 1.164064 0
M  V30 22 C -4.817115 0.020293 0.860582 0
M  V30 23 C -3.488738 -0.389466 0.697584 0
M  V30 24 C -2.514761 0.570342 0.853486 0
M  V30 25 C -2.791227 1.883617 1.155229 0
M  V30 26 C 1.776209 -0.775913 -0.180701 0
M  V30 27 C 3.113934 -5.888365 1.184657 0
M  V30 28 C 3.189984 -7.232914 1.501420 0
M  V30 29 N 2.012645 -7.919372 1.459455 0
M  V30 30 H -0.820432 -8.059922 2.031937 0
M  V30 31 H -1.056083 -8.541621 0.539201 0
M  V30 32 H -0.128042 -5.478590 0.548864 0
M  V30 33 H 0.948550 -3.380996 0.260749 0
M  V30 34 H 3.867023 -3.403704 0.738671 0
M  V30 35 H 5.058547 -1.281140 0.434615 0
M  V30 36 H 2.997437 2.211566 -0.676079 0
M  V30 37 H 0.638187 2.539072 -2.007291 0
M  V30 38 H -1.008249 2.192719 -1.510641 0
M  V30 39 H 1.261382 3.513152 0.069437 0
M  V30 40 H -0.999464 5.031230 -0.070640 0
M  V30 41 H 0.416878 5.113860 -1.093933 0
M  V30 42 H -0.069057 3.907145 1.909285 0
M  V30 43 H 0.067160 2.161513 1.692760 0
M  V30 44 H -2.426229 5.013156 1.847186 0
M  V30 45 H -4.818725 4.201419 1.790188 0
M  V30 46 H -6.094561 1.698103 1.298545 0
M  V30 47 H -5.643558 -0.653305 0.758547 0
M  V30 48 H -3.274057 -1.423295 0.459577 0
M  V30 49 H -1.515022 0.193404 0.730171 0
M  V30 50 H 0.903833 -1.435550 -0.166245 0
M  V30 51 H 4.051994 -5.363342 1.224869 0
M  V30 52 H 4.120584 -7.705250 1.763591 0
M  V30 END ATOM
M  V30 BEGIN BOND
M  V30 1 1 1 2
M  V30 2 2 2 3
M  V30 3 1 3 4
M  V30 4 1 4 5
M  V30 5 2 5 6
M  V30 6 1 6 7
M  V30 7 2 7 8
M  V30 8 1 8 9
M  V30 9 2 9 10
M  V30 10 1 10 11
M  V30 11 1 11 12
M  V30 12 1 12 13
M  V30 13 1 13 14
M  V30 14 1 14 15
M  V30 15 1 14 16
M  V30 16 1 16 17
M  V30 17 2 17 18
M  V30 18 1 18 19
M  V30 19 1 19 20
M  V30 20 2 20 21
M  V30 21 1 21 22
M  V30 22 2 22 23
M  V30 23 1 23 24
M  V30 24 2 24 25
M  V30 25 2 11 26
M  V30 26 2 4 27
M  V30 27 1 27 28
M  V30 28 2 28 29
M  V30 29 1 29 2
M  V30 30 1 26 7
M  V30 31 1 25 17
M  V30 32 1 25 20
M  V30 33 1 1 30
M  V30 34 1 1 31
M  V30 35 1 3 32
M  V30 36 1 5 33
M  V30 37 1 6 34
M  V30 38 1 8 35
M  V30 39 1 10 36
M  V30 40 1 13 37
M  V30 41 1 13 38
M  V30 42 1 14 39 CFG=1
M  V30 43 1 15 40
M  V30 44 1 15 41
M  V30 45 1 16 42
M  V30 46 1 16 43
M  V30 47 1 18 44
M  V30 48 1 19 45
M  V30 49 1 21 46
M  V30 50 1 22 47
M  V30 51 1 23 48
M  V30 52 1 24 49
M  V30 53 1 26 50
M  V30 54 1 27 51
M  V30 55 1 28 52
M  V30 END BOND
M  V30 END CTAB
M  END
>  <Dataset>  (530) 
ChEMBL_Kinases

>  <Ligand_Instance>  (530) 
nan

>  <PDB_ID>  (530) 
nan

>  <Standardized_SMILES>  (530) 
Nc1cc(/C=C/c2cncc(OC[C@@H](N)Cc3c[nH]c4ccccc34)c2)ccn1

>  <Name>  (530) 
nan

>  <Pocket>  (530) 
nan

>  <ATP_Site>  (530) 
nan

>  <Peripheral>  (530) 
nan

>  <Num_H_Atoms_ProtBoundConf>  (530) 
nan

>  <Num_Resolved_Atoms>  (530) 
nan

>  <Num_Not_Resolved_Atoms>  (530) 
nan

$$$$
CHEMBL592970
     RDKit          3D

  0  0  0  0  0  0  0  0  0  0999 V3000
M  V30 BEGIN CTAB
M  V30 COUNTS 18 19 0 0 0
M  V30 BEGIN ATOM
M  V30 1 C -0.969591 0.112764 3.630475 0
M  V30 2 C -0.064253 0.097038 2.434267 0
M  V30 3 N 1.226666 -0.277640 2.432950 0
M  V30 4 C 1.732472 -0.165404 1.179165 0
M  V30 5 C 3.007695 -0.439476 0.713224 0
M  V30 6 I 4.514776 -1.140494 1.986894 0
M  V30 7 C 3.265472 -0.236829 -0.629346 0
M  V30 8 Cl 4.866872 -0.560768 -1.312396 0
M  V30 9 C 2.235595 0.226138 -1.421962 0
M  V30 10 Cl 2.556866 0.484586 -3.123685 0
M  V30 11 C 0.968434 0.499519 -0.964009 0
M  V30 12 I -0.569252 1.203018 -2.206656 0
M  V30 13 C 0.707060 0.294821 0.393511 0
M  V30 14 N -0.377520 0.449095 1.171177 0
M  V30 15 H -1.463950 -0.842629 3.814502 0
M  V30 16 H -0.392983 0.438968 4.544124 0
M  V30 17 H -1.757646 0.890562 3.501505 0
M  V30 18 H -1.298735 0.790122 0.815716 0
M  V30 END ATOM
M  V30 BEGIN BOND
M  V30 1 1 1 2
M  V30 2 2 2 3
M  V30 3 1 3 4
M  V30 4 2 4 5
M  V30 5 1 5 6
M  V30 6 1 5 7
M  V30 7 1 7 8
M  V30 8 2 7 9
M  V30 9 1 9 10
M  V30 10 1 9 11
M  V30 11 1 11 12
M  V30 12 2 11 13
M  V30 13 1 13 14
M  V30 14 1 14 2
M  V30 15 1 13 4
M  V30 16 1 1 15
M  V30 17 1 1 16
M  V30 18 1 1 17
M  V30 19 1 14 18
M  V30 END BOND
M  V30 END CTAB
M  END
>  <Dataset>  (531) 
ChEMBL_Kinases

>  <Ligand_Instance>  (531) 
nan

>  <PDB_ID>  (531) 
nan

>  <Standardized_SMILES>  (531) 
Cc1nc2c(I)c(Cl)c(Cl)c(I)c2[nH]1

>  <Name>  (531) 
nan

>  <Pocket>  (531) 
nan

>  <ATP_Site>  (531) 
nan

>  <Peripheral>  (531) 
nan

>  <Num_H_Atoms_ProtBoundConf>  (531) 
nan

>  <Num_Resolved_Atoms>  (531) 
nan

>  <Num_Not_Resolved_Atoms>  (531) 
nan

$$$$
CHEMBL495956
     RDKit          3D

  0  0  0  0  0  0  0  0  0  0999 V3000
M  V30 BEGIN CTAB
M  V30 COUNTS 66 71 0 0 0
M  V30 BEGIN ATOM
M  V30 1 N 3.147255 -0.126942 6.244808 0
M  V30 2 C 3.683945 0.260266 4.967441 0
M  V30 3 N 5.000427 0.158956 4.754520 0
M  V30 4 C 5.517003 0.511582 3.580659 0
M  V30 5 C 4.747064 0.986262 2.550466 0
M  V30 6 C 3.388814 1.092496 2.765729 0
M  V30 7 C 2.312560 1.556208 1.878709 0
M  V30 8 C 2.091244 2.804406 1.284306 0
M  V30 9 C 3.056284 3.878427 1.543324 0
M  V30 10 C 3.736812 4.424625 0.447711 0
M  V30 11 C 4.654583 5.441273 0.673816 0
M  V30 12 C 4.926824 5.938916 1.933624 0
M  V30 13 F 5.824175 6.931348 2.150860 0
M  V30 14 C 4.221403 5.355896 2.967213 0
M  V30 15 C 3.296813 4.346265 2.827805 0
M  V30 16 N 0.955246 2.695435 0.563872 0
M  V30 17 C 0.466928 1.444425 0.685207 0
M  V30 18 C -0.660502 0.870873 0.136841 0
M  V30 19 C -0.995935 -0.456681 0.387162 0
M  V30 20 C -2.192769 -1.101458 -0.182108 0
M  V30 21 C -3.494564 -0.543088 0.324264 0
M  V30 22 C -4.532677 -1.661453 0.126210 0
M  V30 23 N -4.181478 -2.391148 -1.062004 0
M  V30 24 C -4.995044 -3.453395 -1.426552 0
M  V30 25 C -4.657164 -4.284385 -2.602785 0
M  V30 26 C -3.391592 -4.999850 -2.596942 0
M  V30 27 C -2.157023 -4.604468 -3.066777 0
M  V30 28 C -1.010140 -5.348693 -3.015287 0
M  V30 29 C -1.054354 -6.602923 -2.454158 0
M  V30 30 C -2.252770 -7.074908 -1.959479 0
M  V30 31 C -3.391613 -6.276140 -2.036804 0
M  V30 32 C -3.635931 -1.560728 -2.080283 0
M  V30 33 C -2.236371 -1.151227 -1.677559 0
M  V30 34 C -0.100874 -1.121220 1.222878 0
M  V30 35 C 1.030549 -0.562002 1.779185 0
M  V30 36 N 1.294680 0.729730 1.494056 0
M  V30 37 N 2.884579 0.724275 3.978749 0
M  V30 38 H 2.540901 -0.972233 6.427886 0
M  V30 39 H 3.340901 0.443468 7.116434 0
M  V30 40 H 6.584922 0.455463 3.336612 0
M  V30 41 H 5.014191 1.306394 1.559197 0
M  V30 42 H 3.573723 4.083372 -0.571078 0
M  V30 43 H 5.231075 5.924690 -0.132018 0
M  V30 44 H 4.378944 5.688725 3.974812 0
M  V30 45 H 2.775754 3.929019 3.675920 0
M  V30 46 H -1.298802 1.476220 -0.506184 0
M  V30 47 H -2.171937 -2.171057 0.173574 0
M  V30 48 H -3.772015 0.348355 -0.272561 0
M  V30 49 H -3.447132 -0.223445 1.384131 0
M  V30 50 H -5.507932 -1.167779 -0.055846 0
M  V30 51 H -4.622592 -2.324480 0.976940 0
M  V30 52 H -6.033608 -3.052068 -1.622866 0
M  V30 53 H -5.160481 -4.087604 -0.509025 0
M  V30 54 H -5.484735 -5.044441 -2.747453 0
M  V30 55 H -4.741611 -3.660418 -3.531192 0
M  V30 56 H -2.113074 -3.628015 -3.508936 0
M  V30 57 H -0.093870 -4.925899 -3.420554 0
M  V30 58 H -0.123446 -7.150450 -2.437611 0
M  V30 59 H -2.273985 -8.062468 -1.521466 0
M  V30 60 H -4.265919 -6.729309 -1.628009 0
M  V30 61 H -3.742836 -1.964637 -3.070077 0
M  V30 62 H -4.256138 -0.614054 -2.067455 0
M  V30 63 H -1.455009 -1.856349 -2.037168 0
M  V30 64 H -1.996588 -0.119178 -2.062232 0
M  V30 65 H -0.292907 -2.156247 1.464834 0
M  V30 66 H 1.674600 -1.150830 2.419949 0
M  V30 END ATOM
M  V30 BEGIN BOND
M  V30 1 1 1 2
M  V30 2 2 2 3
M  V30 3 1 3 4
M  V30 4 2 4 5
M  V30 5 1 5 6
M  V30 6 1 6 7
M  V30 7 2 7 8
M  V30 8 1 8 9
M  V30 9 2 9 10
M  V30 10 1 10 11
M  V30 11 2 11 12
M  V30 12 1 12 13
M  V30 13 1 12 14
M  V30 14 2 14 15
M  V30 15 1 8 16
M  V30 16 2 16 17
M  V30 17 1 17 18
M  V30 18 2 18 19
M  V30 19 1 19 20
M  V30 20 1 20 21
M  V30 21 1 21 22
M  V30 22 1 22 23
M  V30 23 1 23 24
M  V30 24 1 24 25
M  V30 25 1 25 26
M  V30 26 2 26 27
M  V30 27 1 27 28
M  V30 28 2 28 29
M  V30 29 1 29 30
M  V30 30 2 30 31
M  V30 31 1 23 32
M  V30 32 1 32 33
M  V30 33 1 19 34
M  V30 34 2 34 35
M  V30 35 1 35 36
M  V30 36 2 6 37
M  V30 37 1 37 2
M  V30 38 1 36 7
M  V30 39 1 15 9
M  V30 40 1 36 17
M  V30 41 1 33 20
M  V30 42 1 31 26
M  V30 43 1 1 38
M  V30 44 1 1 39
M  V30 45 1 4 40
M  V30 46 1 5 41
M  V30 47 1 10 42
M  V30 48 1 11 43
M  V30 49 1 14 44
M  V30 50 1 15 45
M  V30 51 1 18 46
M  V30 52 1 20 47
M  V30 53 1 21 48
M  V30 54 1 21 49
M  V30 55 1 22 50
M  V30 56 1 22 51
M  V30 57 1 24 52
M  V30 58 1 24 53
M  V30 59 1 25 54
M  V30 60 1 25 55
M  V30 61 1 27 56
M  V30 62 1 28 57
M  V30 63 1 29 58
M  V30 64 1 30 59
M  V30 65 1 31 60
M  V30 66 1 32 61
M  V30 67 1 32 62
M  V30 68 1 33 63
M  V30 69 1 33 64
M  V30 70 1 34 65
M  V30 71 1 35 66
M  V30 END BOND
M  V30 END CTAB
M  END
>  <Dataset>  (532) 
ChEMBL_Kinases

>  <Ligand_Instance>  (532) 
nan

>  <PDB_ID>  (532) 
nan

>  <Standardized_SMILES>  (532) 
Nc1nccc(-c2c(-c3ccc(F)cc3)nc3cc(C4CCN(CCc5ccccc5)CC4)ccn23)n1

>  <Name>  (532) 
nan

>  <Pocket>  (532) 
nan

>  <ATP_Site>  (532) 
nan

>  <Peripheral>  (532) 
nan

>  <Num_H_Atoms_ProtBoundConf>  (532) 
nan

>  <Num_Resolved_Atoms>  (532) 
nan

>  <Num_Not_Resolved_Atoms>  (532) 
nan

$$$$
CHEMBL496102
     RDKit          3D

  0  0  0  0  0  0  0  0  0  0999 V3000
M  V30 BEGIN CTAB
M  V30 COUNTS 46 50 0 0 0
M  V30 BEGIN ATOM
M  V30 1 C -5.332415 -4.142811 -0.336872 0
M  V30 2 O -4.164472 -4.873724 -0.665433 0
M  V30 3 C -2.967426 -4.154646 -0.849139 0
M  V30 4 C -3.013478 -2.764072 -0.694244 0
M  V30 5 C -1.803876 -2.130254 -0.889555 0
M  V30 6 C -0.613840 -2.749667 -1.211266 0
M  V30 7 C 0.556072 -2.039817 -1.390091 0
M  V30 8 O 0.447235 -0.665678 -1.223342 0
M  V30 9 C 1.540416 0.181320 -1.371302 0
M  V30 10 C 1.170975 1.606433 -1.142865 0
M  V30 11 N 0.739947 2.537575 -2.013090 0
M  V30 12 N 0.518820 3.685524 -1.418120 0
M  V30 13 C 0.816806 3.498915 -0.106249 0
M  V30 14 C 0.771387 4.355430 0.980395 0
M  V30 15 C 1.147691 3.852570 2.221892 0
M  V30 16 C 1.548579 2.538361 2.334905 0
M  V30 17 C 1.957816 1.934371 3.596371 0
M  V30 18 C 2.339603 0.610488 3.591772 0
M  V30 19 C 2.748985 -0.063230 4.745732 0
M  V30 20 C 2.767807 0.636809 5.934628 0
M  V30 21 C 2.392562 1.963128 5.978177 0
M  V30 22 C 1.997720 2.576391 4.808454 0
M  V30 23 N 1.572082 1.754164 1.242811 0
M  V30 24 N 1.212557 2.223276 0.039084 0
M  V30 25 C 1.705126 -2.738959 -1.711272 0
M  V30 26 C 1.670642 -4.117521 -1.847510 0
M  V30 27 N 0.505744 -4.783467 -1.665192 0
M  V30 28 C -0.627545 -4.128787 -1.352055 0
M  V30 29 C -1.805125 -4.827921 -1.170471 0
M  V30 30 H -5.283267 -3.650005 0.641730 0
M  V30 31 H -5.495487 -3.338459 -1.108760 0
M  V30 32 H -6.190270 -4.840448 -0.448496 0
M  V30 33 H -3.913732 -2.227937 -0.443834 0
M  V30 34 H -1.829105 -1.046244 -0.771106 0
M  V30 35 H 2.348106 -0.148196 -0.693729 0
M  V30 36 H 1.914414 0.115005 -2.421943 0
M  V30 37 H 0.454161 5.397905 0.894925 0
M  V30 38 H 1.126084 4.486803 3.091259 0
M  V30 39 H 2.346343 0.000453 2.680114 0
M  V30 40 H 3.044697 -1.118242 4.696186 0
M  V30 41 H 3.095037 0.065947 6.806823 0
M  V30 42 H 2.419705 2.474032 6.917869 0
M  V30 43 H 1.703217 3.615699 4.840193 0
M  V30 44 H 2.580803 -2.132500 -1.837283 0
M  V30 45 H 2.622143 -4.561440 -2.099400 0
M  V30 46 H -1.854948 -5.913044 -1.272801 0
M  V30 END ATOM
M  V30 BEGIN BOND
M  V30 1 1 1 2
M  V30 2 1 2 3
M  V30 3 2 3 4
M  V30 4 1 4 5
M  V30 5 2 5 6
M  V30 6 1 6 7
M  V30 7 1 7 8
M  V30 8 1 8 9
M  V30 9 1 9 10
M  V30 10 2 10 11
M  V30 11 1 11 12
M  V30 12 2 12 13
M  V30 13 1 13 14
M  V30 14 2 14 15
M  V30 15 1 15 16
M  V30 16 1 16 17
M  V30 17 2 17 18
M  V30 18 1 18 19
M  V30 19 2 19 20
M  V30 20 1 20 21
M  V30 21 2 21 22
M  V30 22 2 16 23
M  V30 23 1 23 24
M  V30 24 2 7 25
M  V30 25 1 25 26
M  V30 26 2 26 27
M  V30 27 1 27 28
M  V30 28 2 28 29
M  V30 29 1 29 3
M  V30 30 1 28 6
M  V30 31 1 24 10
M  V30 32 1 24 13
M  V30 33 1 22 17
M  V30 34 1 1 30
M  V30 35 1 1 31
M  V30 36 1 1 32
M  V30 37 1 4 33
M  V30 38 1 5 34
M  V30 39 1 9 35
M  V30 40 1 9 36
M  V30 41 1 14 37
M  V30 42 1 15 38
M  V30 43 1 18 39
M  V30 44 1 19 40
M  V30 45 1 20 41
M  V30 46 1 21 42
M  V30 47 1 22 43
M  V30 48 1 25 44
M  V30 49 1 26 45
M  V30 50 1 29 46
M  V30 END BOND
M  V30 END CTAB
M  END
>  <Dataset>  (533) 
ChEMBL_Kinases

>  <Ligand_Instance>  (533) 
nan

>  <PDB_ID>  (533) 
nan

>  <Standardized_SMILES>  (533) 
COc1ccc2c(OCc3nnc4ccc(-c5ccccc5)nn34)ccnc2c1

>  <Name>  (533) 
AMG-208

>  <Pocket>  (533) 
nan

>  <ATP_Site>  (533) 
nan

>  <Peripheral>  (533) 
nan

>  <Num_H_Atoms_ProtBoundConf>  (533) 
nan

>  <Num_Resolved_Atoms>  (533) 
nan

>  <Num_Not_Resolved_Atoms>  (533) 
nan

$$$$
CHEMBL3810345
     RDKit          3D

  0  0  0  0  0  0  0  0  0  0999 V3000
M  V30 BEGIN CTAB
M  V30 COUNTS 57 61 0 0 0
M  V30 BEGIN ATOM
M  V30 1 C 3.394917 -1.937074 3.924323 0
M  V30 2 C 2.108311 -1.126770 4.030167 0
M  V30 3 C 2.129938 -0.540723 5.454275 0
M  V30 4 O 1.956757 -0.191165 3.072595 0
M  V30 5 C 1.206403 0.242512 2.088898 0
M  V30 6 C 1.845755 1.384859 1.562441 0
M  V30 7 C 1.292208 2.095698 0.483098 0
M  V30 8 C 1.875950 3.284255 -0.127902 0
M  V30 9 C 3.256681 3.500702 -0.202473 0
M  V30 10 N 3.336342 4.700702 -0.831217 0
M  V30 11 N 2.148595 5.174430 -1.113926 0
M  V30 12 C 2.011759 6.452061 -1.787593 0
M  V30 13 C 1.188603 4.332734 -0.698603 0
M  V30 14 C 0.105765 1.642012 -0.044394 0
M  V30 15 C -0.579883 0.538814 0.410055 0
M  V30 16 C 0.031603 -0.094419 1.465222 0
M  V30 17 N -0.571988 -1.243562 2.029718 0
M  V30 18 C -1.819119 -1.692899 1.459179 0
M  V30 19 N -2.951936 -1.158723 1.959899 0
M  V30 20 C -4.172293 -1.520245 1.471362 0
M  V30 21 C -4.181544 -2.445141 0.456388 0
M  V30 22 C -5.449692 -2.793214 -0.021152 0
M  V30 23 C -5.473747 -3.727119 -1.046499 0
M  V30 24 N -4.354285 -4.258377 -1.543889 0
M  V30 25 C -3.111774 -3.930624 -1.090803 0
M  V30 26 C -1.894619 -4.523578 -1.643410 0
M  V30 27 C -0.734749 -5.050735 -1.096777 0
M  V30 28 N 0.055518 -5.461276 -2.121261 0
M  V30 29 N -0.542054 -5.221419 -3.260628 0
M  V30 30 C -0.016943 -5.518436 -4.578429 0
M  V30 31 C -1.742014 -4.646313 -3.018582 0
M  V30 32 C -3.038690 -3.005859 -0.072086 0
M  V30 33 N -1.864549 -2.599329 0.462158 0
M  V30 34 H 4.178447 -1.364365 4.469743 0
M  V30 35 H 3.239131 -2.856893 4.523182 0
M  V30 36 H 3.656928 -2.228694 2.907622 0
M  V30 37 H 1.298981 -1.881266 4.011118 0
M  V30 38 H 2.825094 -1.123378 6.071570 0
M  V30 39 H 2.508327 0.494604 5.383483 0
M  V30 40 H 1.085470 -0.581524 5.827019 0
M  V30 41 H 2.784279 1.880942 1.855710 0
M  V30 42 H 4.077533 2.887692 0.143178 0
M  V30 43 H 1.971478 7.292079 -1.059261 0
M  V30 44 H 1.028519 6.459617 -2.311788 0
M  V30 45 H 2.799031 6.574447 -2.554433 0
M  V30 46 H 0.117854 4.473349 -0.803047 0
M  V30 47 H -0.352593 2.169357 -0.882957 0
M  V30 48 H -1.501047 0.160285 0.024234 0
M  V30 49 H -0.578038 -2.006404 2.712600 0
M  V30 50 H -5.056399 -1.069774 1.899769 0
M  V30 51 H -6.350647 -2.365031 0.379063 0
M  V30 52 H -6.464411 -3.995599 -1.417061 0
M  V30 53 H -0.687407 -5.032762 -0.006519 0
M  V30 54 H 0.195517 -6.590361 -4.644801 0
M  V30 55 H 0.943035 -4.958488 -4.678441 0
M  V30 56 H -0.670508 -5.163468 -5.383667 0
M  V30 57 H -2.431792 -4.349897 -3.805378 0
M  V30 END ATOM
M  V30 BEGIN BOND
M  V30 1 1 1 2
M  V30 2 1 2 3
M  V30 3 1 2 4
M  V30 4 1 4 5
M  V30 5 2 5 6
M  V30 6 1 6 7
M  V30 7 1 7 8
M  V30 8 1 8 9
M  V30 9 2 9 10
M  V30 10 1 10 11
M  V30 11 1 11 12
M  V30 12 1 11 13
M  V30 13 2 7 14
M  V30 14 1 14 15
M  V30 15 2 15 16
M  V30 16 1 16 17
M  V30 17 1 17 18
M  V30 18 2 18 19
M  V30 19 1 19 20
M  V30 20 2 20 21
M  V30 21 1 21 22
M  V30 22 2 22 23
M  V30 23 1 23 24
M  V30 24 2 24 25
M  V30 25 1 25 26
M  V30 26 1 26 27
M  V30 27 2 27 28
M  V30 28 1 28 29
M  V30 29 1 29 30
M  V30 30 1 29 31
M  V30 31 1 25 32
M  V30 32 2 32 33
M  V30 33 1 16 5
M  V30 34 1 33 18
M  V30 35 2 13 8
M  V30 36 1 32 21
M  V30 37 2 31 26
M  V30 38 1 1 34
M  V30 39 1 1 35
M  V30 40 1 1 36
M  V30 41 1 2 37
M  V30 42 1 3 38
M  V30 43 1 3 39
M  V30 44 1 3 40
M  V30 45 1 6 41
M  V30 46 1 9 42
M  V30 47 1 12 43
M  V30 48 1 12 44
M  V30 49 1 12 45
M  V30 50 1 13 46
M  V30 51 1 14 47
M  V30 52 1 15 48
M  V30 53 1 17 49
M  V30 54 1 20 50
M  V30 55 1 22 51
M  V30 56 1 23 52
M  V30 57 1 27 53
M  V30 58 1 30 54
M  V30 59 1 30 55
M  V30 60 1 30 56
M  V30 61 1 31 57
M  V30 END BOND
M  V30 END CTAB
M  END
>  <Dataset>  (534) 
ChEMBL_Kinases

>  <Ligand_Instance>  (534) 
nan

>  <PDB_ID>  (534) 
nan

>  <Standardized_SMILES>  (534) 
CC(C)Oc1cc(-c2cnn(C)c2)ccc1Nc1ncc2ccnc(-c3cnn(C)c3)c2n1

>  <Name>  (534) 
nan

>  <Pocket>  (534) 
nan

>  <ATP_Site>  (534) 
nan

>  <Peripheral>  (534) 
nan

>  <Num_H_Atoms_ProtBoundConf>  (534) 
nan

>  <Num_Resolved_Atoms>  (534) 
nan

>  <Num_Not_Resolved_Atoms>  (534) 
nan

$$$$
CHEMBL3810318
     RDKit          3D

  0  0  0  0  0  0  0  0  0  0999 V3000
M  V30 BEGIN CTAB
M  V30 COUNTS 65 68 0 0 0
M  V30 BEGIN ATOM
M  V30 1 C -0.122883 -1.577540 4.370951 0
M  V30 2 C 0.263568 -1.748145 2.942609 0
M  V30 3 O 1.478166 -1.987152 2.669385 0
M  V30 4 N -0.563965 -1.681608 1.764699 0
M  V30 5 C 0.316309 -1.919364 0.680270 0
M  V30 6 C 0.994037 -0.923942 0.020260 0
M  V30 7 C 1.852064 -1.197007 -1.023889 0
M  V30 8 N 2.551924 -0.162460 -1.702195 0
M  V30 9 C 2.229972 1.200109 -1.468585 0
M  V30 10 C 2.615649 1.997475 -0.414646 0
M  V30 11 C 2.214334 3.315447 -0.360600 0
M  V30 12 N 2.614294 4.125294 0.743370 0
M  V30 13 C 2.237769 5.519502 0.851178 0
M  V30 14 C 2.697337 6.228542 2.092949 0
M  V30 15 C 1.243024 5.948134 1.864595 0
M  V30 16 N 1.445049 3.849097 -1.325875 0
M  V30 17 N 0.901165 5.033134 -1.577889 0
M  V30 18 C 0.201964 5.016768 -2.725402 0
M  V30 19 C 0.281008 3.754383 -3.272380 0
M  V30 20 C -0.318466 3.311662 -4.489421 0
M  V30 21 N -0.797020 2.940160 -5.492113 0
M  V30 22 C 1.066361 3.053449 -2.368048 0
M  V30 23 N 1.451058 1.750660 -2.439775 0
M  V30 24 C 1.993426 -2.526002 -1.371858 0
M  V30 25 C 1.308571 -3.515778 -0.703553 0
M  V30 26 C 0.439345 -3.229595 0.356334 0
M  V30 27 N -0.152385 -4.410797 0.882070 0
M  V30 28 C -0.091161 -4.908164 2.245078 0
M  V30 29 C -0.892199 -5.204736 -0.080049 0
M  V30 30 C -2.362557 -5.256073 0.152280 0
M  V30 31 C -3.061764 -3.935877 0.123974 0
M  V30 32 N -4.506641 -4.065728 0.356425 0
M  V30 33 C -4.775518 -4.489155 1.714126 0
M  V30 34 C -5.042163 -2.727533 0.153342 0
M  V30 35 H -0.947243 -0.850407 4.518174 0
M  V30 36 H 0.765011 -1.135508 4.881289 0
M  V30 37 H -0.310568 -2.553551 4.870209 0
M  V30 38 H -1.579364 -1.477960 1.996313 0
M  V30 39 H 0.819831 0.088777 0.365500 0
M  V30 40 H 3.298661 -0.371723 -2.373285 0
M  V30 41 H 3.224494 1.514516 0.317081 0
M  V30 42 H 3.199412 3.691970 1.499096 0
M  V30 43 H 2.321607 6.155854 -0.055685 0
M  V30 44 H 2.978298 7.298585 2.062635 0
M  V30 45 H 3.239522 5.614726 2.862273 0
M  V30 46 H 0.537771 6.787379 1.648091 0
M  V30 47 H 0.771777 5.134183 2.438136 0
M  V30 48 H -0.327817 5.886591 -3.123681 0
M  V30 49 H 2.673865 -2.709843 -2.198207 0
M  V30 50 H 1.527791 -4.511311 -1.098000 0
M  V30 51 H 0.854480 -4.654581 2.768557 0
M  V30 52 H -0.096124 -6.021884 2.174701 0
M  V30 53 H -0.921368 -4.528761 2.877205 0
M  V30 54 H -0.515372 -6.257515 0.054995 0
M  V30 55 H -0.700707 -4.915354 -1.131562 0
M  V30 56 H -2.777601 -5.873106 -0.697808 0
M  V30 57 H -2.627340 -5.861400 1.055828 0
M  V30 58 H -2.934655 -3.413580 -0.834524 0
M  V30 59 H -2.667986 -3.351717 0.999216 0
M  V30 60 H -3.830769 -4.703102 2.269526 0
M  V30 61 H -5.343435 -3.687441 2.268980 0
M  V30 62 H -5.446999 -5.382802 1.710942 0
M  V30 63 H -5.044758 -2.465141 -0.912936 0
M  V30 64 H -4.429190 -1.945791 0.689442 0
M  V30 65 H -6.101958 -2.685066 0.534675 0
M  V30 END ATOM
M  V30 BEGIN BOND
M  V30 1 1 1 2
M  V30 2 2 2 3
M  V30 3 1 2 4
M  V30 4 1 4 5
M  V30 5 2 5 6
M  V30 6 1 6 7
M  V30 7 1 7 8
M  V30 8 1 8 9
M  V30 9 1 9 10
M  V30 10 2 10 11
M  V30 11 1 11 12
M  V30 12 1 12 13
M  V30 13 1 13 14
M  V30 14 1 14 15
M  V30 15 1 11 16
M  V30 16 1 16 17
M  V30 17 2 17 18
M  V30 18 1 18 19
M  V30 19 1 19 20
M  V30 20 3 20 21
M  V30 21 2 19 22
M  V30 22 1 22 23
M  V30 23 2 7 24
M  V30 24 1 24 25
M  V30 25 2 25 26
M  V30 26 1 26 27
M  V30 27 1 27 28
M  V30 28 1 27 29
M  V30 29 1 29 30
M  V30 30 1 30 31
M  V30 31 1 31 32
M  V30 32 1 32 33
M  V30 33 1 32 34
M  V30 34 1 26 5
M  V30 35 2 23 9
M  V30 36 1 15 13
M  V30 37 1 22 16
M  V30 38 1 1 35
M  V30 39 1 1 36
M  V30 40 1 1 37
M  V30 41 1 4 38
M  V30 42 1 6 39
M  V30 43 1 8 40
M  V30 44 1 10 41
M  V30 45 1 12 42
M  V30 46 1 13 43
M  V30 47 1 14 44
M  V30 48 1 14 45
M  V30 49 1 15 46
M  V30 50 1 15 47
M  V30 51 1 18 48
M  V30 52 1 24 49
M  V30 53 1 25 50
M  V30 54 1 28 51
M  V30 55 1 28 52
M  V30 56 1 28 53
M  V30 57 1 29 54
M  V30 58 1 29 55
M  V30 59 1 30 56
M  V30 60 1 30 57
M  V30 61 1 31 58
M  V30 62 1 31 59
M  V30 63 1 33 60
M  V30 64 1 33 61
M  V30 65 1 33 62
M  V30 66 1 34 63
M  V30 67 1 34 64
M  V30 68 1 34 65
M  V30 END BOND
M  V30 END CTAB
M  END
>  <Dataset>  (535) 
ChEMBL_Kinases

>  <Ligand_Instance>  (535) 
nan

>  <PDB_ID>  (535) 
nan

>  <Standardized_SMILES>  (535) 
CC(=O)Nc1cc(Nc2cc(NC3CC3)n3ncc(C#N)c3n2)ccc1N(C)CCCN(C)C

>  <Name>  (535) 
nan

>  <Pocket>  (535) 
nan

>  <ATP_Site>  (535) 
nan

>  <Peripheral>  (535) 
nan

>  <Num_H_Atoms_ProtBoundConf>  (535) 
nan

>  <Num_Resolved_Atoms>  (535) 
nan

>  <Num_Not_Resolved_Atoms>  (535) 
nan

$$$$
CHEMBL3810036
     RDKit          3D

  0  0  0  0  0  0  0  0  0  0999 V3000
M  V30 BEGIN CTAB
M  V30 COUNTS 43 46 0 0 0
M  V30 BEGIN ATOM
M  V30 1 C 1.717388 -5.825394 4.302339 0
M  V30 2 O 2.734002 -5.271723 3.495232 0
M  V30 3 C 2.416912 -4.401194 2.469700 0
M  V30 4 C 3.493592 -3.909175 1.727978 0
M  V30 5 C 3.301881 -3.042912 0.692544 0
M  V30 6 C 2.048406 -2.595438 0.307217 0
M  V30 7 N 1.797297 -1.701013 -0.768476 0
M  V30 8 C 0.502236 -1.161801 -1.088860 0
M  V30 9 C 0.149615 0.083531 -0.568331 0
M  V30 10 C -1.088047 0.621453 -0.856198 0
M  V30 11 C -1.352215 1.855706 -0.307627 0
M  V30 12 C -0.483022 2.640365 0.555857 0
M  V30 13 C -0.266399 3.988840 0.262910 0
M  V30 14 N 0.557533 4.496331 1.202349 0
M  V30 15 N 0.876789 3.544200 2.076637 0
M  V30 16 C 1.745199 3.653180 3.257632 0
M  V30 17 C 0.257247 2.427341 1.697156 0
M  V30 18 C -2.602988 2.393328 -0.611260 0
M  V30 19 C -3.532058 1.739607 -1.411870 0
M  V30 20 C -3.201617 0.496444 -1.932941 0
M  V30 21 C -1.958581 -0.082406 -1.655850 0
M  V30 22 C -1.600771 -1.322933 -2.171269 0
M  V30 23 N -0.375432 -1.846667 -1.881333 0
M  V30 24 C 1.015048 -3.102255 1.061250 0
M  V30 25 C 1.131146 -3.976860 2.116842 0
M  V30 26 H 2.119442 -6.136587 5.294398 0
M  V30 27 H 1.316166 -6.773625 3.838971 0
M  V30 28 H 0.865208 -5.138813 4.469138 0
M  V30 29 H 4.520324 -4.206706 1.958522 0
M  V30 30 H 4.164111 -2.669582 0.123839 0
M  V30 31 H 2.579580 -1.396152 -1.385320 0
M  V30 32 H 0.873104 0.578156 0.041698 0
M  V30 33 H -0.595828 4.693100 -0.517575 0
M  V30 34 H 1.109063 3.505959 4.147550 0
M  V30 35 H 2.255516 4.624263 3.237640 0
M  V30 36 H 2.521473 2.859035 3.274091 0
M  V30 37 H 0.267013 1.449340 2.155816 0
M  V30 38 H -2.899965 3.372937 -0.218266 0
M  V30 39 H -4.484509 2.209668 -1.610090 0
M  V30 40 H -3.921117 -0.041104 -2.569441 0
M  V30 41 H -2.301981 -1.874501 -2.805931 0
M  V30 42 H -0.000267 -2.773841 0.788853 0
M  V30 43 H 0.304476 -4.361483 2.693268 0
M  V30 END ATOM
M  V30 BEGIN BOND
M  V30 1 1 1 2
M  V30 2 1 2 3
M  V30 3 2 3 4
M  V30 4 1 4 5
M  V30 5 2 5 6
M  V30 6 1 6 7
M  V30 7 1 7 8
M  V30 8 2 8 9
M  V30 9 1 9 10
M  V30 10 2 10 11
M  V30 11 1 11 12
M  V30 12 1 12 13
M  V30 13 2 13 14
M  V30 14 1 14 15
M  V30 15 1 15 16
M  V30 16 1 15 17
M  V30 17 1 11 18
M  V30 18 2 18 19
M  V30 19 1 19 20
M  V30 20 2 20 21
M  V30 21 1 21 22
M  V30 22 2 22 23
M  V30 23 1 6 24
M  V30 24 2 24 25
M  V30 25 1 25 3
M  V30 26 1 23 8
M  V30 27 1 21 10
M  V30 28 2 17 12
M  V30 29 1 1 26
M  V30 30 1 1 27
M  V30 31 1 1 28
M  V30 32 1 4 29
M  V30 33 1 5 30
M  V30 34 1 7 31
M  V30 35 1 9 32
M  V30 36 1 13 33
M  V30 37 1 16 34
M  V30 38 1 16 35
M  V30 39 1 16 36
M  V30 40 1 17 37
M  V30 41 1 18 38
M  V30 42 1 19 39
M  V30 43 1 20 40
M  V30 44 1 22 41
M  V30 45 1 24 42
M  V30 46 1 25 43
M  V30 END BOND
M  V30 END CTAB
M  END
>  <Dataset>  (536) 
ChEMBL_Kinases

>  <Ligand_Instance>  (536) 
nan

>  <PDB_ID>  (536) 
nan

>  <Standardized_SMILES>  (536) 
COc1ccc(Nc2cc3c(-c4cnn(C)c4)cccc3cn2)cc1

>  <Name>  (536) 
nan

>  <Pocket>  (536) 
nan

>  <ATP_Site>  (536) 
nan

>  <Peripheral>  (536) 
nan

>  <Num_H_Atoms_ProtBoundConf>  (536) 
nan

>  <Num_Resolved_Atoms>  (536) 
nan

>  <Num_Not_Resolved_Atoms>  (536) 
nan

$$$$
CHEMBL381028
     RDKit          3D

  0  0  0  0  0  0  0  0  0  0999 V3000
M  V30 BEGIN CTAB
M  V30 COUNTS 41 44 0 0 0
M  V30 BEGIN ATOM
M  V30 1 C 1.662963 -4.468399 -1.457477 0
M  V30 2 O 1.706346 -3.085744 -1.229402 0
M  V30 3 C 2.480751 -2.179762 -1.931256 0
M  V30 4 C 3.340338 -2.470317 -2.970419 0
M  V30 5 C 4.049915 -1.454433 -3.576782 0
M  V30 6 O 4.900171 -1.838049 -4.624203 0
M  V30 7 C 3.968622 -0.124953 -3.217224 0
M  V30 8 C 3.098220 0.158272 -2.167287 0
M  V30 9 C 2.375203 -0.837019 -1.541875 0
M  V30 10 C 1.480111 -0.453719 -0.450649 0
M  V30 11 C 0.212388 -1.023025 -0.504726 0
M  V30 12 C -0.740231 -0.740136 0.477355 0
M  V30 13 C -0.363324 0.121707 1.488820 0
M  V30 14 C 0.884313 0.709583 1.581057 0
M  V30 15 C 1.790230 0.399561 0.588902 0
M  V30 16 N 0.978042 1.545988 2.728316 0
M  V30 17 C -0.286203 1.487018 3.405607 0
M  V30 18 O -0.520655 2.119004 4.459525 0
M  V30 19 C -1.132119 0.594473 2.630924 0
M  V30 20 C -2.359273 0.328246 3.029671 0
M  V30 21 C -3.112012 0.811748 4.172592 0
M  V30 22 C -3.419225 1.981460 4.832064 0
M  V30 23 C -4.202428 1.746758 5.927952 0
M  V30 24 N -4.407085 0.425395 5.982918 0
M  V30 25 C -3.767694 -0.141225 4.950143 0
M  V30 26 H 0.676404 -4.693940 -1.951120 0
M  V30 27 H 2.439911 -4.844480 -2.121155 0
M  V30 28 H 1.703711 -4.943453 -0.440239 0
M  V30 29 H 3.426071 -3.488084 -3.268776 0
M  V30 30 H 5.695899 -2.470585 -4.428856 0
M  V30 31 H 4.555485 0.601866 -3.741418 0
M  V30 32 H 3.048084 1.207386 -1.897414 0
M  V30 33 H -0.181688 -1.713476 -1.264845 0
M  V30 34 H -1.741847 -1.157252 0.482495 0
M  V30 35 H 2.788203 0.810471 0.575362 0
M  V30 36 H 1.807520 2.114241 3.045447 0
M  V30 37 H -2.847245 -0.384891 2.340078 0
M  V30 38 H -3.051275 2.911396 4.442199 0
M  V30 39 H -4.554789 2.523808 6.583200 0
M  V30 40 H -4.984565 0.035048 6.748728 0
M  V30 41 H -3.844406 -1.216537 4.866852 0
M  V30 END ATOM
M  V30 BEGIN BOND
M  V30 1 1 1 2
M  V30 2 1 2 3
M  V30 3 2 3 4
M  V30 4 1 4 5
M  V30 5 1 5 6
M  V30 6 2 5 7
M  V30 7 1 7 8
M  V30 8 2 8 9
M  V30 9 1 9 10
M  V30 10 2 10 11
M  V30 11 1 11 12
M  V30 12 2 12 13
M  V30 13 1 13 14
M  V30 14 2 14 15
M  V30 15 1 14 16
M  V30 16 1 16 17
M  V30 17 2 17 18
M  V30 18 1 17 19
M  V30 19 2 19 20
M  V30 20 1 20 21
M  V30 21 1 21 22
M  V30 22 2 22 23
M  V30 23 1 23 24
M  V30 24 1 24 25
M  V30 25 1 9 3
M  V30 26 1 15 10
M  V30 27 2 25 21
M  V30 28 1 19 13
M  V30 29 1 1 26
M  V30 30 1 1 27
M  V30 31 1 1 28
M  V30 32 1 4 29
M  V30 33 1 6 30
M  V30 34 1 7 31
M  V30 35 1 8 32
M  V30 36 1 11 33
M  V30 37 1 12 34
M  V30 38 1 15 35
M  V30 39 1 16 36
M  V30 40 1 20 37
M  V30 41 1 22 38
M  V30 42 1 23 39
M  V30 43 1 24 40
M  V30 44 1 25 41
M  V30 END BOND
M  V30 END CTAB
M  END
>  <Dataset>  (537) 
ChEMBL_Kinases

>  <Ligand_Instance>  (537) 
nan

>  <PDB_ID>  (537) 
nan

>  <Standardized_SMILES>  (537) 
COc1cc(O)ccc1-c1ccc2c(c1)NC(=O)/C2=C\c1cc[nH]c1

>  <Name>  (537) 
nan

>  <Pocket>  (537) 
nan

>  <ATP_Site>  (537) 
nan

>  <Peripheral>  (537) 
nan

>  <Num_H_Atoms_ProtBoundConf>  (537) 
nan

>  <Num_Resolved_Atoms>  (537) 
nan

>  <Num_Not_Resolved_Atoms>  (537) 
nan

$$$$
CHEMBL496114
     RDKit          3D

  0  0  0  0  0  0  0  0  0  0999 V3000
M  V30 BEGIN CTAB
M  V30 COUNTS 41 44 0 0 0
M  V30 BEGIN ATOM
M  V30 1 N 0.739656 -5.473644 5.171029 0
M  V30 2 C 1.082195 -4.666618 4.413882 0
M  V30 3 C 1.518808 -3.683384 3.462947 0
M  V30 4 C 0.707634 -3.355379 2.370946 0
M  V30 5 C 1.167685 -2.404173 1.481695 0
M  V30 6 C 2.382447 -1.766110 1.619196 0
M  V30 7 C 2.889740 -0.756113 0.698689 0
M  V30 8 C 4.206851 -0.847027 0.267002 0
M  V30 9 N 4.406352 0.205525 -0.565251 0
M  V30 10 C 3.261485 0.869894 -0.610806 0
M  V30 11 C 2.907572 2.010678 -1.294858 0
M  V30 12 C 1.630206 2.491515 -1.155544 0
M  V30 13 C 0.646422 1.896446 -0.355790 0
M  V30 14 N -0.648933 2.474683 -0.256012 0
M  V30 15 C -1.803350 2.031743 0.444088 0
M  V30 16 C -2.469519 0.798051 -0.045934 0
M  V30 17 C -1.690522 -0.462569 -0.005371 0
M  V30 18 C -2.839512 -1.485010 -0.080142 0
M  V30 19 C -3.862227 -0.777010 0.779132 0
M  V30 20 O -3.567584 0.553788 0.772392 0
M  V30 21 N 1.068369 0.788668 0.278330 0
M  V30 22 N 2.287093 0.335487 0.141326 0
M  V30 23 C 3.167933 -2.119271 2.723501 0
M  V30 24 C 2.731143 -3.067342 3.627274 0
M  V30 25 H -0.257434 -3.823533 2.210339 0
M  V30 26 H 0.619394 -2.094948 0.622876 0
M  V30 27 H 4.979210 -1.558941 0.487563 0
M  V30 28 H 3.614792 2.520096 -1.928402 0
M  V30 29 H 1.398451 3.402806 -1.721207 0
M  V30 30 H -0.750668 3.379557 -0.797645 0
M  V30 31 H -2.582031 2.842351 0.398567 0
M  V30 32 H -1.591360 1.961789 1.550290 0
M  V30 33 H -2.814667 0.970548 -1.087690 0
M  V30 34 H -1.228563 -0.625007 0.968095 0
M  V30 35 H -1.007575 -0.605084 -0.867081 0
M  V30 36 H -3.160275 -1.547870 -1.120840 0
M  V30 37 H -2.526214 -2.451799 0.360347 0
M  V30 38 H -3.693093 -1.146252 1.828904 0
M  V30 39 H -4.902185 -1.006805 0.465903 0
M  V30 40 H 4.127163 -1.626685 2.847023 0
M  V30 41 H 3.407947 -3.279102 4.456320 0
M  V30 END ATOM
M  V30 BEGIN BOND
M  V30 1 3 1 2
M  V30 2 1 2 3
M  V30 3 2 3 4
M  V30 4 1 4 5
M  V30 5 2 5 6
M  V30 6 1 6 7
M  V30 7 2 7 8
M  V30 8 1 8 9
M  V30 9 2 9 10
M  V30 10 1 10 11
M  V30 11 2 11 12
M  V30 12 1 12 13
M  V30 13 1 13 14
M  V30 14 1 14 15
M  V30 15 1 15 16
M  V30 16 1 16 17
M  V30 17 1 17 18
M  V30 18 1 18 19
M  V30 19 1 19 20
M  V30 20 2 13 21
M  V30 21 1 21 22
M  V30 22 1 6 23
M  V30 23 2 23 24
M  V30 24 1 24 3
M  V30 25 1 22 7
M  V30 26 1 22 10
M  V30 27 1 20 16
M  V30 28 1 4 25
M  V30 29 1 5 26
M  V30 30 1 8 27
M  V30 31 1 11 28
M  V30 32 1 12 29
M  V30 33 1 14 30
M  V30 34 1 15 31
M  V30 35 1 15 32
M  V30 36 1 16 33
M  V30 37 1 17 34
M  V30 38 1 17 35
M  V30 39 1 18 36
M  V30 40 1 18 37
M  V30 41 1 19 38
M  V30 42 1 19 39
M  V30 43 1 23 40
M  V30 44 1 24 41
M  V30 END BOND
M  V30 END CTAB
M  END
>  <Dataset>  (538) 
ChEMBL_Kinases

>  <Ligand_Instance>  (538) 
nan

>  <PDB_ID>  (538) 
nan

>  <Standardized_SMILES>  (538) 
N#Cc1ccc(-c2cnc3ccc(NCC4CCCO4)nn23)cc1

>  <Name>  (538) 
nan

>  <Pocket>  (538) 
nan

>  <ATP_Site>  (538) 
nan

>  <Peripheral>  (538) 
nan

>  <Num_H_Atoms_ProtBoundConf>  (538) 
nan

>  <Num_Resolved_Atoms>  (538) 
nan

>  <Num_Not_Resolved_Atoms>  (538) 
nan

$$$$
CHEMBL3810265
     RDKit          3D

  0  0  0  0  0  0  0  0  0  0999 V3000
M  V30 BEGIN CTAB
M  V30 COUNTS 52 56 0 0 0
M  V30 BEGIN ATOM
M  V30 1 C 3.518635 -3.051942 0.858120 0
M  V30 2 O 2.345701 -2.264429 0.846996 0
M  V30 3 C 2.480022 -0.895219 0.666096 0
M  V30 4 C 3.714400 -0.320669 0.502601 0
M  V30 5 C 3.881802 1.034272 0.321085 0
M  V30 6 C 5.253039 1.501243 0.160716 0
M  V30 7 C 5.727156 2.573143 -0.567923 0
M  V30 8 N 7.062353 2.649142 -0.444115 0
M  V30 9 N 7.466654 1.652318 0.347436 0
M  V30 10 C 8.828376 1.346246 0.757195 0
M  V30 11 C 6.383308 0.930163 0.735364 0
M  V30 12 C 2.753584 1.803972 0.308997 0
M  V30 13 C 1.518058 1.213944 0.474482 0
M  V30 14 C 1.304132 -0.135118 0.658699 0
M  V30 15 N 0.029501 -0.695352 0.822997 0
M  V30 16 C -1.232632 -0.087723 0.841649 0
M  V30 17 N -1.468459 1.222102 0.698066 0
M  V30 18 C -2.677531 1.790593 0.717435 0
M  V30 19 C -3.764494 0.966721 0.898919 0
M  V30 20 C -5.037657 1.446792 0.934070 0
M  V30 21 C -6.081055 0.561943 1.120049 0
M  V30 22 N -5.876205 -0.764516 1.267989 0
M  V30 23 C -4.631804 -1.271042 1.238201 0
M  V30 24 O -4.332045 -2.599085 1.379246 0
M  V30 25 C -5.238997 -3.642557 1.574753 0
M  V30 26 C -6.234219 -3.765297 0.438370 0
M  V30 27 C -5.780215 -4.023455 -0.944284 0
M  V30 28 C -6.425698 -5.117284 -0.164759 0
M  V30 29 C -3.576541 -0.386207 1.051352 0
M  V30 30 N -2.323674 -0.851546 1.016076 0
M  V30 31 H 3.187826 -4.106164 0.965915 0
M  V30 32 H 4.220119 -2.771996 1.668803 0
M  V30 33 H 4.055254 -2.884905 -0.096883 0
M  V30 34 H 4.580551 -0.993559 0.522101 0
M  V30 35 H 5.068484 3.214259 -1.130741 0
M  V30 36 H 9.492847 2.119555 0.317869 0
M  V30 37 H 8.917074 1.276226 1.857925 0
M  V30 38 H 9.142995 0.347792 0.369959 0
M  V30 39 H 6.404163 0.050775 1.388346 0
M  V30 40 H 2.907855 2.866043 0.164999 0
M  V30 41 H 0.723739 1.925480 0.444784 0
M  V30 42 H 0.056628 -1.752906 0.952034 0
M  V30 43 H -2.803451 2.858505 0.595490 0
M  V30 44 H -5.220907 2.509878 0.816881 0
M  V30 45 H -7.117947 0.900782 1.155056 0
M  V30 46 H -4.647520 -4.572028 1.733790 0
M  V30 47 H -5.817982 -3.446541 2.503886 0
M  V30 48 H -7.144941 -3.141247 0.552110 0
M  V30 49 H -6.310169 -3.520804 -1.783174 0
M  V30 50 H -4.700718 -4.182246 -1.174475 0
M  V30 51 H -5.805650 -5.966765 0.198405 0
M  V30 52 H -7.409405 -5.447827 -0.555270 0
M  V30 END ATOM
M  V30 BEGIN BOND
M  V30 1 1 1 2
M  V30 2 1 2 3
M  V30 3 2 3 4
M  V30 4 1 4 5
M  V30 5 1 5 6
M  V30 6 1 6 7
M  V30 7 2 7 8
M  V30 8 1 8 9
M  V30 9 1 9 10
M  V30 10 1 9 11
M  V30 11 2 5 12
M  V30 12 1 12 13
M  V30 13 2 13 14
M  V30 14 1 14 15
M  V30 15 1 15 16
M  V30 16 2 16 17
M  V30 17 1 17 18
M  V30 18 2 18 19
M  V30 19 1 19 20
M  V30 20 2 20 21
M  V30 21 1 21 22
M  V30 22 2 22 23
M  V30 23 1 23 24
M  V30 24 1 24 25
M  V30 25 1 25 26
M  V30 26 1 26 27
M  V30 27 1 27 28
M  V30 28 1 23 29
M  V30 29 2 29 30
M  V30 30 1 14 3
M  V30 31 1 30 16
M  V30 32 2 11 6
M  V30 33 1 29 19
M  V30 34 1 28 26
M  V30 35 1 1 31
M  V30 36 1 1 32
M  V30 37 1 1 33
M  V30 38 1 4 34
M  V30 39 1 7 35
M  V30 40 1 10 36
M  V30 41 1 10 37
M  V30 42 1 10 38
M  V30 43 1 11 39
M  V30 44 1 12 40
M  V30 45 1 13 41
M  V30 46 1 15 42
M  V30 47 1 18 43
M  V30 48 1 20 44
M  V30 49 1 21 45
M  V30 50 1 25 46
M  V30 51 1 25 47
M  V30 52 1 26 48
M  V30 53 1 27 49
M  V30 54 1 27 50
M  V30 55 1 28 51
M  V30 56 1 28 52
M  V30 END BOND
M  V30 END CTAB
M  END
>  <Dataset>  (539) 
ChEMBL_Kinases

>  <Ligand_Instance>  (539) 
nan

>  <PDB_ID>  (539) 
nan

>  <Standardized_SMILES>  (539) 
COc1cc(-c2cnn(C)c2)ccc1Nc1ncc2ccnc(OCC3CC3)c2n1

>  <Name>  (539) 
nan

>  <Pocket>  (539) 
nan

>  <ATP_Site>  (539) 
nan

>  <Peripheral>  (539) 
nan

>  <Num_H_Atoms_ProtBoundConf>  (539) 
nan

>  <Num_Resolved_Atoms>  (539) 
nan

>  <Num_Not_Resolved_Atoms>  (539) 
nan

$$$$
CHEMBL3810250
     RDKit          3D

  0  0  0  0  0  0  0  0  0  0999 V3000
M  V30 BEGIN CTAB
M  V30 COUNTS 46 49 0 0 0
M  V30 BEGIN ATOM
M  V30 1 C -0.041323 -1.538932 4.398913 0
M  V30 2 C 0.171431 -2.505351 3.292429 0
M  V30 3 C 0.590760 -1.976790 2.164295 0
M  V30 4 C 0.899805 -0.623434 1.770191 0
M  V30 5 O 1.307429 -0.306271 0.593012 0
M  V30 6 N 0.913216 0.683710 2.313552 0
M  V30 7 C 1.324042 1.742687 1.455596 0
M  V30 8 C 2.702830 1.962757 1.518052 0
M  V30 9 C 3.295426 2.961980 0.746666 0
M  V30 10 C 2.481366 3.727393 -0.080242 0
M  V30 11 N 2.710649 4.731950 -0.923957 0
M  V30 12 N 1.574354 5.137687 -1.493469 0
M  V30 13 C 0.549562 4.379952 -1.015612 0
M  V30 14 C 1.105633 3.485534 -0.122903 0
M  V30 15 C 0.510404 2.499992 0.635923 0
M  V30 16 C 0.751810 -2.889292 1.013261 0
M  V30 17 C -0.254905 -2.629988 -0.054908 0
M  V30 18 C -0.146756 -3.509495 -1.125640 0
M  V30 19 C -1.034124 -3.391078 -2.198333 0
M  V30 20 C -2.025351 -2.416246 -2.226420 0
M  V30 21 F -2.896889 -2.277051 -3.248543 0
M  V30 22 C -2.104317 -1.564881 -1.153728 0
M  V30 23 C -3.123047 -0.522859 -1.126858 0
M  V30 24 O -3.904828 -0.447227 -2.112209 0
M  V30 25 O -3.229433 0.353376 -0.057789 0
M  V30 26 C -1.242043 -1.676683 -0.106451 0
M  V30 27 N 0.685735 -4.265100 1.340944 0
M  V30 28 C 0.225354 -4.859244 2.544515 0
M  V30 29 O 0.060685 -6.089038 2.715594 0
M  V30 30 N -0.030206 -3.885370 3.545113 0
M  V30 31 H -0.415609 -2.117160 5.303849 0
M  V30 32 H -0.872014 -0.832263 4.218582 0
M  V30 33 H 0.887257 -1.076296 4.777810 0
M  V30 34 H 0.603538 0.649959 3.307891 0
M  V30 35 H 3.390023 1.412386 2.131590 0
M  V30 36 H 4.357113 3.147300 0.780761 0
M  V30 37 H 3.671699 5.104153 -1.073490 0
M  V30 38 H -0.499003 4.439370 -1.263216 0
M  V30 39 H -0.529012 2.261985 0.652464 0
M  V30 40 H 1.746975 -2.685910 0.526417 0
M  V30 41 H 0.532007 -4.328678 -1.318426 0
M  V30 42 H -1.047477 -4.022674 -3.094088 0
M  V30 43 H -4.124417 0.798629 0.144699 0
M  V30 44 H -1.295481 -1.031072 0.732719 0
M  V30 45 H 1.027918 -4.882812 0.572776 0
M  V30 46 H -0.372492 -4.176076 4.486569 0
M  V30 END ATOM
M  V30 BEGIN BOND
M  V30 1 1 1 2
M  V30 2 2 2 3
M  V30 3 1 3 4
M  V30 4 2 4 5
M  V30 5 1 4 6
M  V30 6 1 6 7
M  V30 7 2 7 8
M  V30 8 1 8 9
M  V30 9 2 9 10
M  V30 10 1 10 11
M  V30 11 1 11 12
M  V30 12 2 12 13
M  V30 13 1 13 14
M  V30 14 2 14 15
M  V30 15 1 3 16
M  V30 16 1 16 17
M  V30 17 2 17 18
M  V30 18 1 18 19
M  V30 19 2 19 20
M  V30 20 1 20 21
M  V30 21 1 20 22
M  V30 22 1 22 23
M  V30 23 2 23 24
M  V30 24 1 23 25
M  V30 25 2 22 26
M  V30 26 1 16 27
M  V30 27 1 27 28
M  V30 28 2 28 29
M  V30 29 1 28 30
M  V30 30 1 30 2
M  V30 31 1 15 7
M  V30 32 1 26 17
M  V30 33 1 14 10
M  V30 34 1 1 31
M  V30 35 1 1 32
M  V30 36 1 1 33
M  V30 37 1 6 34
M  V30 38 1 8 35
M  V30 39 1 9 36
M  V30 40 1 11 37
M  V30 41 1 13 38
M  V30 42 1 15 39
M  V30 43 1 16 40
M  V30 44 1 18 41
M  V30 45 1 19 42
M  V30 46 1 25 43
M  V30 47 1 26 44
M  V30 48 1 27 45
M  V30 49 1 30 46
M  V30 END BOND
M  V30 END CTAB
M  END
>  <Dataset>  (540) 
ChEMBL_Kinases

>  <Ligand_Instance>  (540) 
nan

>  <PDB_ID>  (540) 
nan

>  <Standardized_SMILES>  (540) 
CC1=C(C(=O)Nc2ccc3[nH]ncc3c2)C(c2ccc(F)c(C(=O)O)c2)NC(=O)N1

>  <Name>  (540) 
nan

>  <Pocket>  (540) 
nan

>  <ATP_Site>  (540) 
nan

>  <Peripheral>  (540) 
nan

>  <Num_H_Atoms_ProtBoundConf>  (540) 
nan

>  <Num_Resolved_Atoms>  (540) 
nan

>  <Num_Not_Resolved_Atoms>  (540) 
nan

$$$$
CHEMBL3810175
     RDKit          3D

  0  0  0  0  0  0  0  0  0  0999 V3000
M  V30 BEGIN CTAB
M  V30 COUNTS 45 48 0 0 0
M  V30 BEGIN ATOM
M  V30 1 C 2.615892 -5.518880 -2.626714 0
M  V30 2 O 1.357049 -5.035064 -2.944216 0
M  V30 3 C 0.782522 -3.897220 -2.373902 0
M  V30 4 C 1.634229 -3.316805 -1.451854 0
M  V30 5 C 1.214545 -2.123134 -0.758469 0
M  V30 6 C -0.065114 -1.642610 -1.097982 0
M  V30 7 N -0.628324 -0.456223 -0.526681 0
M  V30 8 C 0.091365 0.415767 0.322939 0
M  V30 9 N 0.910127 1.037688 -0.528323 0
M  V30 10 C 1.815046 1.979259 -0.215110 0
M  V30 11 C 1.933283 2.363719 1.099583 0
M  V30 12 C 2.785186 3.294954 1.626569 0
M  V30 13 C 2.866111 3.652208 2.988455 0
M  V30 14 N 2.007075 2.974546 3.770042 0
M  V30 15 C 1.159776 2.053862 3.291604 0
M  V30 16 C 0.347556 1.472877 4.391422 0
M  V30 17 C 0.713363 1.042665 5.691915 0
M  V30 18 N -0.437058 0.612980 6.236057 0
M  V30 19 N -1.435380 0.755755 5.369211 0
M  V30 20 C -2.824498 0.406484 5.590489 0
M  V30 21 C -1.005199 1.283468 4.211048 0
M  V30 22 C 1.103367 1.737540 1.989600 0
M  V30 23 N 0.220523 0.798271 1.597159 0
M  V30 24 C -0.841749 -2.293755 -2.031052 0
M  V30 25 O -2.002001 -1.849738 -2.334519 0
M  V30 26 C -3.187589 -1.412467 -2.656941 0
M  V30 27 C -0.493384 -3.372776 -2.673406 0
M  V30 28 H 2.745297 -6.491822 -3.170985 0
M  V30 29 H 3.464912 -4.890183 -2.927095 0
M  V30 30 H 2.719650 -5.765583 -1.534732 0
M  V30 31 H 2.616801 -3.682329 -1.206945 0
M  V30 32 H 1.778041 -1.581846 -0.017970 0
M  V30 33 H -1.586277 -0.134494 -0.682287 0
M  V30 34 H 2.495718 2.511820 -0.884566 0
M  V30 35 H 3.411273 3.738718 0.844714 0
M  V30 36 H 3.630191 4.399357 3.100718 0
M  V30 37 H 1.771747 1.193254 5.818319 0
M  V30 38 H -3.409413 0.489676 4.658424 0
M  V30 39 H -2.850711 -0.675042 5.853749 0
M  V30 40 H -3.269264 1.043316 6.385139 0
M  V30 41 H -1.615668 1.491157 3.366744 0
M  V30 42 H -3.518957 -0.420621 -2.235209 0
M  V30 43 H -3.316937 -1.384892 -3.809286 0
M  V30 44 H -4.017997 -2.122701 -2.330290 0
M  V30 45 H -0.856293 -4.054165 -3.465220 0
M  V30 END ATOM
M  V30 BEGIN BOND
M  V30 1 1 1 2
M  V30 2 1 2 3
M  V30 3 2 3 4
M  V30 4 1 4 5
M  V30 5 2 5 6
M  V30 6 1 6 7
M  V30 7 1 7 8
M  V30 8 2 8 9
M  V30 9 1 9 10
M  V30 10 2 10 11
M  V30 11 1 11 12
M  V30 12 2 12 13
M  V30 13 1 13 14
M  V30 14 2 14 15
M  V30 15 1 15 16
M  V30 16 1 16 17
M  V30 17 2 17 18
M  V30 18 1 18 19
M  V30 19 1 19 20
M  V30 20 1 19 21
M  V30 21 1 15 22
M  V30 22 2 22 23
M  V30 23 1 6 24
M  V30 24 1 24 25
M  V30 25 1 25 26
M  V30 26 2 24 27
M  V30 27 1 27 3
M  V30 28 1 23 8
M  V30 29 1 22 11
M  V30 30 2 21 16
M  V30 31 1 1 28
M  V30 32 1 1 29
M  V30 33 1 1 30
M  V30 34 1 4 31
M  V30 35 1 5 32
M  V30 36 1 7 33
M  V30 37 1 10 34
M  V30 38 1 12 35
M  V30 39 1 13 36
M  V30 40 1 17 37
M  V30 41 1 20 38
M  V30 42 1 20 39
M  V30 43 1 20 40
M  V30 44 1 21 41
M  V30 45 1 26 42
M  V30 46 1 26 43
M  V30 47 1 26 44
M  V30 48 1 27 45
M  V30 END BOND
M  V30 END CTAB
M  END
>  <Dataset>  (541) 
ChEMBL_Kinases

>  <Ligand_Instance>  (541) 
nan

>  <PDB_ID>  (541) 
nan

>  <Standardized_SMILES>  (541) 
COc1ccc(Nc2ncc3ccnc(-c4cnn(C)c4)c3n2)c(OC)c1

>  <Name>  (541) 
nan

>  <Pocket>  (541) 
nan

>  <ATP_Site>  (541) 
nan

>  <Peripheral>  (541) 
nan

>  <Num_H_Atoms_ProtBoundConf>  (541) 
nan

>  <Num_Resolved_Atoms>  (541) 
nan

>  <Num_Not_Resolved_Atoms>  (541) 
nan

$$$$
CHEMBL496124
     RDKit          3D

  0  0  0  0  0  0  0  0  0  0999 V3000
M  V30 BEGIN CTAB
M  V30 COUNTS 46 49 0 0 0
M  V30 BEGIN ATOM
M  V30 1 C -1.733106 1.965735 4.199850 0
M  V30 2 N -0.611741 1.186753 3.658777 0
M  V30 3 C -0.273186 0.084167 4.538278 0
M  V30 4 C 0.806434 -0.758899 3.954137 0
M  V30 5 C 2.161630 -0.639192 4.099705 0
M  V30 6 C 2.995487 -1.532497 3.472902 0
M  V30 7 C 2.544981 -2.561943 2.691479 0
M  V30 8 F 3.365511 -3.435364 2.079726 0
M  V30 9 C 1.189425 -2.692618 2.537630 0
M  V30 10 C 0.322695 -1.801713 3.161118 0
M  V30 11 C 0.154954 1.345269 2.457657 0
M  V30 12 C 1.156486 2.274272 2.693789 0
M  V30 13 C 2.039522 2.589093 1.657317 0
M  V30 14 C 1.851122 1.945406 0.456370 0
M  V30 15 N 2.526625 2.026851 -0.718192 0
M  V30 16 C 1.926581 1.178591 -1.571317 0
M  V30 17 C 0.865365 0.549891 -0.949819 0
M  V30 18 C 0.053506 -0.426831 -1.664420 0
M  V30 19 C 0.784299 -1.370345 -2.397693 0
M  V30 20 C 0.220543 -2.394432 -3.159762 0
M  V30 21 C -1.158074 -2.455332 -3.171964 0
M  V30 22 C -1.730616 -3.529736 -3.970715 0
M  V30 23 N -3.131732 -3.674851 -4.109337 0
M  V30 24 O -1.004396 -4.346755 -4.552189 0
M  V30 25 C -1.908573 -1.543559 -2.462323 0
M  V30 26 C -1.320176 -0.543001 -1.718368 0
M  V30 27 N 0.857194 1.047834 0.283185 0
M  V30 28 N 0.015527 0.747462 1.268716 0
M  V30 29 H -1.417891 2.495193 5.145101 0
M  V30 30 H -2.604591 1.349341 4.448642 0
M  V30 31 H -2.016907 2.764175 3.482498 0
M  V30 32 H 0.054689 0.471892 5.550828 0
M  V30 33 H -1.196209 -0.496844 4.691009 0
M  V30 34 H 2.470150 0.172584 4.713796 0
M  V30 35 H 4.064829 -1.429679 3.593656 0
M  V30 36 H 0.789179 -3.483744 1.935893 0
M  V30 37 H -0.749285 -1.975856 2.987107 0
M  V30 38 H 1.375272 2.823248 3.600352 0
M  V30 39 H 2.853665 3.316242 1.779442 0
M  V30 40 H 2.331049 1.097712 -2.592948 0
M  V30 41 H 1.876837 -1.349615 -2.408813 0
M  V30 42 H 0.827298 -3.085721 -3.698344 0
M  V30 43 H -3.842009 -3.921068 -4.827937 0
M  V30 44 H -4.065319 -3.622720 -3.652087 0
M  V30 45 H -2.986836 -1.606072 -2.483424 0
M  V30 46 H -1.841912 0.200204 -1.141407 0
M  V30 END ATOM
M  V30 BEGIN BOND
M  V30 1 1 1 2
M  V30 2 1 2 3
M  V30 3 1 3 4
M  V30 4 2 4 5
M  V30 5 1 5 6
M  V30 6 2 6 7
M  V30 7 1 7 8
M  V30 8 1 7 9
M  V30 9 2 9 10
M  V30 10 1 2 11
M  V30 11 1 11 12
M  V30 12 2 12 13
M  V30 13 1 13 14
M  V30 14 2 14 15
M  V30 15 1 15 16
M  V30 16 2 16 17
M  V30 17 1 17 18
M  V30 18 2 18 19
M  V30 19 1 19 20
M  V30 20 2 20 21
M  V30 21 1 21 22
M  V30 22 1 22 23
M  V30 23 2 22 24
M  V30 24 1 21 25
M  V30 25 2 25 26
M  V30 26 1 17 27
M  V30 27 1 27 28
M  V30 28 1 10 4
M  V30 29 2 28 11
M  V30 30 1 27 14
M  V30 31 1 26 18
M  V30 32 1 1 29
M  V30 33 1 1 30
M  V30 34 1 1 31
M  V30 35 1 3 32
M  V30 36 1 3 33
M  V30 37 1 5 34
M  V30 38 1 6 35
M  V30 39 1 9 36
M  V30 40 1 10 37
M  V30 41 1 12 38
M  V30 42 1 13 39
M  V30 43 1 16 40
M  V30 44 1 19 41
M  V30 45 1 20 42
M  V30 46 1 23 43
M  V30 47 1 23 44
M  V30 48 1 25 45
M  V30 49 1 26 46
M  V30 END BOND
M  V30 END CTAB
M  END
>  <Dataset>  (542) 
ChEMBL_Kinases

>  <Ligand_Instance>  (542) 
nan

>  <PDB_ID>  (542) 
nan

>  <Standardized_SMILES>  (542) 
CN(Cc1ccc(F)cc1)c1ccc2ncc(-c3ccc(C(N)=O)cc3)n2n1

>  <Name>  (542) 
nan

>  <Pocket>  (542) 
nan

>  <ATP_Site>  (542) 
nan

>  <Peripheral>  (542) 
nan

>  <Num_H_Atoms_ProtBoundConf>  (542) 
nan

>  <Num_Resolved_Atoms>  (542) 
nan

>  <Num_Not_Resolved_Atoms>  (542) 
nan

$$$$
CHEMBL496145
     RDKit          3D

  0  0  0  0  0  0  0  0  0  0999 V3000
M  V30 BEGIN CTAB
M  V30 COUNTS 50 53 0 0 0
M  V30 BEGIN ATOM
M  V30 1 C 3.651600 0.398550 3.730947 0
M  V30 2 N 4.066147 -0.917333 3.399935 0
M  V30 3 C 3.640022 -1.973840 4.234949 0
M  V30 4 C 4.111797 -3.348408 3.861103 0
M  V30 5 O 5.492844 -3.445940 3.862418 0
M  V30 6 C 4.135904 -1.147981 2.004759 0
M  V30 7 C 2.807554 -0.897893 1.387952 0
M  V30 8 C 2.558952 0.405200 0.939577 0
M  V30 9 C 1.376684 0.794242 0.345828 0
M  V30 10 N 0.397692 -0.111865 0.179487 0
M  V30 11 C -0.845468 -0.086240 -0.343412 0
M  V30 12 C -1.473083 1.098276 -0.918301 0
M  V30 13 C -1.717599 2.237650 -0.182597 0
M  V30 14 C -2.304066 3.393021 -0.652142 0
M  V30 15 N -2.668638 3.388857 -1.967413 0
M  V30 16 C -2.438482 2.274021 -2.720053 0
M  V30 17 N -2.770437 2.145381 -4.095237 0
M  V30 18 N -1.861522 1.164839 -2.218955 0
M  V30 19 C -1.440962 -1.349056 -0.256006 0
M  V30 20 C -2.783100 -1.673079 -0.727416 0
M  V30 21 C -3.930223 -1.094996 -0.220118 0
M  V30 22 C -5.175523 -1.459609 -0.724787 0
M  V30 23 C -5.220052 -2.395793 -1.724861 0
M  V30 24 F -6.467062 -2.701491 -2.166735 0
M  V30 25 C -4.072547 -2.975225 -2.233562 0
M  V30 26 C -2.822392 -2.616853 -1.735079 0
M  V30 27 N -0.508793 -2.100252 0.330009 0
M  V30 28 C 0.595103 -1.375403 0.596156 0
M  V30 29 C 1.770584 -1.786116 1.192872 0
M  V30 30 H 3.759676 0.635764 4.810000 0
M  V30 31 H 4.321695 1.120521 3.193971 0
M  V30 32 H 2.622620 0.633447 3.389366 0
M  V30 33 H 3.848159 -1.835988 5.305566 0
M  V30 34 H 2.512426 -2.004883 4.169473 0
M  V30 35 H 3.748093 -4.026492 4.680171 0
M  V30 36 H 3.650972 -3.749333 2.943425 0
M  V30 37 H 5.933174 -2.618736 4.212034 0
M  V30 38 H 4.879218 -0.475017 1.518003 0
M  V30 39 H 4.444529 -2.173404 1.724924 0
M  V30 40 H 3.291534 1.209246 1.030264 0
M  V30 41 H 1.205626 1.806630 0.006613 0
M  V30 42 H -1.425678 2.239687 0.868906 0
M  V30 43 H -2.476139 4.261200 -0.040488 0
M  V30 44 H -3.672667 1.730274 -4.409913 0
M  V30 45 H -3.725972 1.698208 -4.032961 0
M  V30 46 H -3.835711 -0.366320 0.563863 0
M  V30 47 H -6.055428 -0.971375 -0.288225 0
M  V30 48 H -4.235975 -3.707874 -3.028054 0
M  V30 49 H -1.964176 -3.100247 -2.168432 0
M  V30 50 H 1.970613 -2.789408 1.541441 0
M  V30 END ATOM
M  V30 BEGIN BOND
M  V30 1 1 1 2
M  V30 2 1 2 3
M  V30 3 1 3 4
M  V30 4 1 4 5
M  V30 5 1 2 6
M  V30 6 1 6 7
M  V30 7 1 7 8
M  V30 8 2 8 9
M  V30 9 1 9 10
M  V30 10 1 10 11
M  V30 11 1 11 12
M  V30 12 2 12 13
M  V30 13 1 13 14
M  V30 14 2 14 15
M  V30 15 1 15 16
M  V30 16 1 16 17
M  V30 17 2 16 18
M  V30 18 2 11 19
M  V30 19 1 19 20
M  V30 20 2 20 21
M  V30 21 1 21 22
M  V30 22 2 22 23
M  V30 23 1 23 24
M  V30 24 1 23 25
M  V30 25 2 25 26
M  V30 26 1 19 27
M  V30 27 2 27 28
M  V30 28 1 28 29
M  V30 29 2 29 7
M  V30 30 1 28 10
M  V30 31 1 18 12
M  V30 32 1 26 20
M  V30 33 1 1 30
M  V30 34 1 1 31
M  V30 35 1 1 32
M  V30 36 1 3 33
M  V30 37 1 3 34
M  V30 38 1 4 35
M  V30 39 1 4 36
M  V30 40 1 5 37
M  V30 41 1 6 38
M  V30 42 1 6 39
M  V30 43 1 8 40
M  V30 44 1 9 41
M  V30 45 1 13 42
M  V30 46 1 14 43
M  V30 47 1 17 44
M  V30 48 1 17 45
M  V30 49 1 21 46
M  V30 50 1 22 47
M  V30 51 1 25 48
M  V30 52 1 26 49
M  V30 53 1 29 50
M  V30 END BOND
M  V30 END CTAB
M  END
>  <Dataset>  (543) 
ChEMBL_Kinases

>  <Ligand_Instance>  (543) 
nan

>  <PDB_ID>  (543) 
nan

>  <Standardized_SMILES>  (543) 
CN(CCO)Cc1ccn2c(-c3ccnc(N)n3)c(-c3ccc(F)cc3)nc2c1

>  <Name>  (543) 
nan

>  <Pocket>  (543) 
nan

>  <ATP_Site>  (543) 
nan

>  <Peripheral>  (543) 
nan

>  <Num_H_Atoms_ProtBoundConf>  (543) 
nan

>  <Num_Resolved_Atoms>  (543) 
nan

>  <Num_Not_Resolved_Atoms>  (543) 
nan

$$$$
CHEMBL496148
     RDKit          3D

  0  0  0  0  0  0  0  0  0  0999 V3000
M  V30 BEGIN CTAB
M  V30 COUNTS 49 52 0 0 0
M  V30 BEGIN ATOM
M  V30 1 C -4.503273 -0.565781 3.430104 0
M  V30 2 C -3.646736 -1.569113 2.738629 0
M  V30 3 C -2.367945 -0.997453 2.192455 0
M  V30 4 C -1.941652 0.309150 2.309906 0
M  V30 5 C -0.735556 0.689306 1.758397 0
M  V30 6 N 0.015012 -0.245380 1.103225 0
M  V30 7 C 1.221317 -0.078698 0.495942 0
M  V30 8 C 2.010561 1.147278 0.395681 0
M  V30 9 C 3.258190 1.112944 1.022650 0
M  V30 10 C 4.012391 2.262011 0.937238 0
M  V30 11 N 3.583703 3.372917 0.285204 0
M  V30 12 C 2.358590 3.361438 -0.312790 0
M  V30 13 N 1.811935 4.475986 -1.025725 0
M  V30 14 N 1.579950 2.249123 -0.253738 0
M  V30 15 C 1.605016 -1.313667 -0.039877 0
M  V30 16 C 2.841389 -1.634308 -0.789792 0
M  V30 17 C 3.156713 -1.051393 -2.011238 0
M  V30 18 C 4.337546 -1.417945 -2.634614 0
M  V30 19 C 5.183707 -2.344384 -2.052908 0
M  V30 20 F 6.339969 -2.691725 -2.681616 0
M  V30 21 C 4.878177 -2.927093 -0.841980 0
M  V30 22 C 3.689756 -2.570899 -0.194596 0
M  V30 23 N 0.611087 -2.174421 0.267875 0
M  V30 24 C -0.362722 -1.539931 0.962672 0
M  V30 25 C -1.579226 -1.910293 1.522244 0
M  V30 26 N -4.244553 -2.346350 1.730457 0
M  V30 27 C -4.828029 -1.728383 0.615059 0
M  V30 28 C -4.513369 -3.709161 1.977389 0
M  V30 29 H -4.086156 -0.383581 4.447022 0
M  V30 30 H -5.497930 -1.015889 3.573179 0
M  V30 31 H -4.648841 0.372213 2.859249 0
M  V30 32 H -3.304458 -2.289548 3.544286 0
M  V30 33 H -2.607824 0.960346 2.844479 0
M  V30 34 H -0.409863 1.702834 1.852135 0
M  V30 35 H 3.592437 0.217708 1.542592 0
M  V30 36 H 4.980891 2.253011 1.416530 0
M  V30 37 H 1.694166 5.356805 -0.445647 0
M  V30 38 H 1.550989 4.426138 -2.036838 0
M  V30 39 H 2.427466 -0.348796 -2.362600 0
M  V30 40 H 4.552407 -0.940760 -3.590422 0
M  V30 41 H 5.539298 -3.656405 -0.376287 0
M  V30 42 H 3.505652 -3.059012 0.747976 0
M  V30 43 H -1.852880 -2.937525 1.396533 0
M  V30 44 H -4.042471 -1.523966 -0.142139 0
M  V30 45 H -5.324396 -0.762532 0.826866 0
M  V30 46 H -5.531945 -2.462143 0.142327 0
M  V30 47 H -5.561494 -3.854465 2.262258 0
M  V30 48 H -3.850983 -4.051272 2.804242 0
M  V30 49 H -4.303116 -4.274385 1.033604 0
M  V30 END ATOM
M  V30 BEGIN BOND
M  V30 1 1 1 2
M  V30 2 1 2 3
M  V30 3 1 3 4
M  V30 4 2 4 5
M  V30 5 1 5 6
M  V30 6 1 6 7
M  V30 7 1 7 8
M  V30 8 2 8 9
M  V30 9 1 9 10
M  V30 10 2 10 11
M  V30 11 1 11 12
M  V30 12 1 12 13
M  V30 13 2 12 14
M  V30 14 2 7 15
M  V30 15 1 15 16
M  V30 16 2 16 17
M  V30 17 1 17 18
M  V30 18 2 18 19
M  V30 19 1 19 20
M  V30 20 1 19 21
M  V30 21 2 21 22
M  V30 22 1 15 23
M  V30 23 2 23 24
M  V30 24 1 24 25
M  V30 25 1 2 26
M  V30 26 1 26 27
M  V30 27 1 26 28
M  V30 28 2 25 3
M  V30 29 1 24 6
M  V30 30 1 14 8
M  V30 31 1 22 16
M  V30 32 1 1 29
M  V30 33 1 1 30
M  V30 34 1 1 31
M  V30 35 1 2 32
M  V30 36 1 4 33
M  V30 37 1 5 34
M  V30 38 1 9 35
M  V30 39 1 10 36
M  V30 40 1 13 37
M  V30 41 1 13 38
M  V30 42 1 17 39
M  V30 43 1 18 40
M  V30 44 1 21 41
M  V30 45 1 22 42
M  V30 46 1 25 43
M  V30 47 1 27 44
M  V30 48 1 27 45
M  V30 49 1 27 46
M  V30 50 1 28 47
M  V30 51 1 28 48
M  V30 52 1 28 49
M  V30 END BOND
M  V30 END CTAB
M  END
>  <Dataset>  (544) 
ChEMBL_Kinases

>  <Ligand_Instance>  (544) 
nan

>  <PDB_ID>  (544) 
nan

>  <Standardized_SMILES>  (544) 
CC(c1ccn2c(-c3ccnc(N)n3)c(-c3ccc(F)cc3)nc2c1)N(C)C

>  <Name>  (544) 
nan

>  <Pocket>  (544) 
nan

>  <ATP_Site>  (544) 
nan

>  <Peripheral>  (544) 
nan

>  <Num_H_Atoms_ProtBoundConf>  (544) 
nan

>  <Num_Resolved_Atoms>  (544) 
nan

>  <Num_Not_Resolved_Atoms>  (544) 
nan

$$$$
CHEMBL496162
     RDKit          3D

  0  0  0  0  0  0  0  0  0  0999 V3000
M  V30 BEGIN CTAB
M  V30 COUNTS 61 65 0 0 0
M  V30 BEGIN ATOM
M  V30 1 C 4.691275 -2.087688 3.405833 0
M  V30 2 C 4.897574 -2.633239 2.005419 0
M  V30 3 C 3.883732 -3.696188 1.766395 0
M  V30 4 O 5.005959 -1.642304 1.042253 0
M  V30 5 C 4.169513 -0.598072 0.764401 0
M  V30 6 C 2.943406 -0.275907 1.356163 0
M  V30 7 C 2.222656 0.827248 0.952674 0
M  V30 8 C 2.708992 1.647851 -0.062013 0
M  V30 9 C 2.197380 2.787016 -0.637721 0
M  V30 10 C 0.929108 3.422101 -0.281138 0
M  V30 11 C 0.505662 4.563040 -0.923854 0
M  V30 12 C -0.713251 5.052928 -0.507762 0
M  V30 13 N -1.500716 4.513394 0.455516 0
M  V30 14 C -1.039421 3.382453 1.065382 0
M  V30 15 N -1.613322 2.545163 2.088593 0
M  V30 16 C -2.138922 1.312801 1.579705 0
M  V30 17 C -2.068640 1.016082 0.228251 0
M  V30 18 C -2.538006 -0.162205 -0.349231 0
M  V30 19 C -3.112541 -1.101328 0.473049 0
M  V30 20 N -3.620351 -2.330396 -0.025624 0
M  V30 21 C -4.128146 -3.491793 0.685275 0
M  V30 22 C -3.159373 -4.624213 0.313683 0
M  V30 23 N -3.321910 -4.969183 -1.068850 0
M  V30 24 C -2.054067 -5.315254 -1.677592 0
M  V30 25 C -4.014003 -3.962251 -1.831643 0
M  V30 26 C -3.689105 -2.553307 -1.454858 0
M  V30 27 C -3.191307 -0.822364 1.820138 0
M  V30 28 C -2.715415 0.355603 2.353290 0
M  V30 29 N 0.130161 2.908772 0.669364 0
M  V30 30 C 3.163067 3.102061 -1.568758 0
M  V30 31 N 4.162812 2.195388 -1.524155 0
M  V30 32 N 3.887695 1.275398 -0.579973 0
M  V30 33 N 4.598868 0.223271 -0.211703 0
M  V30 34 H 3.665575 -2.161516 3.770860 0
M  V30 35 H 5.287221 -2.740758 4.098561 0
M  V30 36 H 5.156619 -1.078633 3.480129 0
M  V30 37 H 5.916073 -3.130822 2.053748 0
M  V30 38 H 4.183252 -4.491648 1.054639 0
M  V30 39 H 3.760158 -4.233040 2.753031 0
M  V30 40 H 2.885280 -3.259033 1.572648 0
M  V30 41 H 2.601302 -0.917891 2.116440 0
M  V30 42 H 1.294631 0.993089 1.464028 0
M  V30 43 H 1.065107 5.050579 -1.694188 0
M  V30 44 H -1.165896 5.960900 -0.941203 0
M  V30 45 H -1.688728 2.727448 3.112260 0
M  V30 46 H -1.628897 1.702377 -0.485688 0
M  V30 47 H -2.454647 -0.335591 -1.419657 0
M  V30 48 H -5.110446 -3.820839 0.280564 0
M  V30 49 H -4.180869 -3.366351 1.769218 0
M  V30 50 H -3.282775 -5.513339 0.940415 0
M  V30 51 H -2.124266 -4.235761 0.433316 0
M  V30 52 H -1.985302 -6.433182 -1.692111 0
M  V30 53 H -1.191016 -4.912630 -1.123605 0
M  V30 54 H -2.033869 -4.878554 -2.690210 0
M  V30 55 H -3.746835 -4.092405 -2.905697 0
M  V30 56 H -5.127223 -4.126614 -1.802531 0
M  V30 57 H -4.523688 -1.912952 -1.830091 0
M  V30 58 H -2.719696 -2.288190 -1.908102 0
M  V30 59 H -3.640009 -1.538595 2.503266 0
M  V30 60 H -2.805006 0.530018 3.436462 0
M  V30 61 H 3.086773 3.978440 -2.231580 0
M  V30 END ATOM
M  V30 BEGIN BOND
M  V30 1 1 1 2
M  V30 2 1 2 3
M  V30 3 1 2 4
M  V30 4 1 4 5
M  V30 5 1 5 6
M  V30 6 2 6 7
M  V30 7 1 7 8
M  V30 8 2 8 9
M  V30 9 1 9 10
M  V30 10 2 10 11
M  V30 11 1 11 12
M  V30 12 2 12 13
M  V30 13 1 13 14
M  V30 14 1 14 15
M  V30 15 1 15 16
M  V30 16 2 16 17
M  V30 17 1 17 18
M  V30 18 2 18 19
M  V30 19 1 19 20
M  V30 20 1 20 21
M  V30 21 1 21 22
M  V30 22 1 22 23
M  V30 23 1 23 24
M  V30 24 1 23 25
M  V30 25 1 25 26
M  V30 26 1 19 27
M  V30 27 2 27 28
M  V30 28 2 14 29
M  V30 29 1 9 30
M  V30 30 2 30 31
M  V30 31 1 31 32
M  V30 32 1 32 33
M  V30 33 2 33 5
M  V30 34 1 32 8
M  V30 35 1 29 10
M  V30 36 1 28 16
M  V30 37 1 26 20
M  V30 38 1 1 34
M  V30 39 1 1 35
M  V30 40 1 1 36
M  V30 41 1 2 37
M  V30 42 1 3 38
M  V30 43 1 3 39
M  V30 44 1 3 40
M  V30 45 1 6 41
M  V30 46 1 7 42
M  V30 47 1 11 43
M  V30 48 1 12 44
M  V30 49 1 15 45
M  V30 50 1 17 46
M  V30 51 1 18 47
M  V30 52 1 21 48
M  V30 53 1 21 49
M  V30 54 1 22 50
M  V30 55 1 22 51
M  V30 56 1 24 52
M  V30 57 1 24 53
M  V30 58 1 24 54
M  V30 59 1 25 55
M  V30 60 1 25 56
M  V30 61 1 26 57
M  V30 62 1 26 58
M  V30 63 1 27 59
M  V30 64 1 28 60
M  V30 65 1 30 61
M  V30 END BOND
M  V30 END CTAB
M  END
>  <Dataset>  (545) 
ChEMBL_Kinases

>  <Ligand_Instance>  (545) 
nan

>  <PDB_ID>  (545) 
nan

>  <Standardized_SMILES>  (545) 
CC(C)Oc1ccc2c(-c3ccnc(Nc4ccc(N5CCN(C)CC5)cc4)n3)cnn2n1

>  <Name>  (545) 
nan

>  <Pocket>  (545) 
nan

>  <ATP_Site>  (545) 
nan

>  <Peripheral>  (545) 
nan

>  <Num_H_Atoms_ProtBoundConf>  (545) 
nan

>  <Num_Resolved_Atoms>  (545) 
nan

>  <Num_Not_Resolved_Atoms>  (545) 
nan

$$$$
CHEMBL3810081
     RDKit          3D

  0  0  0  0  0  0  0  0  0  0999 V3000
M  V30 BEGIN CTAB
M  V30 COUNTS 55 58 0 0 0
M  V30 BEGIN ATOM
M  V30 1 C -0.023286 1.882701 2.264128 0
M  V30 2 C 0.457195 0.866394 3.250145 0
M  V30 3 N 1.909199 0.659265 3.194167 0
M  V30 4 C 2.234878 -0.347449 4.214550 0
M  V30 5 C 1.992019 0.274068 5.586155 0
M  V30 6 C 2.960435 1.212102 2.397721 0
M  V30 7 N 3.901557 1.865700 3.125807 0
M  V30 8 C 4.959380 2.449887 2.567079 0
M  V30 9 C 5.063950 2.362228 1.186897 0
M  V30 10 C 4.130926 1.709987 0.428360 0
M  V30 11 C 4.199441 1.600956 -0.934333 0
M  V30 12 N 3.233912 0.941601 -1.571055 0
M  V30 13 C 2.180928 0.365434 -0.969307 0
M  V30 14 N 1.236423 -0.299308 -1.776478 0
M  V30 15 C 0.049797 -0.981153 -1.407924 0
M  V30 16 C -0.408494 -1.120026 -0.114524 0
M  V30 17 C -1.558798 -1.779003 0.258660 0
M  V30 18 C -2.332224 -2.355809 -0.726382 0
M  V30 19 C -3.557084 -3.062263 -0.367032 0
M  V30 20 C -3.860811 -3.779447 0.761935 0
M  V30 21 N -5.126967 -4.251041 0.643342 0
M  V30 22 N -5.632755 -3.856306 -0.521609 0
M  V30 23 C -6.933786 -4.092669 -1.118167 0
M  V30 24 C -4.697193 -3.119268 -1.178473 0
M  V30 25 C -1.922266 -2.246910 -2.025185 0
M  V30 26 C -0.770609 -1.583292 -2.363721 0
M  V30 27 O -0.404777 -1.502652 -3.676975 0
M  V30 28 C -1.039253 -2.010246 -4.796456 0
M  V30 29 N 2.095093 0.460521 0.364801 0
M  V30 30 C 3.050422 1.116701 1.026635 0
M  V30 31 H -0.645737 2.631493 2.830739 0
M  V30 32 H -0.735732 1.425719 1.547033 0
M  V30 33 H 0.782118 2.476464 1.790734 0
M  V30 34 H -0.012159 -0.110863 3.029721 0
M  V30 35 H 0.141577 1.109123 4.294055 0
M  V30 36 H 3.310559 -0.600834 4.117922 0
M  V30 37 H 1.582766 -1.235652 4.149288 0
M  V30 38 H 2.767708 -0.005378 6.326949 0
M  V30 39 H 1.031399 -0.091809 6.022849 0
M  V30 40 H 1.969018 1.367338 5.551465 0
M  V30 41 H 5.747477 2.986896 3.077826 0
M  V30 42 H 5.897971 2.813215 0.660656 0
M  V30 43 H 5.035783 2.050395 -1.477946 0
M  V30 44 H 1.413887 -0.307052 -2.822395 0
M  V30 45 H 0.131602 -0.702638 0.708429 0
M  V30 46 H -1.881465 -1.864445 1.287959 0
M  V30 47 H -3.196818 -3.937164 1.599555 0
M  V30 48 H -6.814335 -4.386806 -2.196532 0
M  V30 49 H -7.574769 -3.184948 -1.116847 0
M  V30 50 H -7.493602 -4.894593 -0.602373 0
M  V30 51 H -4.761521 -2.636784 -2.154405 0
M  V30 52 H -2.554437 -2.708441 -2.745588 0
M  V30 53 H -1.874335 -2.692352 -4.644524 0
M  V30 54 H -0.267790 -2.611640 -5.363728 0
M  V30 55 H -1.441332 -1.210880 -5.486360 0
M  V30 END ATOM
M  V30 BEGIN BOND
M  V30 1 1 1 2
M  V30 2 1 2 3
M  V30 3 1 3 4
M  V30 4 1 4 5
M  V30 5 1 3 6
M  V30 6 2 6 7
M  V30 7 1 7 8
M  V30 8 2 8 9
M  V30 9 1 9 10
M  V30 10 2 10 11
M  V30 11 1 11 12
M  V30 12 2 12 13
M  V30 13 1 13 14
M  V30 14 1 14 15
M  V30 15 2 15 16
M  V30 16 1 16 17
M  V30 17 2 17 18
M  V30 18 1 18 19
M  V30 19 1 19 20
M  V30 20 2 20 21
M  V30 21 1 21 22
M  V30 22 1 22 23
M  V30 23 1 22 24
M  V30 24 1 18 25
M  V30 25 2 25 26
M  V30 26 1 26 27
M  V30 27 1 27 28
M  V30 28 1 13 29
M  V30 29 2 29 30
M  V30 30 1 30 6
M  V30 31 1 30 10
M  V30 32 1 26 15
M  V30 33 2 24 19
M  V30 34 1 1 31
M  V30 35 1 1 32
M  V30 36 1 1 33
M  V30 37 1 2 34
M  V30 38 1 2 35
M  V30 39 1 4 36
M  V30 40 1 4 37
M  V30 41 1 5 38
M  V30 42 1 5 39
M  V30 43 1 5 40
M  V30 44 1 8 41
M  V30 45 1 9 42
M  V30 46 1 11 43
M  V30 47 1 14 44
M  V30 48 1 16 45
M  V30 49 1 17 46
M  V30 50 1 20 47
M  V30 51 1 23 48
M  V30 52 1 23 49
M  V30 53 1 23 50
M  V30 54 1 24 51
M  V30 55 1 25 52
M  V30 56 1 28 53
M  V30 57 1 28 54
M  V30 58 1 28 55
M  V30 END BOND
M  V30 END CTAB
M  END
>  <Dataset>  (546) 
ChEMBL_Kinases

>  <Ligand_Instance>  (546) 
nan

>  <PDB_ID>  (546) 
nan

>  <Standardized_SMILES>  (546) 
CCN(CC)c1nccc2cnc(Nc3ccc(-c4cnn(C)c4)cc3OC)nc12

>  <Name>  (546) 
nan

>  <Pocket>  (546) 
nan

>  <ATP_Site>  (546) 
nan

>  <Peripheral>  (546) 
nan

>  <Num_H_Atoms_ProtBoundConf>  (546) 
nan

>  <Num_Resolved_Atoms>  (546) 
nan

>  <Num_Not_Resolved_Atoms>  (546) 
nan

$$$$
CHEMBL496354
     RDKit          3D

  0  0  0  0  0  0  0  0  0  0999 V3000
M  V30 BEGIN CTAB
M  V30 COUNTS 52 55 0 0 0
M  V30 BEGIN ATOM
M  V30 1 C -1.137857 -5.521428 3.785279 0
M  V30 2 C -0.855293 -4.232303 3.110321 0
M  V30 3 C -0.307683 -4.275621 1.731229 0
M  V30 4 C -0.093540 -2.899871 1.239149 0
M  V30 5 C 1.178888 -2.312076 1.361156 0
M  V30 6 C 1.571803 -1.048977 0.970377 0
M  V30 7 N 0.624133 -0.282566 0.402202 0
M  V30 8 C 0.676589 0.972403 -0.080110 0
M  V30 9 C 1.844708 1.806909 -0.079758 0
M  V30 10 C 2.594926 2.348959 -1.120941 0
M  V30 11 C 3.690993 3.134076 -0.831841 0
M  V30 12 N 4.092109 3.417091 0.419147 0
M  V30 13 C 3.338765 2.872849 1.417738 0
M  V30 14 N 3.765651 3.174460 2.749377 0
M  V30 15 N 2.258772 2.099060 1.183357 0
M  V30 16 C -0.574518 1.295662 -0.557081 0
M  V30 17 C -1.048989 2.527349 -1.180910 0
M  V30 18 C -1.940906 3.370867 -0.515959 0
M  V30 19 C -2.367471 4.531009 -1.154549 0
M  V30 20 C -1.960882 4.904099 -2.415377 0
M  V30 21 F -2.374070 6.027510 -3.035318 0
M  V30 22 C -1.072356 4.068501 -3.083760 0
M  V30 23 C -0.648053 2.909851 -2.442798 0
M  V30 24 N -1.350992 0.205192 -0.341635 0
M  V30 25 C -0.621215 -0.762313 0.244978 0
M  V30 26 C -0.980188 -2.028892 0.646812 0
M  V30 27 N -1.003607 -5.106529 0.789324 0
M  V30 28 C -0.769201 -6.528036 1.053235 0
M  V30 29 C -2.435452 -4.878178 0.732496 0
M  V30 30 H -1.095022 -5.303557 4.900552 0
M  V30 31 H -2.209606 -5.859007 3.661810 0
M  V30 32 H -0.401485 -6.307131 3.638097 0
M  V30 33 H -0.085899 -3.680403 3.728985 0
M  V30 34 H -1.750753 -3.573010 3.165811 0
M  V30 35 H 0.728613 -4.725486 1.805340 0
M  V30 36 H 1.969592 -2.912393 1.818535 0
M  V30 37 H 2.565181 -0.706613 1.110768 0
M  V30 38 H 2.210805 2.075611 -2.075428 0
M  V30 39 H 4.198069 3.500736 -1.729158 0
M  V30 40 H 3.096652 3.141552 3.569990 0
M  V30 41 H 4.751497 3.438789 2.965884 0
M  V30 42 H -2.301674 3.125801 0.495705 0
M  V30 43 H -3.066940 5.189683 -0.628735 0
M  V30 44 H -0.734750 4.335223 -4.076952 0
M  V30 45 H 0.037880 2.312302 -3.024893 0
M  V30 46 H -1.974539 -2.350760 0.500513 0
M  V30 47 H -0.828515 -7.074156 0.064787 0
M  V30 48 H 0.260804 -6.731509 1.402711 0
M  V30 49 H -1.573688 -6.955958 1.655542 0
M  V30 50 H -2.918242 -5.904364 0.729440 0
M  V30 51 H -2.842131 -4.274971 1.542478 0
M  V30 52 H -2.766577 -4.445978 -0.234234 0
M  V30 END ATOM
M  V30 BEGIN BOND
M  V30 1 1 1 2
M  V30 2 1 2 3
M  V30 3 1 3 4
M  V30 4 1 4 5
M  V30 5 2 5 6
M  V30 6 1 6 7
M  V30 7 1 7 8
M  V30 8 1 8 9
M  V30 9 2 9 10
M  V30 10 1 10 11
M  V30 11 2 11 12
M  V30 12 1 12 13
M  V30 13 1 13 14
M  V30 14 2 13 15
M  V30 15 2 8 16
M  V30 16 1 16 17
M  V30 17 2 17 18
M  V30 18 1 18 19
M  V30 19 2 19 20
M  V30 20 1 20 21
M  V30 21 1 20 22
M  V30 22 2 22 23
M  V30 23 1 16 24
M  V30 24 2 24 25
M  V30 25 1 25 26
M  V30 26 1 3 27
M  V30 27 1 27 28
M  V30 28 1 27 29
M  V30 29 2 26 4
M  V30 30 1 25 7
M  V30 31 1 15 9
M  V30 32 1 23 17
M  V30 33 1 1 30
M  V30 34 1 1 31
M  V30 35 1 1 32
M  V30 36 1 2 33
M  V30 37 1 2 34
M  V30 38 1 3 35
M  V30 39 1 5 36
M  V30 40 1 6 37
M  V30 41 1 10 38
M  V30 42 1 11 39
M  V30 43 1 14 40
M  V30 44 1 14 41
M  V30 45 1 18 42
M  V30 46 1 19 43
M  V30 47 1 22 44
M  V30 48 1 23 45
M  V30 49 1 26 46
M  V30 50 1 28 47
M  V30 51 1 28 48
M  V30 52 1 28 49
M  V30 53 1 29 50
M  V30 54 1 29 51
M  V30 55 1 29 52
M  V30 END BOND
M  V30 END CTAB
M  END
>  <Dataset>  (547) 
ChEMBL_Kinases

>  <Ligand_Instance>  (547) 
nan

>  <PDB_ID>  (547) 
nan

>  <Standardized_SMILES>  (547) 
CCC(c1ccn2c(-c3ccnc(N)n3)c(-c3ccc(F)cc3)nc2c1)N(C)C

>  <Name>  (547) 
nan

>  <Pocket>  (547) 
nan

>  <ATP_Site>  (547) 
nan

>  <Peripheral>  (547) 
nan

>  <Num_H_Atoms_ProtBoundConf>  (547) 
nan

>  <Num_Resolved_Atoms>  (547) 
nan

>  <Num_Not_Resolved_Atoms>  (547) 
nan

$$$$
CHEMBL496113
     RDKit          3D

  0  0  0  0  0  0  0  0  0  0999 V3000
M  V30 BEGIN CTAB
M  V30 COUNTS 43 46 0 0 0
M  V30 BEGIN ATOM
M  V30 1 C 0.691410 -0.847715 -1.167649 0
M  V30 2 N 0.526760 0.552590 -0.757983 0
M  V30 3 C 1.063052 1.471264 -1.735173 0
M  V30 4 C 2.514691 1.189279 -1.898013 0
M  V30 5 C 3.292671 1.930155 -1.018350 0
M  V30 6 C 4.680162 1.802648 -1.020034 0
M  V30 7 C 5.234157 0.915024 -1.927697 0
M  V30 8 F 6.569052 0.735120 -1.991342 0
M  V30 9 C 4.472648 0.169616 -2.810653 0
M  V30 10 C 3.082293 0.317403 -2.787269 0
M  V30 11 C -0.090773 0.915165 0.459867 0
M  V30 12 C -0.267208 2.199208 0.884658 0
M  V30 13 C -0.885471 2.463489 2.097549 0
M  V30 14 C -1.330351 1.410562 2.889396 0
M  V30 15 N -1.950976 1.373480 4.087254 0
M  V30 16 C -2.151283 0.061295 4.389245 0
M  V30 17 C -1.640045 -0.692565 3.351463 0
M  V30 18 C -1.631335 -2.147783 3.239934 0
M  V30 19 C -0.557181 -2.920290 2.840267 0
M  V30 20 C -0.689108 -4.307156 2.778635 0
M  V30 21 C -1.902593 -4.893436 3.121124 0
M  V30 22 C -1.987257 -6.335941 3.040297 0
M  V30 23 N -2.074383 -7.496580 2.974012 0
M  V30 24 C -2.980420 -4.128493 3.521395 0
M  V30 25 C -2.847652 -2.749601 3.582164 0
M  V30 26 N -1.127884 0.152632 2.415963 0
M  V30 27 N -0.532282 -0.062593 1.250088 0
M  V30 28 H 1.762849 -1.126143 -1.143718 0
M  V30 29 H 0.138545 -1.521968 -0.458985 0
M  V30 30 H 0.285934 -0.978605 -2.185989 0
M  V30 31 H 0.531777 1.255186 -2.707825 0
M  V30 32 H 0.867027 2.530532 -1.533557 0
M  V30 33 H 2.929371 2.640785 -0.283778 0
M  V30 34 H 5.353773 2.336208 -0.375369 0
M  V30 35 H 4.900476 -0.525047 -3.521559 0
M  V30 36 H 2.402639 -0.214387 -3.430615 0
M  V30 37 H 0.071362 3.009948 0.282662 0
M  V30 38 H -1.012069 3.490803 2.409232 0
M  V30 39 H -2.630263 -0.329460 5.290142 0
M  V30 40 H 0.330851 -2.354572 2.599848 0
M  V30 41 H 0.191326 -4.849406 2.457839 0
M  V30 42 H -3.905763 -4.642868 3.777538 0
M  V30 43 H -3.723561 -2.177167 3.903777 0
M  V30 END ATOM
M  V30 BEGIN BOND
M  V30 1 1 1 2
M  V30 2 1 2 3
M  V30 3 1 3 4
M  V30 4 2 4 5
M  V30 5 1 5 6
M  V30 6 2 6 7
M  V30 7 1 7 8
M  V30 8 1 7 9
M  V30 9 2 9 10
M  V30 10 1 2 11
M  V30 11 1 11 12
M  V30 12 2 12 13
M  V30 13 1 13 14
M  V30 14 2 14 15
M  V30 15 1 15 16
M  V30 16 2 16 17
M  V30 17 1 17 18
M  V30 18 2 18 19
M  V30 19 1 19 20
M  V30 20 2 20 21
M  V30 21 1 21 22
M  V30 22 3 22 23
M  V30 23 1 21 24
M  V30 24 2 24 25
M  V30 25 1 17 26
M  V30 26 1 26 27
M  V30 27 1 10 4
M  V30 28 2 27 11
M  V30 29 1 26 14
M  V30 30 1 25 18
M  V30 31 1 1 28
M  V30 32 1 1 29
M  V30 33 1 1 30
M  V30 34 1 3 31
M  V30 35 1 3 32
M  V30 36 1 5 33
M  V30 37 1 6 34
M  V30 38 1 9 35
M  V30 39 1 10 36
M  V30 40 1 12 37
M  V30 41 1 13 38
M  V30 42 1 16 39
M  V30 43 1 19 40
M  V30 44 1 20 41
M  V30 45 1 24 42
M  V30 46 1 25 43
M  V30 END BOND
M  V30 END CTAB
M  END
>  <Dataset>  (548) 
ChEMBL_Kinases

>  <Ligand_Instance>  (548) 
nan

>  <PDB_ID>  (548) 
nan

>  <Standardized_SMILES>  (548) 
CN(Cc1ccc(F)cc1)c1ccc2ncc(-c3ccc(C#N)cc3)n2n1

>  <Name>  (548) 
nan

>  <Pocket>  (548) 
nan

>  <ATP_Site>  (548) 
nan

>  <Peripheral>  (548) 
nan

>  <Num_H_Atoms_ProtBoundConf>  (548) 
nan

>  <Num_Resolved_Atoms>  (548) 
nan

>  <Num_Not_Resolved_Atoms>  (548) 
nan

$$$$
CHEMBL3798987
     RDKit          3D

  0  0  0  0  0  0  0  0  0  0999 V3000
M  V30 BEGIN CTAB
M  V30 COUNTS 51 55 0 0 0
M  V30 BEGIN ATOM
M  V30 1 C 0.047108 -4.838608 3.347254 0
M  V30 2 N 0.408569 -4.433079 2.008787 0
M  V30 3 C 0.914813 -3.191575 1.532790 0
M  V30 4 C 0.864753 -2.015014 2.251303 0
M  V30 5 C 1.367970 -0.836028 1.747712 0
M  V30 6 C 1.949380 -0.758356 0.501013 0
M  V30 7 C 2.504889 0.379725 -0.174941 0
M  V30 8 C 3.766043 0.423097 -0.724262 0
M  V30 9 N 4.283305 1.496637 -1.348506 0
M  V30 10 C 3.507740 2.594865 -1.435745 0
M  V30 11 C 2.218041 2.614692 -0.898435 0
M  V30 12 Cl 1.409541 4.153222 -1.138073 0
M  V30 13 C 1.697025 1.488238 -0.252838 0
M  V30 14 N 0.375663 1.771332 0.186027 0
M  V30 15 C -0.172848 2.316100 1.396239 0
M  V30 16 C -1.268748 1.525426 2.014054 0
M  V30 17 C -2.181734 0.876151 1.035086 0
M  V30 18 C -1.501286 0.338153 -0.178701 0
M  V30 19 C -0.665607 1.459220 -0.782231 0
M  V30 20 N -3.269968 1.749998 0.592902 0
M  V30 21 C -4.303853 0.875753 0.100847 0
M  V30 22 O -5.144351 1.262382 -0.757480 0
M  V30 23 N -4.087918 -0.358725 0.795461 0
M  V30 24 C -2.965626 -0.216587 1.666578 0
M  V30 25 O -2.909876 -0.980409 2.671992 0
M  V30 26 C 1.972992 -1.984776 -0.183979 0
M  V30 27 C 1.471476 -3.204095 0.295720 0
M  V30 28 C 1.486459 -4.513620 -0.409311 0
M  V30 29 S 0.308280 -5.421317 0.566520 0
M  V30 30 O -1.059451 -5.372667 -0.016252 0
M  V30 31 O 0.759455 -6.812115 0.871993 0
M  V30 32 H 0.218597 -5.919524 3.523748 0
M  V30 33 H 0.650564 -4.266062 4.110437 0
M  V30 34 H -1.009407 -4.557331 3.529038 0
M  V30 35 H 0.440348 -1.929603 3.234370 0
M  V30 36 H 1.346015 0.083599 2.298446 0
M  V30 37 H 4.321267 -0.514667 -0.604539 0
M  V30 38 H 3.978010 3.422993 -1.947233 0
M  V30 39 H 0.607765 2.544156 2.150988 0
M  V30 40 H -0.593254 3.329638 1.127378 0
M  V30 41 H -0.915927 0.719837 2.710420 0
M  V30 42 H -1.885585 2.234858 2.613565 0
M  V30 43 H -2.309337 0.070834 -0.904145 0
M  V30 44 H -0.892614 -0.552757 -0.041176 0
M  V30 45 H -0.260619 1.173443 -1.753196 0
M  V30 46 H -1.306012 2.375973 -0.871888 0
M  V30 47 H -3.225006 2.802783 0.657145 0
M  V30 48 H -4.762020 -1.139256 0.562554 0
M  V30 49 H 2.426414 -1.983758 -1.185828 0
M  V30 50 H 1.156670 -4.415531 -1.455010 0
M  V30 51 H 2.479601 -4.994357 -0.311937 0
M  V30 END ATOM
M  V30 BEGIN BOND
M  V30 1 1 1 2
M  V30 2 1 2 3
M  V30 3 2 3 4
M  V30 4 1 4 5
M  V30 5 2 5 6
M  V30 6 1 6 7
M  V30 7 2 7 8
M  V30 8 1 8 9
M  V30 9 2 9 10
M  V30 10 1 10 11
M  V30 11 1 11 12
M  V30 12 2 11 13
M  V30 13 1 13 14
M  V30 14 1 14 15
M  V30 15 1 15 16
M  V30 16 1 16 17
M  V30 17 1 17 18
M  V30 18 1 18 19
M  V30 19 1 17 20
M  V30 20 1 20 21
M  V30 21 2 21 22
M  V30 22 1 21 23
M  V30 23 1 23 24
M  V30 24 2 24 25
M  V30 25 1 6 26
M  V30 26 2 26 27
M  V30 27 1 27 28
M  V30 28 1 28 29
M  V30 29 2 29 30
M  V30 30 2 29 31
M  V30 31 1 29 2
M  V30 32 1 27 3
M  V30 33 1 13 7
M  V30 34 1 19 14
M  V30 35 1 24 17
M  V30 36 1 1 32
M  V30 37 1 1 33
M  V30 38 1 1 34
M  V30 39 1 4 35
M  V30 40 1 5 36
M  V30 41 1 8 37
M  V30 42 1 10 38
M  V30 43 1 15 39
M  V30 44 1 15 40
M  V30 45 1 16 41
M  V30 46 1 16 42
M  V30 47 1 18 43
M  V30 48 1 18 44
M  V30 49 1 19 45
M  V30 50 1 19 46
M  V30 51 1 20 47
M  V30 52 1 23 48
M  V30 53 1 26 49
M  V30 54 1 28 50
M  V30 55 1 28 51
M  V30 END BOND
M  V30 END CTAB
M  END
>  <Dataset>  (549) 
ChEMBL_Kinases

>  <Ligand_Instance>  (549) 
nan

>  <PDB_ID>  (549) 
nan

>  <Standardized_SMILES>  (549) 
CN1c2ccc(-c3cncc(Cl)c3N3CCC4(CC3)NC(=O)NC4=O)cc2CS1(=O)=O

>  <Name>  (549) 
nan

>  <Pocket>  (549) 
nan

>  <ATP_Site>  (549) 
nan

>  <Peripheral>  (549) 
nan

>  <Num_H_Atoms_ProtBoundConf>  (549) 
nan

>  <Num_Resolved_Atoms>  (549) 
nan

>  <Num_Not_Resolved_Atoms>  (549) 
nan

$$$$
CHEMBL3798983
     RDKit          3D

  0  0  0  0  0  0  0  0  0  0999 V3000
M  V30 BEGIN CTAB
M  V30 COUNTS 47 50 0 0 0
M  V30 BEGIN ATOM
M  V30 1 C -2.480133 -5.722069 3.215526 0
M  V30 2 N -2.151300 -4.830479 4.329031 0
M  V30 3 C -1.713264 -3.494355 4.138303 0
M  V30 4 O -1.641618 -3.169655 2.909853 0
M  V30 5 C -1.383954 -2.600612 5.243761 0
M  V30 6 C -0.973047 -1.332025 4.892899 0
M  V30 7 C -0.634608 -0.397767 5.851625 0
M  V30 8 O -0.211073 0.904995 5.544247 0
M  V30 9 C -0.106880 1.334423 4.232600 0
M  V30 10 C -1.063376 1.940895 3.445265 0
M  V30 11 C -0.857314 2.331028 2.146132 0
M  V30 12 C 0.361233 2.133175 1.528174 0
M  V30 13 N 0.755751 2.431086 0.307279 0
M  V30 14 C 1.733347 2.286178 -0.227461 0
M  V30 15 N 2.057237 2.680007 -1.650803 0
M  V30 16 C 1.760408 1.625557 -2.552089 0
M  V30 17 O 1.289240 0.501416 -2.239933 0
M  V30 18 N 2.026849 1.889237 -3.907882 0
M  V30 19 C 1.735315 0.835515 -4.851547 0
M  V30 20 C 0.468767 0.814875 -5.401756 0
M  V30 21 C 0.153964 -0.178671 -6.308344 0
M  V30 22 C 1.080523 -1.137867 -6.664666 0
M  V30 23 Cl 0.802118 -2.445880 -7.800825 0
M  V30 24 C 2.365808 -1.122144 -6.110385 0
M  V30 25 Cl 3.595216 -2.310207 -6.517246 0
M  V30 26 C 2.676248 -0.133275 -5.209280 0
M  V30 27 S 2.704645 1.448789 1.196832 0
M  V30 28 C 1.281754 1.547440 2.291742 0
M  V30 29 C 1.113981 1.133094 3.622209 0
M  V30 30 C -0.696203 -0.703723 7.210502 0
M  V30 31 C -1.117947 -1.996664 7.467907 0
M  V30 32 N -1.454769 -2.930686 6.561454 0
M  V30 33 H -2.059755 -5.336856 2.278218 0
M  V30 34 H -3.581674 -5.803082 3.090442 0
M  V30 35 H -2.076899 -6.717794 3.485123 0
M  V30 36 H -2.250096 -5.213737 5.295778 0
M  V30 37 H -0.889032 -0.988739 3.874606 0
M  V30 38 H -2.029734 2.090187 3.956806 0
M  V30 39 H -1.739827 2.797490 1.682252 0
M  V30 40 H 2.437352 3.612050 -1.823620 0
M  V30 41 H 2.418103 2.800732 -4.234559 0
M  V30 42 H -0.306473 1.543375 -5.161295 0
M  V30 43 H -0.800956 -0.294644 -6.801383 0
M  V30 44 H 3.645809 -0.062108 -4.744967 0
M  V30 45 H 2.003317 0.686362 4.023853 0
M  V30 46 H -0.449915 -0.034063 8.023343 0
M  V30 47 H -1.207053 -2.355075 8.483876 0
M  V30 END ATOM
M  V30 BEGIN BOND
M  V30 1 1 1 2
M  V30 2 1 2 3
M  V30 3 2 3 4
M  V30 4 1 3 5
M  V30 5 2 5 6
M  V30 6 1 6 7
M  V30 7 1 7 8
M  V30 8 1 8 9
M  V30 9 2 9 10
M  V30 10 1 10 11
M  V30 11 2 11 12
M  V30 12 1 12 13
M  V30 13 2 13 14
M  V30 14 1 14 15
M  V30 15 1 15 16
M  V30 16 2 16 17
M  V30 17 1 16 18
M  V30 18 1 18 19
M  V30 19 2 19 20
M  V30 20 1 20 21
M  V30 21 2 21 22
M  V30 22 1 22 23
M  V30 23 1 22 24
M  V30 24 1 24 25
M  V30 25 2 24 26
M  V30 26 1 14 27
M  V30 27 1 27 28
M  V30 28 2 28 29
M  V30 29 2 7 30
M  V30 30 1 30 31
M  V30 31 2 31 32
M  V30 32 1 32 5
M  V30 33 1 29 9
M  V30 34 1 28 12
M  V30 35 1 26 19
M  V30 36 1 1 33
M  V30 37 1 1 34
M  V30 38 1 1 35
M  V30 39 1 2 36
M  V30 40 1 6 37
M  V30 41 1 10 38
M  V30 42 1 11 39
M  V30 43 1 15 40
M  V30 44 1 18 41
M  V30 45 1 20 42
M  V30 46 1 21 43
M  V30 47 1 26 44
M  V30 48 1 29 45
M  V30 49 1 30 46
M  V30 50 1 31 47
M  V30 END BOND
M  V30 END CTAB
M  END
>  <Dataset>  (550) 
ChEMBL_Kinases

>  <Ligand_Instance>  (550) 
nan

>  <PDB_ID>  (550) 
nan

>  <Standardized_SMILES>  (550) 
CNC(=O)c1cc(Oc2ccc3nc(NC(=O)Nc4ccc(Cl)c(Cl)c4)sc3c2)ccn1

>  <Name>  (550) 
nan

>  <Pocket>  (550) 
nan

>  <ATP_Site>  (550) 
nan

>  <Peripheral>  (550) 
nan

>  <Num_H_Atoms_ProtBoundConf>  (550) 
nan

>  <Num_Resolved_Atoms>  (550) 
nan

>  <Num_Not_Resolved_Atoms>  (550) 
nan

$$$$
CHEMBL3798944
     RDKit          3D

  0  0  0  0  0  0  0  0  0  0999 V3000
M  V30 BEGIN CTAB
M  V30 COUNTS 64 68 0 0 0
M  V30 BEGIN ATOM
M  V30 1 C 5.159360 -0.438949 -0.220788 0
M  V30 2 C 5.910576 0.745963 -0.837302 0
M  V30 3 C 6.434638 1.657659 0.230675 0
M  V30 4 O 7.003318 0.229406 -1.528377 0
M  V30 5 C 5.004867 1.431809 -1.836409 0
M  V30 6 N 3.789652 1.931472 -1.234058 0
M  V30 7 C 2.578592 1.354023 -1.054042 0
M  V30 8 C 1.732286 2.254472 -0.418408 0
M  V30 9 C 0.342636 1.946298 -0.072797 0
M  V30 10 C -0.382744 1.092144 -0.877303 0
M  V30 11 C -1.692796 0.770497 -0.594911 0
M  V30 12 C -2.341781 1.276189 0.490767 0
M  V30 13 C -3.659848 1.122565 1.035888 0
M  V30 14 C -4.444711 2.196735 1.404681 0
M  V30 15 N -5.685909 2.088347 1.916933 0
M  V30 16 C -6.215154 0.864608 2.089001 0
M  V30 17 C -5.468353 -0.236649 1.734951 0
M  V30 18 Cl -6.281615 -1.781155 2.012749 0
M  V30 19 C -4.195822 -0.133166 1.209563 0
M  V30 20 N -3.589441 -1.377033 0.910788 0
M  V30 21 C -2.841676 -1.882907 2.014117 0
M  V30 22 C -1.672427 -2.701614 1.450421 0
M  V30 23 C -2.235750 -3.985779 0.875999 0
M  V30 24 C -1.361366 -4.578689 -0.192217 0
M  V30 25 C -0.374863 -5.425619 0.580262 0
M  V30 26 N -0.985824 -5.624778 1.898971 0
M  V30 27 C -2.283495 -5.004925 1.947925 0
M  V30 28 O -3.068961 -5.461919 2.832371 0
M  V30 29 C -3.610601 -3.737973 0.259642 0
M  V30 30 C -3.543375 -2.288729 -0.244202 0
M  V30 31 C -1.611760 2.146996 1.315867 0
M  V30 32 C -0.279596 2.481986 1.039715 0
M  V30 33 C 2.499874 3.392211 -0.230866 0
M  V30 34 N 3.729748 3.167510 -0.730815 0
M  V30 35 H 5.765468 -0.911756 0.573759 0
M  V30 36 H 4.895398 -1.184424 -0.972858 0
M  V30 37 H 4.259879 -0.038071 0.262557 0
M  V30 38 H 7.430838 2.091039 -0.014350 0
M  V30 39 H 6.463403 1.098093 1.210646 0
M  V30 40 H 5.723574 2.487529 0.374912 0
M  V30 41 H 6.898993 -0.721370 -1.785260 0
M  V30 42 H 5.511519 2.233545 -2.376343 0
M  V30 43 H 4.739146 0.656099 -2.592112 0
M  V30 44 H 2.359640 0.330444 -1.380806 0
M  V30 45 H 0.009340 0.628067 -1.758138 0
M  V30 46 H -2.324479 0.126302 -1.166050 0
M  V30 47 H -4.071431 3.215015 1.289282 0
M  V30 48 H -7.216714 0.839341 2.504895 0
M  V30 49 H -3.492009 -2.650983 2.526767 0
M  V30 50 H -2.493739 -1.163314 2.751837 0
M  V30 51 H -1.083027 -2.156706 0.711854 0
M  V30 52 H -1.015358 -2.936749 2.312152 0
M  V30 53 H -1.968320 -5.217034 -0.867542 0
M  V30 54 H -0.856003 -3.800352 -0.814731 0
M  V30 55 H 0.554691 -4.854222 0.689989 0
M  V30 56 H -0.239273 -6.414659 0.060337 0
M  V30 57 H -0.355453 -6.175360 2.533176 0
M  V30 58 H -4.343892 -3.870690 1.066946 0
M  V30 59 H -3.818733 -4.396623 -0.584047 0
M  V30 60 H -2.556045 -2.220878 -0.747216 0
M  V30 61 H -4.350768 -2.101947 -0.961834 0
M  V30 62 H -1.932506 2.661106 2.227319 0
M  V30 63 H 0.333408 3.135352 1.621314 0
M  V30 64 H 2.025239 4.236818 0.258471 0
M  V30 END ATOM
M  V30 BEGIN BOND
M  V30 1 1 1 2
M  V30 2 1 2 3
M  V30 3 1 2 4
M  V30 4 1 2 5
M  V30 5 1 5 6
M  V30 6 1 6 7
M  V30 7 2 7 8
M  V30 8 1 8 9
M  V30 9 2 9 10
M  V30 10 1 10 11
M  V30 11 2 11 12
M  V30 12 1 12 13
M  V30 13 2 13 14
M  V30 14 1 14 15
M  V30 15 2 15 16
M  V30 16 1 16 17
M  V30 17 1 17 18
M  V30 18 2 17 19
M  V30 19 1 19 20
M  V30 20 1 20 21
M  V30 21 1 21 22
M  V30 22 1 22 23
M  V30 23 1 23 24
M  V30 24 1 24 25
M  V30 25 1 25 26
M  V30 26 1 26 27
M  V30 27 2 27 28
M  V30 28 1 23 29
M  V30 29 1 29 30
M  V30 30 1 12 31
M  V30 31 2 31 32
M  V30 32 1 8 33
M  V30 33 2 33 34
M  V30 34 1 34 6
M  V30 35 1 32 9
M  V30 36 1 19 13
M  V30 37 1 30 20
M  V30 38 1 27 23
M  V30 39 1 1 35
M  V30 40 1 1 36
M  V30 41 1 1 37
M  V30 42 1 3 38
M  V30 43 1 3 39
M  V30 44 1 3 40
M  V30 45 1 4 41
M  V30 46 1 5 42
M  V30 47 1 5 43
M  V30 48 1 7 44
M  V30 49 1 10 45
M  V30 50 1 11 46
M  V30 51 1 14 47
M  V30 52 1 16 48
M  V30 53 1 21 49
M  V30 54 1 21 50
M  V30 55 1 22 51
M  V30 56 1 22 52
M  V30 57 1 24 53
M  V30 58 1 24 54
M  V30 59 1 25 55
M  V30 60 1 25 56
M  V30 61 1 26 57
M  V30 62 1 29 58
M  V30 63 1 29 59
M  V30 64 1 30 60
M  V30 65 1 30 61
M  V30 66 1 31 62
M  V30 67 1 32 63
M  V30 68 1 33 64
M  V30 END BOND
M  V30 END CTAB
M  END
>  <Dataset>  (551) 
ChEMBL_Kinases

>  <Ligand_Instance>  (551) 
nan

>  <PDB_ID>  (551) 
nan

>  <Standardized_SMILES>  (551) 
CC(C)(O)Cn1cc(-c2ccc(-c3cncc(Cl)c3N3CCC4(CCNC4=O)CC3)cc2)cn1

>  <Name>  (551) 
nan

>  <Pocket>  (551) 
nan

>  <ATP_Site>  (551) 
nan

>  <Peripheral>  (551) 
nan

>  <Num_H_Atoms_ProtBoundConf>  (551) 
nan

>  <Num_Resolved_Atoms>  (551) 
nan

>  <Num_Not_Resolved_Atoms>  (551) 
nan

$$$$
CHEMBL3798933
     RDKit          3D

  0  0  0  0  0  0  0  0  0  0999 V3000
M  V30 BEGIN CTAB
M  V30 COUNTS 44 47 0 0 0
M  V30 BEGIN ATOM
M  V30 1 C -1.270076 -4.000336 0.402740 0
M  V30 2 C -1.318390 -2.487842 0.133245 0
M  V30 3 N -0.871374 -1.869246 1.348132 0
M  V30 4 C 0.394680 -1.193949 1.331158 0
M  V30 5 C 0.862729 -0.573042 0.165440 0
M  V30 6 C 2.088791 0.052608 0.243000 0
M  V30 7 N 2.614558 0.710420 -0.932647 0
M  V30 8 C 3.551983 0.408389 -1.852952 0
M  V30 9 O 4.153864 -0.678852 -1.731279 0
M  V30 10 N 3.613874 1.420322 -2.735385 0
M  V30 11 C 2.711756 2.373872 -2.377145 0
M  V30 12 N 2.440573 3.565066 -2.988639 0
M  V30 13 C 1.479846 4.355938 -2.428455 0
M  V30 14 C 0.795070 3.987196 -1.287517 0
M  V30 15 C 1.122145 2.771616 -0.724693 0
M  V30 16 C 2.075292 1.909299 -1.219205 0
M  V30 17 C 2.837477 0.078950 1.404183 0
M  V30 18 C 2.360857 -0.538224 2.544593 0
M  V30 19 C 1.150706 -1.170013 2.511879 0
M  V30 20 C 0.561541 -1.852416 3.682633 0
M  V30 21 O 1.286370 -1.798969 4.715465 0
M  V30 22 N -0.726610 -2.492924 3.564477 0
M  V30 23 C -1.617390 -1.897788 2.578554 0
M  V30 24 C -1.882552 -0.471652 3.009507 0
M  V30 25 C -2.903940 -2.625639 2.538112 0
M  V30 26 H -2.254219 -4.466457 0.404683 0
M  V30 27 H -0.611570 -4.531515 -0.324383 0
M  V30 28 H -0.814238 -4.227290 1.395134 0
M  V30 29 H -0.732497 -2.343810 -0.748616 0
M  V30 30 H -2.373231 -2.263221 -0.123704 0
M  V30 31 H 0.250077 -0.611557 -0.724786 0
M  V30 32 H 4.284632 1.393872 -3.542828 0
M  V30 33 H 1.210512 5.327283 -2.869268 0
M  V30 34 H 0.031270 4.589823 -0.822010 0
M  V30 35 H 0.604464 2.466825 0.159680 0
M  V30 36 H 3.795711 0.578640 1.426443 0
M  V30 37 H 2.910012 -0.544712 3.477979 0
M  V30 38 H -0.828507 -3.304621 4.218719 0
M  V30 39 H -2.518745 0.036916 2.241522 0
M  V30 40 H -0.912289 0.066861 2.996567 0
M  V30 41 H -2.337114 -0.405918 4.013572 0
M  V30 42 H -2.793757 -3.632906 3.027267 0
M  V30 43 H -3.638969 -2.087761 3.207070 0
M  V30 44 H -3.385437 -2.694054 1.569343 0
M  V30 END ATOM
M  V30 BEGIN BOND
M  V30 1 1 1 2
M  V30 2 1 2 3
M  V30 3 1 3 4
M  V30 4 2 4 5
M  V30 5 1 5 6
M  V30 6 1 6 7
M  V30 7 1 7 8
M  V30 8 2 8 9
M  V30 9 1 8 10
M  V30 10 1 10 11
M  V30 11 2 11 12
M  V30 12 1 12 13
M  V30 13 2 13 14
M  V30 14 1 14 15
M  V30 15 2 15 16
M  V30 16 2 6 17
M  V30 17 1 17 18
M  V30 18 2 18 19
M  V30 19 1 19 20
M  V30 20 2 20 21
M  V30 21 1 20 22
M  V30 22 1 22 23
M  V30 23 1 23 24
M  V30 24 1 23 25
M  V30 25 1 23 3
M  V30 26 1 19 4
M  V30 27 1 16 7
M  V30 28 1 16 11
M  V30 29 1 1 26
M  V30 30 1 1 27
M  V30 31 1 1 28
M  V30 32 1 2 29
M  V30 33 1 2 30
M  V30 34 1 5 31
M  V30 35 1 10 32
M  V30 36 1 13 33
M  V30 37 1 14 34
M  V30 38 1 15 35
M  V30 39 1 17 36
M  V30 40 1 18 37
M  V30 41 1 22 38
M  V30 42 1 24 39
M  V30 43 1 24 40
M  V30 44 1 24 41
M  V30 45 1 25 42
M  V30 46 1 25 43
M  V30 47 1 25 44
M  V30 END BOND
M  V30 END CTAB
M  END
>  <Dataset>  (552) 
ChEMBL_Kinases

>  <Ligand_Instance>  (552) 
nan

>  <PDB_ID>  (552) 
nan

>  <Standardized_SMILES>  (552) 
CCN1c2cc(-n3c(=O)[nH]c4ncccc43)ccc2C(=O)NC1(C)C

>  <Name>  (552) 
nan

>  <Pocket>  (552) 
nan

>  <ATP_Site>  (552) 
nan

>  <Peripheral>  (552) 
nan

>  <Num_H_Atoms_ProtBoundConf>  (552) 
nan

>  <Num_Resolved_Atoms>  (552) 
nan

>  <Num_Not_Resolved_Atoms>  (552) 
nan

$$$$
CHEMBL506390
     RDKit          3D

  0  0  0  0  0  0  0  0  0  0999 V3000
M  V30 BEGIN CTAB
M  V30 COUNTS 54 55 0 0 0
M  V30 BEGIN ATOM
M  V30 1 C 1.279929 -1.368174 5.259975 0
M  V30 2 C 1.571968 -2.446764 4.267336 0
M  V30 3 C 2.582513 -1.998819 3.208741 0
M  V30 4 C 2.069291 -0.823239 2.452091 0
M  V30 5 C 3.011627 -0.327833 1.366335 0
M  V30 6 C 3.257436 -1.412571 0.342152 0
M  V30 7 C 4.193134 -0.960493 -0.759830 0
M  V30 8 C 2.522853 0.929964 0.765109 0
M  V30 9 O 3.179365 2.025506 0.772990 0
M  V30 10 O 1.263031 0.944722 0.141094 0
M  V30 11 C 0.762831 2.138895 -0.447808 0
M  V30 12 C -0.610827 1.819369 -1.021431 0
M  V30 13 C -1.214756 3.078154 -1.610318 0
M  V30 14 O -2.452305 2.846918 -2.172028 0
M  V30 15 C -1.521515 1.309373 0.041720 0
M  V30 16 C -2.038328 0.044242 -0.520199 0
M  V30 17 C -3.091111 -0.669447 -0.185832 0
M  V30 18 C -3.591017 -1.914542 -0.752334 0
M  V30 19 C -3.786559 -2.318887 -2.056149 0
M  V30 20 C -4.258400 -3.579239 -2.355153 0
M  V30 21 C -4.551406 -4.480246 -1.324697 0
M  V30 22 Cl -5.151010 -6.071952 -1.747333 0
M  V30 23 C -4.362826 -4.093936 -0.020636 0
M  V30 24 F -4.655502 -4.988463 0.972435 0
M  V30 25 C -3.885494 -2.820559 0.279723 0
M  V30 26 C -1.117212 -0.357657 -1.572549 0
M  V30 27 O -0.991452 -1.542729 -1.999843 0
M  V30 28 O -0.444082 0.809352 -1.972842 0
M  V30 29 H 1.337671 -1.729303 6.318287 0
M  V30 30 H 0.284974 -0.894920 5.053757 0
M  V30 31 H 2.019961 -0.538164 5.124527 0
M  V30 32 H 1.935663 -3.371866 4.775907 0
M  V30 33 H 0.649589 -2.671519 3.696689 0
M  V30 34 H 3.461785 -1.634125 3.828621 0
M  V30 35 H 2.952944 -2.833277 2.617963 0
M  V30 36 H 1.886065 0.047385 3.136557 0
M  V30 37 H 1.118158 -1.128128 1.950730 0
M  V30 38 H 4.001696 -0.061282 1.838755 0
M  V30 39 H 3.722490 -2.286444 0.826643 0
M  V30 40 H 2.298546 -1.752265 -0.112983 0
M  V30 41 H 3.616478 -0.595179 -1.637445 0
M  V30 42 H 4.881582 -0.173764 -0.345415 0
M  V30 43 H 4.780892 -1.835356 -1.102868 0
M  V30 44 H 0.645455 2.905254 0.330164 0
M  V30 45 H 1.459131 2.476936 -1.242490 0
M  V30 46 H -0.570806 3.594146 -2.315455 0
M  V30 47 H -1.415800 3.745135 -0.719097 0
M  V30 48 H -2.400990 2.466574 -3.085142 0
M  V30 49 H -1.041700 1.134862 1.027971 0
M  V30 50 H -2.350624 2.038623 0.253276 0
M  V30 51 H -3.645828 -0.209128 0.654806 0
M  V30 52 H -3.546358 -1.541233 -2.762391 0
M  V30 53 H -4.381353 -3.811324 -3.402191 0
M  V30 54 H -3.778840 -2.636030 1.348805 0
M  V30 END ATOM
M  V30 BEGIN BOND
M  V30 1 1 1 2
M  V30 2 1 2 3
M  V30 3 1 3 4
M  V30 4 1 4 5
M  V30 5 1 5 6
M  V30 6 1 6 7
M  V30 7 1 5 8
M  V30 8 2 8 9
M  V30 9 1 8 10
M  V30 10 1 10 11
M  V30 11 1 11 12
M  V30 12 1 12 13
M  V30 13 1 13 14
M  V30 14 1 12 15
M  V30 15 1 15 16
M  V30 16 2 16 17
M  V30 17 1 17 18
M  V30 18 2 18 19
M  V30 19 1 19 20
M  V30 20 2 20 21
M  V30 21 1 21 22
M  V30 22 1 21 23
M  V30 23 1 23 24
M  V30 24 2 23 25
M  V30 25 1 16 26
M  V30 26 2 26 27
M  V30 27 1 26 28
M  V30 28 1 28 12
M  V30 29 1 25 18
M  V30 30 1 1 29
M  V30 31 1 1 30
M  V30 32 1 1 31
M  V30 33 1 2 32
M  V30 34 1 2 33
M  V30 35 1 3 34
M  V30 36 1 3 35
M  V30 37 1 4 36
M  V30 38 1 4 37
M  V30 39 1 5 38
M  V30 40 1 6 39
M  V30 41 1 6 40
M  V30 42 1 7 41
M  V30 43 1 7 42
M  V30 44 1 7 43
M  V30 45 1 11 44
M  V30 46 1 11 45
M  V30 47 1 13 46
M  V30 48 1 13 47
M  V30 49 1 14 48
M  V30 50 1 15 49
M  V30 51 1 15 50
M  V30 52 1 17 51
M  V30 53 1 19 52
M  V30 54 1 20 53
M  V30 55 1 25 54
M  V30 END BOND
M  V30 END CTAB
M  END
>  <Dataset>  (553) 
ChEMBL_Kinases

>  <Ligand_Instance>  (553) 
nan

>  <PDB_ID>  (553) 
nan

>  <Standardized_SMILES>  (553) 
CCCCC(CC)C(=O)OCC1(CO)C/C(=C/c2ccc(Cl)c(F)c2)C(=O)O1

>  <Name>  (553) 
nan

>  <Pocket>  (553) 
nan

>  <ATP_Site>  (553) 
nan

>  <Peripheral>  (553) 
nan

>  <Num_H_Atoms_ProtBoundConf>  (553) 
nan

>  <Num_Resolved_Atoms>  (553) 
nan

>  <Num_Not_Resolved_Atoms>  (553) 
nan

$$$$
CHEMBL50658
     RDKit          3D

  0  0  0  0  0  0  0  0  0  0999 V3000
M  V30 BEGIN CTAB
M  V30 COUNTS 60 61 0 0 0
M  V30 BEGIN ATOM
M  V30 1 C -3.631237 -2.602855 3.445943 0
M  V30 2 C -2.291649 -2.734736 4.104879 0
M  V30 3 C -1.293330 -1.681858 3.551099 0
M  V30 4 C -1.162857 -1.917015 2.111811 0
M  V30 5 C -0.283907 -1.053701 1.279613 0
M  V30 6 C 1.126902 -1.085482 1.633962 0
M  V30 7 C 1.663550 -0.721600 2.950722 0
M  V30 8 C 1.383959 0.648006 3.473803 0
M  V30 9 C 2.030877 0.785879 4.844086 0
M  V30 10 C -0.903766 0.293593 1.045649 0
M  V30 11 C 0.002157 1.128800 0.220873 0
M  V30 12 C 0.181256 0.557101 -1.162898 0 CFG=1
M  V30 13 C 1.405417 1.262944 -1.710849 0
M  V30 14 C 1.673745 0.880731 -3.116948 0
M  V30 15 O 2.696732 1.419845 -3.586460 0
M  V30 16 N 0.885432 -0.011820 -3.924116 0
M  V30 17 C -0.434168 -0.481772 -3.645414 0 CFG=1
M  V30 18 C -0.865988 -1.332178 -4.852607 0
M  V30 19 O -2.138230 -1.810476 -4.630830 0
M  V30 20 C -0.605175 -1.342177 -2.456488 0
M  V30 21 C 0.231806 -0.921415 -1.229298 0 CFG=1
M  V30 22 C 1.620213 -1.486914 -1.512261 0
M  V30 23 C -0.359579 -1.700668 -0.131735 0
M  V30 24 H -3.730678 -1.585696 3.035849 0
M  V30 25 H -4.467867 -2.843775 4.156589 0
M  V30 26 H -3.723466 -3.319152 2.604733 0
M  V30 27 H -1.806443 -3.705867 3.872061 0
M  V30 28 H -2.322482 -2.643594 5.210786 0
M  V30 29 H -1.783969 -0.685566 3.782712 0
M  V30 30 H -0.456006 -1.754797 4.215768 0
M  V30 31 H -0.918347 -3.022669 1.964197 0
M  V30 32 H -2.224505 -1.882556 1.691855 0
M  V30 33 H 1.439829 -2.183446 1.491116 0
M  V30 34 H 1.793656 -0.591338 0.866573 0
M  V30 35 H 1.691277 -1.528284 3.727469 0
M  V30 36 H 2.819883 -0.647916 2.767734 0
M  V30 37 H 1.913017 1.416732 2.836517 0
M  V30 38 H 0.348565 0.935313 3.593929 0
M  V30 39 H 1.467975 1.512531 5.464940 0
M  V30 40 H 3.069656 1.154337 4.756023 0
M  V30 41 H 1.997232 -0.200263 5.353001 0
M  V30 42 H -1.316985 0.799932 1.919504 0
M  V30 43 H -1.812592 0.108618 0.393713 0
M  V30 44 H 0.979098 1.385248 0.670103 0
M  V30 45 H -0.508997 2.136462 0.148869 0
M  V30 46 H -0.666005 0.955997 -1.758732 0
M  V30 47 H 1.104223 2.351624 -1.759641 0
M  V30 48 H 2.274864 1.246994 -1.050353 0
M  V30 49 H 1.400946 -0.312660 -4.803967 0
M  V30 50 H -1.170156 0.375069 -3.684151 0
M  V30 51 H -0.101421 -2.142016 -4.928222 0
M  V30 52 H -0.801672 -0.716842 -5.780933 0
M  V30 53 H -2.065926 -2.747541 -4.303720 0
M  V30 54 H -1.663893 -1.253470 -2.125419 0
M  V30 55 H -0.415465 -2.403988 -2.661381 0
M  V30 56 H 2.425572 -0.746882 -1.430585 0
M  V30 57 H 1.854261 -2.371619 -0.857477 0
M  V30 58 H 1.716759 -1.910244 -2.539629 0
M  V30 59 H 0.137698 -2.683350 0.000183 0
M  V30 60 H -1.453120 -1.932520 -0.277682 0
M  V30 END ATOM
M  V30 BEGIN BOND
M  V30 1 1 1 2
M  V30 2 1 2 3
M  V30 3 1 3 4
M  V30 4 1 4 5
M  V30 5 1 5 6
M  V30 6 1 6 7
M  V30 7 1 7 8
M  V30 8 1 8 9
M  V30 9 1 5 10
M  V30 10 1 10 11
M  V30 11 1 11 12
M  V30 12 1 12 13
M  V30 13 1 13 14
M  V30 14 2 14 15
M  V30 15 1 14 16
M  V30 16 1 16 17
M  V30 17 1 17 18
M  V30 18 1 18 19
M  V30 19 1 17 20
M  V30 20 1 20 21
M  V30 21 1 21 22 CFG=3
M  V30 22 1 21 23
M  V30 23 1 23 5
M  V30 24 1 21 12
M  V30 25 1 1 24
M  V30 26 1 1 25
M  V30 27 1 1 26
M  V30 28 1 2 27
M  V30 29 1 2 28
M  V30 30 1 3 29
M  V30 31 1 3 30
M  V30 32 1 4 31
M  V30 33 1 4 32
M  V30 34 1 6 33
M  V30 35 1 6 34
M  V30 36 1 7 35
M  V30 37 1 7 36
M  V30 38 1 8 37
M  V30 39 1 8 38
M  V30 40 1 9 39
M  V30 41 1 9 40
M  V30 42 1 9 41
M  V30 43 1 10 42
M  V30 44 1 10 43
M  V30 45 1 11 44
M  V30 46 1 11 45
M  V30 47 1 12 46 CFG=3
M  V30 48 1 13 47
M  V30 49 1 13 48
M  V30 50 1 16 49
M  V30 51 1 17 50 CFG=1
M  V30 52 1 18 51
M  V30 53 1 18 52
M  V30 54 1 19 53
M  V30 55 1 20 54
M  V30 56 1 20 55
M  V30 57 1 22 56
M  V30 58 1 22 57
M  V30 59 1 22 58
M  V30 60 1 23 59
M  V30 61 1 23 60
M  V30 END BOND
M  V30 END CTAB
M  END
>  <Dataset>  (554) 
ChEMBL_Kinases

>  <Ligand_Instance>  (554) 
nan

>  <PDB_ID>  (554) 
nan

>  <Standardized_SMILES>  (554) 
CCCCC1(CCCC)CC[C@H]2CC(=O)N[C@@H](CO)C[C@]2(C)C1

>  <Name>  (554) 
nan

>  <Pocket>  (554) 
nan

>  <ATP_Site>  (554) 
nan

>  <Peripheral>  (554) 
nan

>  <Num_H_Atoms_ProtBoundConf>  (554) 
nan

>  <Num_Resolved_Atoms>  (554) 
nan

>  <Num_Not_Resolved_Atoms>  (554) 
nan

$$$$
CHEMBL3798888
     RDKit          3D

  0  0  0  0  0  0  0  0  0  0999 V3000
M  V30 BEGIN CTAB
M  V30 COUNTS 38 40 0 0 0
M  V30 BEGIN ATOM
M  V30 1 C -0.635625 -1.576589 3.664292 0
M  V30 2 C -0.421141 -1.974264 2.190099 0
M  V30 3 N -0.848141 -0.854485 1.410341 0
M  V30 4 C 0.170601 -0.107451 0.729765 0
M  V30 5 C 1.314596 -0.722137 0.253739 0
M  V30 6 C 2.274183 0.026198 -0.392429 0
M  V30 7 C 3.498158 -0.580075 -0.913467 0
M  V30 8 C 4.806768 -0.149949 -1.096495 0
M  V30 9 N 5.506381 -1.184222 -1.633723 0
M  V30 10 N 4.711900 -2.242320 -1.799839 0
M  V30 11 C 3.483723 -1.903342 -1.369851 0
M  V30 12 C 2.021641 1.385338 -0.526734 0
M  V30 13 C 0.894334 2.037694 -0.067405 0
M  V30 14 C -0.045598 1.270266 0.572165 0
M  V30 15 C -1.300220 1.841377 1.112641 0
M  V30 16 O -1.426536 3.084269 0.938021 0
M  V30 17 N -2.239336 0.961332 1.770802 0
M  V30 18 C -2.216454 -0.407635 1.275191 0
M  V30 19 C -2.590737 -0.364105 -0.200343 0
M  V30 20 C -3.231801 -1.202481 1.992275 0
M  V30 21 H -0.180127 -0.584412 3.859937 0
M  V30 22 H -1.667797 -1.663612 3.987685 0
M  V30 23 H -0.053560 -2.297211 4.268901 0
M  V30 24 H -1.066573 -2.866306 2.045437 0
M  V30 25 H 0.591903 -2.285264 2.134336 0
M  V30 26 H 1.432641 -1.786751 0.400310 0
M  V30 27 H 5.068826 0.859031 -0.813205 0
M  V30 28 H 5.069380 -3.146142 -2.204344 0
M  V30 29 H 2.666117 -2.627403 -1.411852 0
M  V30 30 H 2.769313 1.981822 -1.032651 0
M  V30 31 H 0.743383 3.098108 -0.195250 0
M  V30 32 H -2.795123 1.466700 2.515491 0
M  V30 33 H -1.737570 -0.659756 -0.840975 0
M  V30 34 H -2.903153 0.654639 -0.510256 0
M  V30 35 H -3.404283 -1.085973 -0.450650 0
M  V30 36 H -3.592825 -0.725895 2.942624 0
M  V30 37 H -4.172481 -1.205506 1.361190 0
M  V30 38 H -3.020047 -2.284620 2.116409 0
M  V30 END ATOM
M  V30 BEGIN BOND
M  V30 1 1 1 2
M  V30 2 1 2 3
M  V30 3 1 3 4
M  V30 4 2 4 5
M  V30 5 1 5 6
M  V30 6 1 6 7
M  V30 7 1 7 8
M  V30 8 2 8 9
M  V30 9 1 9 10
M  V30 10 1 10 11
M  V30 11 2 6 12
M  V30 12 1 12 13
M  V30 13 2 13 14
M  V30 14 1 14 15
M  V30 15 2 15 16
M  V30 16 1 15 17
M  V30 17 1 17 18
M  V30 18 1 18 19
M  V30 19 1 18 20
M  V30 20 1 18 3
M  V30 21 1 14 4
M  V30 22 2 11 7
M  V30 23 1 1 21
M  V30 24 1 1 22
M  V30 25 1 1 23
M  V30 26 1 2 24
M  V30 27 1 2 25
M  V30 28 1 5 26
M  V30 29 1 8 27
M  V30 30 1 10 28
M  V30 31 1 11 29
M  V30 32 1 12 30
M  V30 33 1 13 31
M  V30 34 1 17 32
M  V30 35 1 19 33
M  V30 36 1 19 34
M  V30 37 1 19 35
M  V30 38 1 20 36
M  V30 39 1 20 37
M  V30 40 1 20 38
M  V30 END BOND
M  V30 END CTAB
M  END
>  <Dataset>  (555) 
ChEMBL_Kinases

>  <Ligand_Instance>  (555) 
nan

>  <PDB_ID>  (555) 
nan

>  <Standardized_SMILES>  (555) 
CCN1c2cc(-c3cn[nH]c3)ccc2C(=O)NC1(C)C

>  <Name>  (555) 
nan

>  <Pocket>  (555) 
nan

>  <ATP_Site>  (555) 
nan

>  <Peripheral>  (555) 
nan

>  <Num_H_Atoms_ProtBoundConf>  (555) 
nan

>  <Num_Resolved_Atoms>  (555) 
nan

>  <Num_Not_Resolved_Atoms>  (555) 
nan

$$$$
CHEMBL3798886
     RDKit          3D

  0  0  0  0  0  0  0  0  0  0999 V3000
M  V30 BEGIN CTAB
M  V30 COUNTS 60 63 0 0 0
M  V30 BEGIN ATOM
M  V30 1 C 1.298553 -3.181187 2.279374 0
M  V30 2 N 1.922199 -2.277319 1.296827 0
M  V30 3 C 2.590261 -3.073941 0.263003 0
M  V30 4 C 2.889400 -1.511160 2.012992 0
M  V30 5 C 3.648914 -0.497512 1.256089 0
M  V30 6 C 2.901509 0.603117 0.605729 0
M  V30 7 C 3.927856 1.449902 -0.065370 0
M  V30 8 N 4.748931 2.117744 -0.578310 0
M  V30 9 C 2.127075 1.481537 1.522286 0
M  V30 10 C 0.630680 1.448478 1.262710 0
M  V30 11 N 0.323561 1.709204 -0.141563 0
M  V30 12 C -0.976872 2.201413 -0.252932 0
M  V30 13 C -1.055617 3.597891 -0.190320 0
M  V30 14 Cl 0.366012 4.635058 -0.008438 0
M  V30 15 C -2.266691 4.271959 -0.267465 0
M  V30 16 N -3.421014 3.564745 -0.408448 0
M  V30 17 C -3.367688 2.208507 -0.471465 0
M  V30 18 C -2.169164 1.529336 -0.395829 0
M  V30 19 C -2.157349 0.076470 -0.472141 0
M  V30 20 C -1.396083 -0.752771 -1.272618 0
M  V30 21 C -1.527727 -2.122721 -1.184535 0
M  V30 22 C -2.401892 -2.747095 -0.318295 0
M  V30 23 C -3.186052 -1.987598 0.502361 0
M  V30 24 C -3.036337 -0.594488 0.397046 0
M  V30 25 C -4.105719 -2.729363 1.406130 0
M  V30 26 S -3.365670 -4.345422 1.348694 0
M  V30 27 O -4.371005 -5.447024 1.320672 0
M  V30 28 O -2.385423 -4.478504 2.459739 0
M  V30 29 N -2.566191 -4.154632 -0.196169 0
M  V30 30 C -2.182094 -5.209266 -1.102918 0
M  V30 31 C 1.393123 1.424178 -1.077188 0
M  V30 32 C 2.029152 0.121246 -0.558765 0
M  V30 33 H 0.211808 -2.887279 2.329689 0
M  V30 34 H 1.739072 -3.076000 3.286879 0
M  V30 35 H 1.437969 -4.227944 1.978868 0
M  V30 36 H 2.215495 -2.756083 -0.730342 0
M  V30 37 H 3.668295 -2.989623 0.396058 0
M  V30 38 H 2.228163 -4.115528 0.388549 0
M  V30 39 H 3.645371 -2.258558 2.396059 0
M  V30 40 H 2.403881 -1.139235 2.936980 0
M  V30 41 H 4.251406 -1.043151 0.480912 0
M  V30 42 H 4.424988 -0.055953 1.940608 0
M  V30 43 H 2.259213 1.268750 2.597579 0
M  V30 44 H 2.407889 2.548856 1.406237 0
M  V30 45 H 0.211489 2.213414 1.949123 0
M  V30 46 H 0.156202 0.499757 1.564377 0
M  V30 47 H -2.335331 5.346057 -0.220106 0
M  V30 48 H -4.260847 1.617689 -0.582764 0
M  V30 49 H -0.735156 -0.251106 -1.938436 0
M  V30 50 H -0.882123 -2.666215 -1.858292 0
M  V30 51 H -3.666930 0.024983 1.057304 0
M  V30 52 H -5.133533 -2.797915 0.978861 0
M  V30 53 H -4.108599 -2.286521 2.420456 0
M  V30 54 H -1.247337 -5.658945 -0.673915 0
M  V30 55 H -1.892568 -4.765687 -2.069243 0
M  V30 56 H -2.966500 -5.995388 -1.212342 0
M  V30 57 H 1.093742 1.374602 -2.115754 0
M  V30 58 H 2.113192 2.267762 -0.971399 0
M  V30 59 H 2.616465 -0.360476 -1.342780 0
M  V30 60 H 1.242320 -0.506009 -0.099179 0
M  V30 END ATOM
M  V30 BEGIN BOND
M  V30 1 1 1 2
M  V30 2 1 2 3
M  V30 3 1 2 4
M  V30 4 1 4 5
M  V30 5 1 5 6
M  V30 6 1 6 7
M  V30 7 3 7 8
M  V30 8 1 6 9
M  V30 9 1 9 10
M  V30 10 1 10 11
M  V30 11 1 11 12
M  V30 12 2 12 13
M  V30 13 1 13 14
M  V30 14 1 13 15
M  V30 15 2 15 16
M  V30 16 1 16 17
M  V30 17 2 17 18
M  V30 18 1 18 19
M  V30 19 2 19 20
M  V30 20 1 20 21
M  V30 21 2 21 22
M  V30 22 1 22 23
M  V30 23 2 23 24
M  V30 24 1 23 25
M  V30 25 1 25 26
M  V30 26 2 26 27
M  V30 27 2 26 28
M  V30 28 1 26 29
M  V30 29 1 29 30
M  V30 30 1 11 31
M  V30 31 1 31 32
M  V30 32 1 32 6
M  V30 33 1 18 12
M  V30 34 1 24 19
M  V30 35 1 29 22
M  V30 36 1 1 33
M  V30 37 1 1 34
M  V30 38 1 1 35
M  V30 39 1 3 36
M  V30 40 1 3 37
M  V30 41 1 3 38
M  V30 42 1 4 39
M  V30 43 1 4 40
M  V30 44 1 5 41
M  V30 45 1 5 42
M  V30 46 1 9 43
M  V30 47 1 9 44
M  V30 48 1 10 45
M  V30 49 1 10 46
M  V30 50 1 15 47
M  V30 51 1 17 48
M  V30 52 1 20 49
M  V30 53 1 21 50
M  V30 54 1 24 51
M  V30 55 1 25 52
M  V30 56 1 25 53
M  V30 57 1 30 54
M  V30 58 1 30 55
M  V30 59 1 30 56
M  V30 60 1 31 57
M  V30 61 1 31 58
M  V30 62 1 32 59
M  V30 63 1 32 60
M  V30 END BOND
M  V30 END CTAB
M  END
>  <Dataset>  (556) 
ChEMBL_Kinases

>  <Ligand_Instance>  (556) 
nan

>  <PDB_ID>  (556) 
nan

>  <Standardized_SMILES>  (556) 
CN(C)CCC1(C#N)CCN(c2c(Cl)cncc2-c2ccc3c(c2)CS(=O)(=O)N3C)CC1

>  <Name>  (556) 
nan

>  <Pocket>  (556) 
nan

>  <ATP_Site>  (556) 
nan

>  <Peripheral>  (556) 
nan

>  <Num_H_Atoms_ProtBoundConf>  (556) 
nan

>  <Num_Resolved_Atoms>  (556) 
nan

>  <Num_Not_Resolved_Atoms>  (556) 
nan

$$$$
CHEMBL3798853
     RDKit          3D

  0  0  0  0  0  0  0  0  0  0999 V3000
M  V30 BEGIN CTAB
M  V30 COUNTS 53 57 0 0 0
M  V30 BEGIN ATOM
M  V30 1 C -2.168061 -3.728285 5.212841 0
M  V30 2 N -1.398600 -3.542266 3.979395 0
M  V30 3 C -0.804999 -2.343307 3.527730 0
M  V30 4 C -0.903658 -1.041796 3.979703 0
M  V30 5 C -0.224880 0.035557 3.386838 0
M  V30 6 C 0.607396 -0.193902 2.270953 0
M  V30 7 C 1.178406 1.070672 1.879138 0
M  V30 8 C 1.813489 1.903442 2.779752 0
M  V30 9 N 2.343390 3.083315 2.410253 0
M  V30 10 C 2.269421 3.492320 1.135809 0
M  V30 11 N 2.855853 4.736677 0.864062 0
M  V30 12 C 1.636089 2.685326 0.182954 0
M  V30 13 Cl 1.625135 3.362665 -1.432103 0
M  V30 14 C 1.084207 1.459091 0.561799 0
M  V30 15 N 0.498546 0.808476 -0.561629 0
M  V30 16 C 1.229060 -0.072724 -1.452422 0
M  V30 17 C 0.367509 -1.192921 -1.896796 0
M  V30 18 C -1.041471 -0.870702 -2.237395 0
M  V30 19 C -1.699104 0.190554 -1.476714 0
M  V30 20 C -0.903500 1.147953 -0.690863 0
M  V30 21 C -1.121235 -0.563143 -3.721396 0
M  V30 22 N -0.700471 -1.844478 -4.280969 0
M  V30 23 C -1.205492 -2.800815 -3.333141 0
M  V30 24 O -1.143902 -4.062114 -3.475649 0
M  V30 25 O -1.768752 -2.111370 -2.241174 0
M  V30 26 C 0.691251 -1.497103 1.838317 0
M  V30 27 C 0.011628 -2.536389 2.441632 0
M  V30 28 C 0.172850 -3.918603 1.892287 0
M  V30 29 S -1.068680 -4.783778 2.825953 0
M  V30 30 O -2.305636 -5.054430 2.020161 0
M  V30 31 O -0.521763 -6.014170 3.474631 0
M  V30 32 H -2.195191 -4.778332 5.503459 0
M  V30 33 H -3.194754 -3.338421 4.951155 0
M  V30 34 H -1.752645 -3.025361 5.945267 0
M  V30 35 H -1.560091 -0.903553 4.849484 0
M  V30 36 H -0.444463 0.984395 3.903436 0
M  V30 37 H 1.841978 1.512166 3.810191 0
M  V30 38 H 3.639486 4.855806 0.204542 0
M  V30 39 H 2.399030 5.512100 1.410683 0
M  V30 40 H 1.549818 0.506464 -2.371147 0
M  V30 41 H 2.138000 -0.482969 -0.980671 0
M  V30 42 H 0.418664 -2.001315 -1.136660 0
M  V30 43 H 0.899783 -1.652735 -2.786753 0
M  V30 44 H -2.419789 0.765629 -2.134114 0
M  V30 45 H -2.408272 -0.313962 -0.751957 0
M  V30 46 H -1.388939 1.391019 0.295483 0
M  V30 47 H -0.897370 2.157926 -1.204152 0
M  V30 48 H -0.486225 0.281724 -4.029893 0
M  V30 49 H -2.190604 -0.453540 -4.023639 0
M  V30 50 H -0.161992 -1.995597 -5.162884 0
M  V30 51 H 1.352435 -1.530911 1.005555 0
M  V30 52 H -0.111790 -3.954647 0.815974 0
M  V30 53 H 1.154969 -4.353618 2.090285 0
M  V30 END ATOM
M  V30 BEGIN BOND
M  V30 1 1 1 2
M  V30 2 1 2 3
M  V30 3 2 3 4
M  V30 4 1 4 5
M  V30 5 2 5 6
M  V30 6 1 6 7
M  V30 7 2 7 8
M  V30 8 1 8 9
M  V30 9 2 9 10
M  V30 10 1 10 11
M  V30 11 1 10 12
M  V30 12 1 12 13
M  V30 13 2 12 14
M  V30 14 1 14 15
M  V30 15 1 15 16
M  V30 16 1 16 17
M  V30 17 1 17 18
M  V30 18 1 18 19
M  V30 19 1 19 20
M  V30 20 1 18 21
M  V30 21 1 21 22
M  V30 22 1 22 23
M  V30 23 2 23 24
M  V30 24 1 23 25
M  V30 25 1 6 26
M  V30 26 2 26 27
M  V30 27 1 27 28
M  V30 28 1 28 29
M  V30 29 2 29 30
M  V30 30 2 29 31
M  V30 31 1 29 2
M  V30 32 1 27 3
M  V30 33 1 14 7
M  V30 34 1 20 15
M  V30 35 1 25 18
M  V30 36 1 1 32
M  V30 37 1 1 33
M  V30 38 1 1 34
M  V30 39 1 4 35
M  V30 40 1 5 36
M  V30 41 1 8 37
M  V30 42 1 11 38
M  V30 43 1 11 39
M  V30 44 1 16 40
M  V30 45 1 16 41
M  V30 46 1 17 42
M  V30 47 1 17 43
M  V30 48 1 19 44
M  V30 49 1 19 45
M  V30 50 1 20 46
M  V30 51 1 20 47
M  V30 52 1 21 48
M  V30 53 1 21 49
M  V30 54 1 22 50
M  V30 55 1 26 51
M  V30 56 1 28 52
M  V30 57 1 28 53
M  V30 END BOND
M  V30 END CTAB
M  END
>  <Dataset>  (557) 
ChEMBL_Kinases

>  <Ligand_Instance>  (557) 
nan

>  <PDB_ID>  (557) 
nan

>  <Standardized_SMILES>  (557) 
CN1c2ccc(-c3cnc(N)c(Cl)c3N3CCC4(CC3)CNC(=O)O4)cc2CS1(=O)=O

>  <Name>  (557) 
nan

>  <Pocket>  (557) 
nan

>  <ATP_Site>  (557) 
nan

>  <Peripheral>  (557) 
nan

>  <Num_H_Atoms_ProtBoundConf>  (557) 
nan

>  <Num_Resolved_Atoms>  (557) 
nan

>  <Num_Not_Resolved_Atoms>  (557) 
nan

$$$$
CHEMBL591275
     RDKit          3D

  0  0  0  0  0  0  0  0  0  0999 V3000
M  V30 BEGIN CTAB
M  V30 COUNTS 59 63 0 0 0
M  V30 BEGIN ATOM
M  V30 1 C 2.439814 -4.587562 4.080541 0
M  V30 2 C 2.303438 -3.726044 2.874428 0
M  V30 3 C 3.336920 -3.737390 1.968238 0
M  V30 4 C 3.210727 -2.941514 0.854542 0
M  V30 5 C 2.129346 -2.139816 0.585049 0
M  V30 6 N 1.947859 -1.308140 -0.536506 0
M  V30 7 C 2.708886 -1.024993 -1.661812 0
M  V30 8 O 3.813032 -1.669663 -1.624111 0
M  V30 9 C 2.577378 -0.203756 -2.829228 0
M  V30 10 N 3.735913 0.289537 -3.358956 0
M  V30 11 C 3.445936 1.057406 -4.429907 0
M  V30 12 C 4.433076 1.776106 -5.280833 0
M  V30 13 F 4.032925 1.564951 -6.599951 0
M  V30 14 F 5.692932 1.218550 -5.174005 0
M  V30 15 F 4.518997 3.096794 -4.951483 0
M  V30 16 N 2.117346 1.018027 -4.536875 0
M  V30 17 C 1.552418 0.258510 -3.583040 0
M  V30 18 C 0.148604 0.051596 -3.467827 0
M  V30 19 C -0.667200 0.942241 -4.132321 0
M  V30 20 C -2.041463 0.831764 -4.152124 0
M  V30 21 C -2.709489 -0.179591 -3.508551 0
M  V30 22 F -4.043195 -0.291858 -3.523555 0
M  V30 23 C -1.926643 -1.090746 -2.833684 0
M  V30 24 F -2.518840 -2.109852 -2.180221 0
M  V30 25 C -0.565193 -0.931753 -2.848365 0
M  V30 26 C 1.141911 -2.189398 1.543396 0
M  V30 27 C 1.188337 -2.946353 2.669519 0
M  V30 28 N 0.197027 -3.002826 3.679792 0
M  V30 29 C -1.037497 -2.340793 3.906365 0
M  V30 30 C -2.189010 -2.941077 4.431396 0
M  V30 31 C -3.346220 -2.249440 4.647316 0
M  V30 32 C -3.437447 -0.909117 4.354992 0
M  V30 33 N -4.598006 -0.271561 4.584777 0
M  V30 34 C -4.717571 1.041246 4.308486 0
M  V30 35 N -3.667333 1.691818 3.805330 0
M  V30 36 C -3.706879 3.108623 3.477635 0
M  V30 37 C -2.500975 1.063859 3.571337 0
M  V30 38 O -1.490068 1.679091 3.089683 0
M  V30 39 C -2.324930 -0.279408 3.836280 0
M  V30 40 C -1.167140 -0.998325 3.626954 0
M  V30 41 H 1.760881 -5.470243 4.025528 0
M  V30 42 H 2.245213 -4.006328 5.016258 0
M  V30 43 H 3.461450 -4.967185 4.175167 0
M  V30 44 H 4.210490 -4.352629 2.135582 0
M  V30 45 H 4.039213 -2.976970 0.169179 0
M  V30 46 H 1.069438 -0.722779 -0.566545 0
M  V30 47 H 1.653375 1.561323 -5.324219 0
M  V30 48 H -0.265046 1.801487 -4.689459 0
M  V30 49 H -2.624207 1.556588 -4.684979 0
M  V30 50 H -0.026061 -1.701169 -2.330466 0
M  V30 51 H 0.252506 -1.595693 1.395357 0
M  V30 52 H 0.310232 -3.648420 4.488690 0
M  V30 53 H -2.085452 -4.007041 4.653786 0
M  V30 54 H -4.181413 -2.820114 5.060551 0
M  V30 55 H -5.645445 1.553297 4.491583 0
M  V30 56 H -3.253861 3.321235 2.474308 0
M  V30 57 H -4.752928 3.474804 3.412606 0
M  V30 58 H -3.114560 3.726184 4.187346 0
M  V30 59 H -0.402678 -0.360423 3.236573 0
M  V30 END ATOM
M  V30 BEGIN BOND
M  V30 1 1 1 2
M  V30 2 2 2 3
M  V30 3 1 3 4
M  V30 4 2 4 5
M  V30 5 1 5 6
M  V30 6 1 6 7
M  V30 7 2 7 8
M  V30 8 1 7 9
M  V30 9 1 9 10
M  V30 10 2 10 11
M  V30 11 1 11 12
M  V30 12 1 12 13
M  V30 13 1 12 14
M  V30 14 1 12 15
M  V30 15 1 11 16
M  V30 16 1 16 17
M  V30 17 1 17 18
M  V30 18 2 18 19
M  V30 19 1 19 20
M  V30 20 2 20 21
M  V30 21 1 21 22
M  V30 22 1 21 23
M  V30 23 1 23 24
M  V30 24 2 23 25
M  V30 25 1 5 26
M  V30 26 2 26 27
M  V30 27 1 27 28
M  V30 28 1 28 29
M  V30 29 2 29 30
M  V30 30 1 30 31
M  V30 31 2 31 32
M  V30 32 1 32 33
M  V30 33 2 33 34
M  V30 34 1 34 35
M  V30 35 1 35 36
M  V30 36 1 35 37
M  V30 37 2 37 38
M  V30 38 1 37 39
M  V30 39 2 39 40
M  V30 40 1 27 2
M  V30 41 1 40 29
M  V30 42 2 17 9
M  V30 43 1 25 18
M  V30 44 1 39 32
M  V30 45 1 1 41
M  V30 46 1 1 42
M  V30 47 1 1 43
M  V30 48 1 3 44
M  V30 49 1 4 45
M  V30 50 1 6 46
M  V30 51 1 16 47
M  V30 52 1 19 48
M  V30 53 1 20 49
M  V30 54 1 25 50
M  V30 55 1 26 51
M  V30 56 1 28 52
M  V30 57 1 30 53
M  V30 58 1 31 54
M  V30 59 1 34 55
M  V30 60 1 36 56
M  V30 61 1 36 57
M  V30 62 1 36 58
M  V30 63 1 40 59
M  V30 END BOND
M  V30 END CTAB
M  END
>  <Dataset>  (558) 
ChEMBL_Kinases

>  <Ligand_Instance>  (558) 
nan

>  <PDB_ID>  (558) 
nan

>  <Standardized_SMILES>  (558) 
Cc1ccc(NC(=O)c2nc(C(F)(F)F)[nH]c2-c2ccc(F)c(F)c2)cc1Nc1ccc2ncn(C)c(=O)c2c1

>  <Name>  (558) 
nan

>  <Pocket>  (558) 
nan

>  <ATP_Site>  (558) 
nan

>  <Peripheral>  (558) 
nan

>  <Num_H_Atoms_ProtBoundConf>  (558) 
nan

>  <Num_Resolved_Atoms>  (558) 
nan

>  <Num_Not_Resolved_Atoms>  (558) 
nan

$$$$
CHEMBL498212
     RDKit          3D

  0  0  0  0  0  0  0  0  0  0999 V3000
M  V30 BEGIN CTAB
M  V30 COUNTS 46 49 0 0 0
M  V30 BEGIN ATOM
M  V30 1 C 2.053011 -5.089868 2.833090 0
M  V30 2 C 1.436141 -3.899453 3.542288 0
M  V30 3 C 0.146467 -4.296360 4.251695 0
M  V30 4 N 2.378965 -3.505894 4.580149 0
M  V30 5 C 1.165773 -2.784444 2.598203 0
M  V30 6 C 2.100209 -1.804270 2.336729 0
M  V30 7 C 1.790941 -0.785799 1.444120 0
M  V30 8 N 0.598355 -0.697462 0.801283 0
M  V30 9 C 0.115419 0.198249 -0.086253 0
M  V30 10 C 0.875443 1.348692 -0.557476 0
M  V30 11 C 1.353582 1.675453 -1.789314 0
M  V30 12 C 2.054109 2.848254 -1.973279 0
M  V30 13 N 2.275285 3.691713 -0.926195 0
M  V30 14 C 1.800457 3.359468 0.279265 0
M  V30 15 N 2.076815 4.296003 1.314600 0
M  V30 16 N 1.105187 2.204689 0.483410 0
M  V30 17 C -1.158206 -0.236788 -0.386750 0
M  V30 18 C -2.069377 0.424208 -1.310674 0
M  V30 19 C -3.189759 0.897865 -0.618714 0
M  V30 20 C -4.212527 1.569114 -1.288180 0
M  V30 21 C -4.121544 1.769569 -2.645270 0
M  V30 22 F -5.033070 2.401408 -3.423616 0
M  V30 23 C -3.014572 1.299418 -3.317579 0
M  V30 24 C -1.997064 0.635050 -2.671278 0
M  V30 25 N -1.388324 -1.361264 0.321640 0
M  V30 26 C -0.303318 -1.659280 1.065305 0
M  V30 27 C -0.051725 -2.698613 1.945157 0
M  V30 28 H 1.368892 -5.583793 2.137888 0
M  V30 29 H 2.361802 -5.792302 3.647752 0
M  V30 30 H 2.926106 -4.687433 2.271932 0
M  V30 31 H -0.391829 -3.348520 4.455488 0
M  V30 32 H 0.431523 -4.736176 5.217046 0
M  V30 33 H -0.454101 -4.995746 3.615475 0
M  V30 34 H 2.025552 -2.707959 5.140868 0
M  V30 35 H 3.324903 -3.346785 4.183900 0
M  V30 36 H 3.054358 -1.831997 2.819874 0
M  V30 37 H 2.571072 -0.045114 1.282411 0
M  V30 38 H 1.119472 0.937470 -2.526825 0
M  V30 39 H 2.392510 3.023982 -2.975000 0
M  V30 40 H 1.485714 4.924460 1.917948 0
M  V30 41 H 3.085639 4.433184 1.579759 0
M  V30 42 H -3.400171 0.813730 0.452051 0
M  V30 43 H -5.099857 1.954858 -0.798578 0
M  V30 44 H -2.808344 1.386260 -4.393021 0
M  V30 45 H -1.088447 0.221108 -3.083133 0
M  V30 46 H -0.803170 -3.465354 2.139707 0
M  V30 END ATOM
M  V30 BEGIN BOND
M  V30 1 1 1 2
M  V30 2 1 2 3
M  V30 3 1 2 4
M  V30 4 1 2 5
M  V30 5 1 5 6
M  V30 6 2 6 7
M  V30 7 1 7 8
M  V30 8 1 8 9
M  V30 9 1 9 10
M  V30 10 2 10 11
M  V30 11 1 11 12
M  V30 12 2 12 13
M  V30 13 1 13 14
M  V30 14 1 14 15
M  V30 15 2 14 16
M  V30 16 2 9 17
M  V30 17 1 17 18
M  V30 18 2 18 19
M  V30 19 1 19 20
M  V30 20 2 20 21
M  V30 21 1 21 22
M  V30 22 1 21 23
M  V30 23 2 23 24
M  V30 24 1 17 25
M  V30 25 2 25 26
M  V30 26 1 26 27
M  V30 27 2 27 5
M  V30 28 1 26 8
M  V30 29 1 16 10
M  V30 30 1 24 18
M  V30 31 1 1 28
M  V30 32 1 1 29
M  V30 33 1 1 30
M  V30 34 1 3 31
M  V30 35 1 3 32
M  V30 36 1 3 33
M  V30 37 1 4 34
M  V30 38 1 4 35
M  V30 39 1 6 36
M  V30 40 1 7 37
M  V30 41 1 11 38
M  V30 42 1 12 39
M  V30 43 1 15 40
M  V30 44 1 15 41
M  V30 45 1 19 42
M  V30 46 1 20 43
M  V30 47 1 23 44
M  V30 48 1 24 45
M  V30 49 1 27 46
M  V30 END BOND
M  V30 END CTAB
M  END
>  <Dataset>  (559) 
ChEMBL_Kinases

>  <Ligand_Instance>  (559) 
nan

>  <PDB_ID>  (559) 
nan

>  <Standardized_SMILES>  (559) 
CC(C)(N)c1ccn2c(-c3ccnc(N)n3)c(-c3ccc(F)cc3)nc2c1

>  <Name>  (559) 
nan

>  <Pocket>  (559) 
nan

>  <ATP_Site>  (559) 
nan

>  <Peripheral>  (559) 
nan

>  <Num_H_Atoms_ProtBoundConf>  (559) 
nan

>  <Num_Resolved_Atoms>  (559) 
nan

>  <Num_Not_Resolved_Atoms>  (559) 
nan

$$$$
CHEMBL591246
     RDKit          3D

  0  0  0  0  0  0  0  0  0  0999 V3000
M  V30 BEGIN CTAB
M  V30 COUNTS 58 63 0 0 0
M  V30 BEGIN ATOM
M  V30 1 C 1.509168 1.056713 6.611739 0
M  V30 2 N 2.755025 1.272230 5.878401 0
M  V30 3 C 2.746350 1.998517 4.646596 0
M  V30 4 C 2.919963 3.380098 4.646881 0
M  V30 5 C 2.909817 4.070611 3.452460 0
M  V30 6 C 2.730280 3.436771 2.221166 0
M  V30 7 Cl 2.729807 4.375940 0.760862 0
M  V30 8 C 2.562857 2.058816 2.291558 0
M  V30 9 C 2.373760 1.380214 1.011967 0
M  V30 10 O 2.370743 2.041095 -0.047822 0
M  V30 11 N 2.197804 -0.006202 0.989549 0
M  V30 12 C 1.994766 -0.943379 -0.061589 0
M  V30 13 C 3.069514 -1.565601 -0.689131 0
M  V30 14 C 2.904875 -2.490963 -1.724997 0
M  V30 15 C 1.614623 -2.810794 -2.154792 0
M  V30 16 C 0.560297 -2.189883 -1.527470 0
M  V30 17 C 0.733341 -1.282415 -0.510981 0
M  V30 18 C -0.756075 -2.557359 -2.010218 0
M  V30 19 C -0.802017 -3.475900 -3.030246 0
M  V30 20 C -2.171939 -3.626662 -3.277197 0
M  V30 21 C -2.819254 -4.488495 -4.269559 0
M  V30 22 N -4.223816 -4.519996 -4.386414 0
M  V30 23 O -2.124212 -5.210939 -5.029193 0
M  V30 24 N -2.834911 -2.817604 -2.419765 0
M  V30 25 N -1.982256 -2.171672 -1.654565 0
M  V30 26 C -2.431610 -1.259056 -0.669945 0
M  V30 27 C -2.590907 0.073999 -1.073545 0
M  V30 28 C -3.038271 1.032757 -0.181481 0
M  V30 29 C -3.339203 0.704519 1.126390 0
M  V30 30 C -3.185018 -0.611899 1.536049 0
M  V30 31 C -2.739567 -1.581092 0.658371 0
M  V30 32 O -3.552187 -0.651446 2.869275 0
M  V30 33 C -4.207485 0.551792 3.233788 0
M  V30 34 O -3.801839 1.454518 2.224545 0
M  V30 35 C 0.274506 -4.189800 -3.756960 0
M  V30 36 C 1.633984 -3.802537 -3.255063 0
M  V30 37 N 2.572192 1.386110 3.448407 0
M  V30 38 H 1.540933 1.701838 7.537742 0
M  V30 39 H 1.386015 0.007951 6.933109 0
M  V30 40 H 0.672958 1.400356 5.986249 0
M  V30 41 H 3.532074 0.825428 6.408833 0
M  V30 42 H 3.064545 3.940646 5.560883 0
M  V30 43 H 3.043557 5.150626 3.428319 0
M  V30 44 H 2.197912 -0.577454 1.874717 0
M  V30 45 H 4.057478 -1.303453 -0.340897 0
M  V30 46 H 3.828074 -2.902248 -2.127414 0
M  V30 47 H -0.086052 -0.797909 -0.021294 0
M  V30 48 H -5.004552 -4.101977 -4.958166 0
M  V30 49 H -4.593371 -5.186969 -3.650697 0
M  V30 50 H -2.374387 0.410291 -2.087365 0
M  V30 51 H -3.154498 2.069664 -0.522705 0
M  V30 52 H -2.607357 -2.616876 0.941977 0
M  V30 53 H -3.820336 0.955902 4.205359 0
M  V30 54 H -5.290730 0.457230 3.333500 0
M  V30 55 H 0.224173 -3.997746 -4.854252 0
M  V30 56 H 0.172946 -5.308179 -3.602268 0
M  V30 57 H 2.148184 -4.753707 -2.918013 0
M  V30 58 H 2.243939 -3.432272 -4.117423 0
M  V30 END ATOM
M  V30 BEGIN BOND
M  V30 1 1 1 2
M  V30 2 1 2 3
M  V30 3 2 3 4
M  V30 4 1 4 5
M  V30 5 2 5 6
M  V30 6 1 6 7
M  V30 7 1 6 8
M  V30 8 1 8 9
M  V30 9 2 9 10
M  V30 10 1 9 11
M  V30 11 1 11 12
M  V30 12 2 12 13
M  V30 13 1 13 14
M  V30 14 2 14 15
M  V30 15 1 15 16
M  V30 16 2 16 17
M  V30 17 1 16 18
M  V30 18 2 18 19
M  V30 19 1 19 20
M  V30 20 1 20 21
M  V30 21 1 21 22
M  V30 22 2 21 23
M  V30 23 2 20 24
M  V30 24 1 24 25
M  V30 25 1 25 26
M  V30 26 2 26 27
M  V30 27 1 27 28
M  V30 28 2 28 29
M  V30 29 1 29 30
M  V30 30 2 30 31
M  V30 31 1 30 32
M  V30 32 1 32 33
M  V30 33 1 33 34
M  V30 34 1 19 35
M  V30 35 1 35 36
M  V30 36 2 8 37
M  V30 37 1 37 3
M  V30 38 1 17 12
M  V30 39 1 25 18
M  V30 40 1 31 26
M  V30 41 1 36 15
M  V30 42 1 34 29
M  V30 43 1 1 38
M  V30 44 1 1 39
M  V30 45 1 1 40
M  V30 46 1 2 41
M  V30 47 1 4 42
M  V30 48 1 5 43
M  V30 49 1 11 44
M  V30 50 1 13 45
M  V30 51 1 14 46
M  V30 52 1 17 47
M  V30 53 1 22 48
M  V30 54 1 22 49
M  V30 55 1 27 50
M  V30 56 1 28 51
M  V30 57 1 31 52
M  V30 58 1 33 53
M  V30 59 1 33 54
M  V30 60 1 35 55
M  V30 61 1 35 56
M  V30 62 1 36 57
M  V30 63 1 36 58
M  V30 END BOND
M  V30 END CTAB
M  END
>  <Dataset>  (560) 
ChEMBL_Kinases

>  <Ligand_Instance>  (560) 
nan

>  <PDB_ID>  (560) 
nan

>  <Standardized_SMILES>  (560) 
CNc1ccc(Cl)c(C(=O)Nc2ccc3c(c2)-c2c(c(C(N)=O)nn2-c2ccc4c(c2)OCO4)CC3)n1

>  <Name>  (560) 
nan

>  <Pocket>  (560) 
nan

>  <ATP_Site>  (560) 
nan

>  <Peripheral>  (560) 
nan

>  <Num_H_Atoms_ProtBoundConf>  (560) 
nan

>  <Num_Resolved_Atoms>  (560) 
nan

>  <Num_Not_Resolved_Atoms>  (560) 
nan

$$$$
CHEMBL3798849
     RDKit          3D

  0  0  0  0  0  0  0  0  0  0999 V3000
M  V30 BEGIN CTAB
M  V30 COUNTS 50 54 0 0 0
M  V30 BEGIN ATOM
M  V30 1 C -0.565236 -4.071584 2.007130 0
M  V30 2 C 0.022786 -2.690573 2.227828 0
M  V30 3 C 1.546093 -2.744192 2.202244 0
M  V30 4 N -0.321268 -2.384596 3.614427 0
M  V30 5 C 0.076639 -1.143826 4.118031 0
M  V30 6 O 0.306214 -0.919319 5.355163 0
M  V30 7 C 0.222195 -0.074313 3.116488 0
M  V30 8 C 0.611213 1.164127 3.576393 0
M  V30 9 C 0.758050 2.194333 2.676483 0
M  V30 10 C 0.515502 1.973471 1.337762 0
M  V30 11 N 0.669774 3.043801 0.414713 0
M  V30 12 C 0.168614 4.286370 0.348128 0
M  V30 13 O -0.621042 4.642304 1.283613 0
M  V30 14 N 0.636875 4.909241 -0.748224 0
M  V30 15 C 1.454992 4.060309 -1.405571 0
M  V30 16 N 2.160205 4.217976 -2.549869 0
M  V30 17 C 2.916060 3.179457 -2.992103 0
M  V30 18 C 2.993155 1.970279 -2.320685 0
M  V30 19 C 2.257488 1.861777 -1.163322 0
M  V30 20 C 1.467012 2.881628 -0.657815 0
M  V30 21 C 0.130479 0.711990 0.950096 0
M  V30 22 C -0.044809 -0.388225 1.777370 0
M  V30 23 N -0.455307 -1.691577 1.296144 0
M  V30 24 C -1.180885 -1.568013 0.080020 0
M  V30 25 C -1.661047 -2.836709 -0.524142 0
M  V30 26 C -2.860388 -3.473761 -0.273029 0
M  V30 27 C -3.240543 -4.642810 -0.894406 0
M  V30 28 C -2.419223 -5.245997 -1.819758 0
M  V30 29 N -1.229558 -4.649831 -2.094753 0
M  V30 30 C -0.876874 -3.507503 -1.476417 0
M  V30 31 H -0.164822 -4.775461 2.809893 0
M  V30 32 H -0.275911 -4.555282 1.081061 0
M  V30 33 H -1.625690 -3.994787 2.244225 0
M  V30 34 H 1.972832 -1.815910 1.759634 0
M  V30 35 H 1.990236 -2.841674 3.214347 0
M  V30 36 H 1.839912 -3.669184 1.655812 0
M  V30 37 H -0.850984 -3.032167 4.275422 0
M  V30 38 H 0.795384 1.312160 4.630135 0
M  V30 39 H 1.059275 3.131417 3.074585 0
M  V30 40 H 0.357537 5.891456 -0.973443 0
M  V30 41 H 3.502117 3.270595 -3.917150 0
M  V30 42 H 3.603227 1.149711 -2.689088 0
M  V30 43 H 2.296882 0.933274 -0.618483 0
M  V30 44 H -0.033271 0.624271 -0.086725 0
M  V30 45 H -2.090308 -0.957123 0.258062 0
M  V30 46 H -0.658965 -1.091010 -0.754734 0
M  V30 47 H -3.500526 -2.973983 0.469685 0
M  V30 48 H -4.191096 -5.097642 -0.659096 0
M  V30 49 H -2.648692 -6.160653 -2.346307 0
M  V30 50 H 0.087218 -3.053681 -1.720510 0
M  V30 END ATOM
M  V30 BEGIN BOND
M  V30 1 1 1 2
M  V30 2 1 2 3
M  V30 3 1 2 4
M  V30 4 1 4 5
M  V30 5 2 5 6
M  V30 6 1 5 7
M  V30 7 2 7 8
M  V30 8 1 8 9
M  V30 9 2 9 10
M  V30 10 1 10 11
M  V30 11 1 11 12
M  V30 12 2 12 13
M  V30 13 1 12 14
M  V30 14 1 14 15
M  V30 15 2 15 16
M  V30 16 1 16 17
M  V30 17 2 17 18
M  V30 18 1 18 19
M  V30 19 2 19 20
M  V30 20 1 10 21
M  V30 21 2 21 22
M  V30 22 1 22 23
M  V30 23 1 23 24
M  V30 24 1 24 25
M  V30 25 2 25 26
M  V30 26 1 26 27
M  V30 27 2 27 28
M  V30 28 1 28 29
M  V30 29 2 29 30
M  V30 30 1 23 2
M  V30 31 1 30 25
M  V30 32 1 22 7
M  V30 33 1 20 11
M  V30 34 1 20 15
M  V30 35 1 1 31
M  V30 36 1 1 32
M  V30 37 1 1 33
M  V30 38 1 3 34
M  V30 39 1 3 35
M  V30 40 1 3 36
M  V30 41 1 4 37
M  V30 42 1 8 38
M  V30 43 1 9 39
M  V30 44 1 14 40
M  V30 45 1 17 41
M  V30 46 1 18 42
M  V30 47 1 19 43
M  V30 48 1 21 44
M  V30 49 1 24 45
M  V30 50 1 24 46
M  V30 51 1 26 47
M  V30 52 1 27 48
M  V30 53 1 28 49
M  V30 54 1 30 50
M  V30 END BOND
M  V30 END CTAB
M  END
>  <Dataset>  (561) 
ChEMBL_Kinases

>  <Ligand_Instance>  (561) 
nan

>  <PDB_ID>  (561) 
nan

>  <Standardized_SMILES>  (561) 
CC1(C)NC(=O)c2ccc(-n3c(=O)[nH]c4ncccc43)cc2N1Cc1cccnc1

>  <Name>  (561) 
nan

>  <Pocket>  (561) 
nan

>  <ATP_Site>  (561) 
nan

>  <Peripheral>  (561) 
nan

>  <Num_H_Atoms_ProtBoundConf>  (561) 
nan

>  <Num_Resolved_Atoms>  (561) 
nan

>  <Num_Not_Resolved_Atoms>  (561) 
nan

$$$$
CHEMBL591200
     RDKit          3D

  0  0  0  0  0  0  0  0  0  0999 V3000
M  V30 BEGIN CTAB
M  V30 COUNTS 70 75 0 0 0
M  V30 BEGIN ATOM
M  V30 1 C 0.866394 0.178218 5.144768 0
M  V30 2 C 1.122078 -1.287042 5.387265 0 CFG=1
M  V30 3 C 1.684342 -1.990954 4.176956 0
M  V30 4 N 2.947071 -1.420200 3.859036 0
M  V30 5 C 3.316419 -0.692425 2.693623 0
M  V30 6 C 2.361777 -0.482017 1.729505 0
M  V30 7 C 2.799668 0.239684 0.613791 0
M  V30 8 C 1.823103 0.490080 -0.440070 0
M  V30 9 O 0.860213 1.186976 0.033577 0
M  V30 10 N 1.799819 0.102776 -1.786816 0
M  V30 11 C 0.628774 0.584539 -2.440591 0
M  V30 12 C 0.694138 1.822625 -3.039640 0
M  V30 13 C -0.411487 2.351167 -3.693647 0
M  V30 14 C -1.583280 1.620926 -3.738471 0
M  V30 15 C -1.634293 0.401431 -3.143659 0
M  V30 16 C -0.549090 -0.133964 -2.493413 0
M  V30 17 C -2.872214 -0.343573 -3.203790 0
M  V30 18 C -3.925014 0.234826 -3.863790 0
M  V30 19 C -4.946216 -0.691991 -3.756727 0
M  V30 20 C -6.302234 -0.579773 -4.289280 0
M  V30 21 N -6.669419 0.599324 -5.010959 0
M  V30 22 O -7.271551 -1.407455 -4.213688 0
M  V30 23 N -4.475091 -1.742173 -3.063773 0
M  V30 24 N -3.216709 -1.526277 -2.730536 0
M  V30 25 C -2.529849 -2.520938 -1.989729 0
M  V30 26 C -1.802066 -3.576422 -2.557040 0
M  V30 27 C -1.166509 -4.515114 -1.771711 0
M  V30 28 C -1.229819 -4.441129 -0.385008 0
M  V30 29 F -0.598598 -5.373289 0.372252 0
M  V30 30 C -1.939389 -3.412443 0.196945 0
M  V30 31 C -2.585036 -2.458982 -0.590456 0
M  V30 32 C -3.957787 1.540046 -4.530332 0
M  V30 33 C -2.676836 2.297773 -4.462905 0
M  V30 34 C 4.118151 0.698710 0.518021 0
M  V30 35 Cl 4.605762 1.598046 -0.906713 0
M  V30 36 C 5.032680 0.442138 1.546331 0
M  V30 37 N 4.589981 -0.263597 2.628775 0
M  V30 38 C 3.861792 -1.696814 4.948450 0
M  V30 39 C 3.356530 -1.505107 6.311219 0
M  V30 40 N 1.946949 -1.583197 6.499479 0
M  V30 41 C 1.488446 -1.053499 7.751869 0
M  V30 42 H 1.770401 0.798200 5.362823 0
M  V30 43 H 0.059987 0.573661 5.784543 0
M  V30 44 H 0.524148 0.317695 4.095472 0
M  V30 45 H 0.109670 -1.739875 5.605286 0
M  V30 46 H 1.757621 -3.076397 4.469266 0
M  V30 47 H 0.913174 -1.965449 3.395552 0
M  V30 48 H 1.353108 -0.815375 1.768904 0
M  V30 49 H 2.639791 -0.459889 -2.047189 0
M  V30 50 H 1.627809 2.385615 -2.994405 0
M  V30 51 H -0.257326 3.340983 -4.136860 0
M  V30 52 H -0.504239 -1.085227 -1.999831 0
M  V30 53 H -7.181377 1.357268 -4.525952 0
M  V30 54 H -6.859720 1.377333 -5.665794 0
M  V30 55 H -1.783659 -3.589069 -3.644943 0
M  V30 56 H -0.608619 -5.323079 -2.242726 0
M  V30 57 H -1.973624 -3.376927 1.282290 0
M  V30 58 H -3.120846 -1.683531 -0.056322 0
M  V30 59 H -4.827448 2.111427 -4.092454 0
M  V30 60 H -4.259467 1.378444 -5.606228 0
M  V30 61 H -2.918593 3.297891 -3.995521 0
M  V30 62 H -2.340582 2.528828 -5.495158 0
M  V30 63 H 6.051373 0.791794 1.481861 0
M  V30 64 H 4.827878 -1.144941 4.785393 0
M  V30 65 H 4.146662 -2.782706 4.835114 0
M  V30 66 H 3.656399 -0.471209 6.645661 0
M  V30 67 H 3.859436 -2.195794 7.019473 0
M  V30 68 H 0.919705 -1.869517 8.270299 0
M  V30 69 H 2.368736 -0.783885 8.365478 0
M  V30 70 H 0.769771 -0.221497 7.645353 0
M  V30 END ATOM
M  V30 BEGIN BOND
M  V30 1 1 1 2
M  V30 2 1 2 3
M  V30 3 1 3 4
M  V30 4 1 4 5
M  V30 5 2 5 6
M  V30 6 1 6 7
M  V30 7 1 7 8
M  V30 8 2 8 9
M  V30 9 1 8 10
M  V30 10 1 10 11
M  V30 11 2 11 12
M  V30 12 1 12 13
M  V30 13 2 13 14
M  V30 14 1 14 15
M  V30 15 2 15 16
M  V30 16 1 15 17
M  V30 17 2 17 18
M  V30 18 1 18 19
M  V30 19 1 19 20
M  V30 20 1 20 21
M  V30 21 2 20 22
M  V30 22 2 19 23
M  V30 23 1 23 24
M  V30 24 1 24 25
M  V30 25 2 25 26
M  V30 26 1 26 27
M  V30 27 2 27 28
M  V30 28 1 28 29
M  V30 29 1 28 30
M  V30 30 2 30 31
M  V30 31 1 18 32
M  V30 32 1 32 33
M  V30 33 2 7 34
M  V30 34 1 34 35
M  V30 35 1 34 36
M  V30 36 2 36 37
M  V30 37 1 4 38
M  V30 38 1 38 39
M  V30 39 1 39 40
M  V30 40 1 40 41
M  V30 41 1 40 2
M  V30 42 1 37 5
M  V30 43 1 16 11
M  V30 44 1 24 17
M  V30 45 1 31 25
M  V30 46 1 33 14
M  V30 47 1 1 42
M  V30 48 1 1 43
M  V30 49 1 1 44
M  V30 50 1 2 45 CFG=1
M  V30 51 1 3 46
M  V30 52 1 3 47
M  V30 53 1 6 48
M  V30 54 1 10 49
M  V30 55 1 12 50
M  V30 56 1 13 51
M  V30 57 1 16 52
M  V30 58 1 21 53
M  V30 59 1 21 54
M  V30 60 1 26 55
M  V30 61 1 27 56
M  V30 62 1 30 57
M  V30 63 1 31 58
M  V30 64 1 32 59
M  V30 65 1 32 60
M  V30 66 1 33 61
M  V30 67 1 33 62
M  V30 68 1 36 63
M  V30 69 1 38 64
M  V30 70 1 38 65
M  V30 71 1 39 66
M  V30 72 1 39 67
M  V30 73 1 41 68
M  V30 74 1 41 69
M  V30 75 1 41 70
M  V30 END BOND
M  V30 END CTAB
M  END
>  <Dataset>  (562) 
ChEMBL_Kinases

>  <Ligand_Instance>  (562) 
nan

>  <PDB_ID>  (562) 
nan

>  <Standardized_SMILES>  (562) 
C[C@H]1CN(c2cc(C(=O)Nc3ccc4c(c3)-c3c(c(C(N)=O)nn3-c3ccc(F)cc3)CC4)c(Cl)cn2)CCN1C

>  <Name>  (562) 
nan

>  <Pocket>  (562) 
nan

>  <ATP_Site>  (562) 
nan

>  <Peripheral>  (562) 
nan

>  <Num_H_Atoms_ProtBoundConf>  (562) 
nan

>  <Num_Resolved_Atoms>  (562) 
nan

>  <Num_Not_Resolved_Atoms>  (562) 
nan

$$$$
CHEMBL591174
     RDKit          3D

  0  0  0  0  0  0  0  0  0  0999 V3000
M  V30 BEGIN CTAB
M  V30 COUNTS 70 75 0 0 0
M  V30 BEGIN ATOM
M  V30 1 C 2.555267 -1.501072 7.135193 0
M  V30 2 N 2.867123 -2.008378 5.810744 0
M  V30 3 C 3.100086 -3.430096 5.940114 0
M  V30 4 C 4.009322 -3.967397 4.854273 0
M  V30 5 C 4.358451 -2.902094 3.865697 0
M  V30 6 N 3.177955 -2.337785 3.191183 0
M  V30 7 C 3.466211 -1.597966 2.019140 0
M  V30 8 C 2.540116 -0.958546 1.227448 0
M  V30 9 C 2.877565 -0.251051 0.092894 0
M  V30 10 C 1.789799 0.390608 -0.671795 0
M  V30 11 O 1.114863 1.267799 -0.070581 0
M  V30 12 N 1.474821 0.079702 -2.008671 0
M  V30 13 C 0.373051 0.882656 -2.440171 0
M  V30 14 C 0.576974 2.121833 -3.030330 0
M  V30 15 C -0.504783 2.902266 -3.450050 0
M  V30 16 C -1.801388 2.461832 -3.288863 0
M  V30 17 C -1.979483 1.230155 -2.701359 0
M  V30 18 C -0.934993 0.448524 -2.282522 0
M  V30 19 C -3.336512 0.784271 -2.541494 0
M  V30 20 C -4.294286 1.656593 -3.002190 0
M  V30 21 C -5.506742 1.013042 -2.739459 0
M  V30 22 C -6.923220 1.334101 -2.951720 0
M  V30 23 N -7.146563 2.603805 -3.575294 0
M  V30 24 O -7.983737 0.713697 -2.694004 0
M  V30 25 N -5.204648 -0.177803 -2.151015 0
M  V30 26 N -3.885035 -0.311277 -2.033379 0
M  V30 27 C -3.301623 -1.464644 -1.451703 0
M  V30 28 C -3.024321 -1.599456 -0.084428 0
M  V30 29 C -2.461860 -2.765922 0.411940 0
M  V30 30 C -2.161039 -3.814195 -0.404597 0
M  V30 31 F -1.615317 -4.961617 0.036518 0
M  V30 32 C -2.416076 -3.730235 -1.763939 0
M  V30 33 C -2.980708 -2.560209 -2.264905 0
M  V30 34 C -4.194673 2.971502 -3.636099 0
M  V30 35 C -2.777126 3.440640 -3.798550 0
M  V30 36 C 4.175098 -0.154274 -0.299859 0
M  V30 37 Cl 4.638786 0.725625 -1.719473 0
M  V30 38 C 5.080773 -0.797493 0.501519 0
M  V30 39 N 4.734070 -1.474173 1.591206 0
M  V30 40 C 1.847845 -2.515235 3.669022 0
M  V30 41 C 1.717586 -1.758969 4.971846 0
M  V30 42 H 1.458811 -1.559718 7.277227 0
M  V30 43 H 2.877945 -0.445343 7.257249 0
M  V30 44 H 2.982154 -2.158180 7.931898 0
M  V30 45 H 2.140030 -3.957629 5.930582 0
M  V30 46 H 3.538286 -3.623880 6.963074 0
M  V30 47 H 4.931600 -4.300169 5.325140 0
M  V30 48 H 3.535808 -4.801420 4.288094 0
M  V30 49 H 5.026429 -2.132086 4.265308 0
M  V30 50 H 4.922883 -3.398153 3.033248 0
M  V30 51 H 1.501238 -1.013228 1.507962 0
M  V30 52 H 2.036704 -0.647875 -2.502417 0
M  V30 53 H 1.624321 2.440900 -3.142828 0
M  V30 54 H -0.177185 3.841926 -3.890780 0
M  V30 55 H -1.049713 -0.495469 -1.831314 0
M  V30 56 H -7.482256 3.435976 -4.103576 0
M  V30 57 H -7.424185 3.468324 -4.079181 0
M  V30 58 H -3.273704 -0.742490 0.560846 0
M  V30 59 H -2.253578 -2.847404 1.489320 0
M  V30 60 H -2.199826 -4.531130 -2.471589 0
M  V30 61 H -3.185451 -2.474874 -3.310722 0
M  V30 62 H -4.754598 3.720897 -2.998529 0
M  V30 63 H -4.655925 2.980160 -4.666388 0
M  V30 64 H -2.563972 3.733274 -4.853419 0
M  V30 65 H -2.650502 4.351131 -3.136549 0
M  V30 66 H 6.145152 -0.760837 0.244041 0
M  V30 67 H 1.731582 -3.600500 3.965159 0
M  V30 68 H 1.032970 -2.315789 2.985545 0
M  V30 69 H 0.825982 -2.107407 5.536905 0
M  V30 70 H 1.599144 -0.682090 4.781912 0
M  V30 END ATOM
M  V30 BEGIN BOND
M  V30 1 1 1 2
M  V30 2 1 2 3
M  V30 3 1 3 4
M  V30 4 1 4 5
M  V30 5 1 5 6
M  V30 6 1 6 7
M  V30 7 2 7 8
M  V30 8 1 8 9
M  V30 9 1 9 10
M  V30 10 2 10 11
M  V30 11 1 10 12
M  V30 12 1 12 13
M  V30 13 2 13 14
M  V30 14 1 14 15
M  V30 15 2 15 16
M  V30 16 1 16 17
M  V30 17 2 17 18
M  V30 18 1 17 19
M  V30 19 2 19 20
M  V30 20 1 20 21
M  V30 21 1 21 22
M  V30 22 1 22 23
M  V30 23 2 22 24
M  V30 24 2 21 25
M  V30 25 1 25 26
M  V30 26 1 26 27
M  V30 27 2 27 28
M  V30 28 1 28 29
M  V30 29 2 29 30
M  V30 30 1 30 31
M  V30 31 1 30 32
M  V30 32 2 32 33
M  V30 33 1 20 34
M  V30 34 1 34 35
M  V30 35 2 9 36
M  V30 36 1 36 37
M  V30 37 1 36 38
M  V30 38 2 38 39
M  V30 39 1 6 40
M  V30 40 1 40 41
M  V30 41 1 41 2
M  V30 42 1 39 7
M  V30 43 1 18 13
M  V30 44 1 26 19
M  V30 45 1 33 27
M  V30 46 1 35 16
M  V30 47 1 1 42
M  V30 48 1 1 43
M  V30 49 1 1 44
M  V30 50 1 3 45
M  V30 51 1 3 46
M  V30 52 1 4 47
M  V30 53 1 4 48
M  V30 54 1 5 49
M  V30 55 1 5 50
M  V30 56 1 8 51
M  V30 57 1 12 52
M  V30 58 1 14 53
M  V30 59 1 15 54
M  V30 60 1 18 55
M  V30 61 1 23 56
M  V30 62 1 23 57
M  V30 63 1 28 58
M  V30 64 1 29 59
M  V30 65 1 32 60
M  V30 66 1 33 61
M  V30 67 1 34 62
M  V30 68 1 34 63
M  V30 69 1 35 64
M  V30 70 1 35 65
M  V30 71 1 38 66
M  V30 72 1 40 67
M  V30 73 1 40 68
M  V30 74 1 41 69
M  V30 75 1 41 70
M  V30 END BOND
M  V30 END CTAB
M  END
>  <Dataset>  (563) 
ChEMBL_Kinases

>  <Ligand_Instance>  (563) 
nan

>  <PDB_ID>  (563) 
nan

>  <Standardized_SMILES>  (563) 
CN1CCCN(c2cc(C(=O)Nc3ccc4c(c3)-c3c(c(C(N)=O)nn3-c3ccc(F)cc3)CC4)c(Cl)cn2)CC1

>  <Name>  (563) 
nan

>  <Pocket>  (563) 
nan

>  <ATP_Site>  (563) 
nan

>  <Peripheral>  (563) 
nan

>  <Num_H_Atoms_ProtBoundConf>  (563) 
nan

>  <Num_Resolved_Atoms>  (563) 
nan

>  <Num_Not_Resolved_Atoms>  (563) 
nan

$$$$
CHEMBL591116
     RDKit          3D

  0  0  0  0  0  0  0  0  0  0999 V3000
M  V30 BEGIN CTAB
M  V30 COUNTS 60 62 0 0 0
M  V30 BEGIN ATOM
M  V30 1 C 5.213401 -1.606794 3.755086 0
M  V30 2 N 5.713154 -2.041395 2.488338 0
M  V30 3 C 5.227709 -3.318588 2.075516 0
M  V30 4 C 5.758386 -1.033358 1.479730 0
M  V30 5 C 4.466977 -0.422259 1.132396 0
M  V30 6 C 4.110922 0.700122 1.867583 0
M  V30 7 C 2.906011 1.372692 1.632914 0
M  V30 8 C 2.058782 0.890265 0.635691 0
M  V30 9 N 0.823940 1.505590 0.333874 0
M  V30 10 C 0.382331 2.529017 -0.543068 0
M  V30 11 O 1.157184 3.143237 -1.310695 0
M  V30 12 C -1.035256 2.877104 -0.547293 0
M  V30 13 C -1.410814 3.880995 -1.413481 0
M  V30 14 C -2.759544 4.236712 -1.442597 0
M  V30 15 C -3.697337 3.620254 -0.643937 0
M  V30 16 C -3.319641 2.606580 0.230834 0
M  V30 17 C -4.335836 1.945428 1.091474 0
M  V30 18 N -4.957010 0.800197 0.471907 0
M  V30 19 C -4.368729 -0.482153 0.322676 0
M  V30 20 O -3.229849 -0.763170 0.718676 0
M  V30 21 N -5.033856 -1.576428 -0.300236 0
M  V30 22 C -4.191190 -2.734771 -0.304760 0
M  V30 23 C -4.077797 -3.731249 0.641541 0
M  V30 24 C -3.191817 -4.767123 0.429089 0
M  V30 25 C -2.423573 -4.810008 -0.718458 0
M  V30 26 C -1.488943 -5.909785 -0.934703 0
M  V30 27 N -0.702235 -5.968782 -2.115323 0
M  V30 28 O -1.445565 -6.774502 -0.006916 0
M  V30 29 C -2.529208 -3.817424 -1.672263 0
M  V30 30 C -3.419773 -2.765062 -1.471430 0
M  V30 31 C -1.994466 2.279628 0.238415 0
M  V30 32 C 2.436239 -0.218571 -0.073286 0
M  V30 33 C 3.633011 -0.907458 0.141749 0
M  V30 34 H 5.269612 -2.490926 4.448803 0
M  V30 35 H 5.872766 -0.850069 4.204271 0
M  V30 36 H 4.153828 -1.293798 3.758391 0
M  V30 37 H 6.066024 -3.999585 1.751558 0
M  V30 38 H 4.388734 -3.318993 1.374952 0
M  V30 39 H 4.826335 -3.819494 3.004989 0
M  V30 40 H 6.503461 -0.251065 1.746449 0
M  V30 41 H 6.149646 -1.519176 0.551691 0
M  V30 42 H 4.746357 1.109497 2.656204 0
M  V30 43 H 2.570745 2.241853 2.161853 0
M  V30 44 H 0.243554 0.950988 0.999003 0
M  V30 45 H -0.721341 4.405010 -2.067727 0
M  V30 46 H -3.059731 5.032320 -2.128291 0
M  V30 47 H -4.754156 3.889663 -0.657882 0
M  V30 48 H -3.749831 1.607227 1.999183 0
M  V30 49 H -5.046727 2.672635 1.477212 0
M  V30 50 H -5.923893 0.930100 0.102196 0
M  V30 51 H -6.018998 -1.445882 -0.676373 0
M  V30 52 H -4.724705 -3.587252 1.486622 0
M  V30 53 H -3.138585 -5.527565 1.202613 0
M  V30 54 H -0.987241 -6.294172 -3.060828 0
M  V30 55 H 0.303434 -5.650636 -2.063405 0
M  V30 56 H -1.905956 -3.897907 -2.551944 0
M  V30 57 H -3.425460 -2.045893 -2.272609 0
M  V30 58 H -1.696971 1.495587 0.916650 0
M  V30 59 H 1.814353 -0.640728 -0.864309 0
M  V30 60 H 3.925814 -1.785646 -0.423448 0
M  V30 END ATOM
M  V30 BEGIN BOND
M  V30 1 1 1 2
M  V30 2 1 2 3
M  V30 3 1 2 4
M  V30 4 1 4 5
M  V30 5 2 5 6
M  V30 6 1 6 7
M  V30 7 2 7 8
M  V30 8 1 8 9
M  V30 9 1 9 10
M  V30 10 2 10 11
M  V30 11 1 10 12
M  V30 12 2 12 13
M  V30 13 1 13 14
M  V30 14 2 14 15
M  V30 15 1 15 16
M  V30 16 1 16 17
M  V30 17 1 17 18
M  V30 18 1 18 19
M  V30 19 2 19 20
M  V30 20 1 19 21
M  V30 21 1 21 22
M  V30 22 2 22 23
M  V30 23 1 23 24
M  V30 24 2 24 25
M  V30 25 1 25 26
M  V30 26 1 26 27
M  V30 27 2 26 28
M  V30 28 1 25 29
M  V30 29 2 29 30
M  V30 30 2 16 31
M  V30 31 1 8 32
M  V30 32 2 32 33
M  V30 33 1 33 5
M  V30 34 1 31 12
M  V30 35 1 30 22
M  V30 36 1 1 34
M  V30 37 1 1 35
M  V30 38 1 1 36
M  V30 39 1 3 37
M  V30 40 1 3 38
M  V30 41 1 3 39
M  V30 42 1 4 40
M  V30 43 1 4 41
M  V30 44 1 6 42
M  V30 45 1 7 43
M  V30 46 1 9 44
M  V30 47 1 13 45
M  V30 48 1 14 46
M  V30 49 1 15 47
M  V30 50 1 17 48
M  V30 51 1 17 49
M  V30 52 1 18 50
M  V30 53 1 21 51
M  V30 54 1 23 52
M  V30 55 1 24 53
M  V30 56 1 27 54
M  V30 57 1 27 55
M  V30 58 1 29 56
M  V30 59 1 30 57
M  V30 60 1 31 58
M  V30 61 1 32 59
M  V30 62 1 33 60
M  V30 END BOND
M  V30 END CTAB
M  END
>  <Dataset>  (564) 
ChEMBL_Kinases

>  <Ligand_Instance>  (564) 
nan

>  <PDB_ID>  (564) 
nan

>  <Standardized_SMILES>  (564) 
CN(C)Cc1ccc(NC(=O)c2cccc(CNC(=O)Nc3ccc(C(N)=O)cc3)c2)cc1

>  <Name>  (564) 
nan

>  <Pocket>  (564) 
nan

>  <ATP_Site>  (564) 
nan

>  <Peripheral>  (564) 
nan

>  <Num_H_Atoms_ProtBoundConf>  (564) 
nan

>  <Num_Resolved_Atoms>  (564) 
nan

>  <Num_Not_Resolved_Atoms>  (564) 
nan

$$$$
CHEMBL591058
     RDKit          3D

  0  0  0  0  0  0  0  0  0  0999 V3000
M  V30 BEGIN CTAB
M  V30 COUNTS 57 59 0 0 0
M  V30 BEGIN ATOM
M  V30 1 C 3.923073 -4.615844 -0.515067 0
M  V30 2 N 4.660063 -4.399745 -1.753070 0
M  V30 3 C 5.859832 -5.210160 -1.687457 0
M  V30 4 C 5.060319 -3.011266 -1.890686 0
M  V30 5 C 3.923535 -2.077570 -1.913629 0
M  V30 6 C 3.492568 -1.589736 -0.691010 0
M  V30 7 C 2.421175 -0.704241 -0.674326 0
M  V30 8 C 1.771373 -0.295148 -1.847997 0
M  V30 9 N 0.719800 0.596325 -1.619448 0
M  V30 10 C 0.504301 1.988810 -1.513357 0
M  V30 11 O 1.482563 2.757906 -1.647218 0
M  V30 12 C -0.812274 2.551409 -1.254854 0
M  V30 13 C -0.862197 3.926652 -1.166488 0
M  V30 14 C -2.129463 4.468195 -0.921519 0
M  V30 15 C -3.261397 3.693485 -0.775892 0
M  V30 16 C -3.163510 2.299943 -0.873425 0
M  V30 17 C -4.460034 1.593942 -0.705811 0
M  V30 18 N -4.662229 1.350017 0.705104 0
M  V30 19 C -4.050130 0.360474 1.479864 0
M  V30 20 O -3.250825 -0.392167 0.904011 0
M  V30 21 N -4.287703 0.174888 2.853288 0
M  V30 22 C -3.735478 -0.782720 3.734360 0
M  V30 23 C -2.834890 -1.753384 3.439890 0
M  V30 24 C -2.307397 -2.679806 4.311608 0
M  V30 25 C -2.723243 -2.637989 5.632500 0
M  V30 26 C -2.225154 -3.561149 6.596648 0
M  V30 27 N -1.813689 -4.319947 7.375298 0
M  V30 28 C -3.641441 -1.663077 5.975942 0
M  V30 29 Cl -4.199787 -1.570695 7.641635 0
M  V30 30 C -4.126104 -0.769578 5.052043 0
M  V30 31 C -1.937295 1.771999 -1.110779 0
M  V30 32 C 2.235382 -0.807900 -3.049863 0
M  V30 33 C 3.298125 -1.687823 -3.079227 0
M  V30 34 H 3.721434 -5.700105 -0.414034 0
M  V30 35 H 4.536874 -4.312039 0.367246 0
M  V30 36 H 2.975416 -4.053150 -0.495332 0
M  V30 37 H 6.059633 -5.712153 -2.661703 0
M  V30 38 H 5.741099 -6.008782 -0.929180 0
M  V30 39 H 6.734675 -4.567614 -1.413980 0
M  V30 40 H 5.755202 -2.777001 -1.077020 0
M  V30 41 H 5.659854 -2.985124 -2.847801 0
M  V30 42 H 3.975831 -1.888015 0.234091 0
M  V30 43 H 2.129722 -0.354415 0.328779 0
M  V30 44 H -0.055675 -0.094617 -1.517579 0
M  V30 45 H -0.009550 4.582618 -1.272327 0
M  V30 46 H -2.226092 5.562152 -0.841339 0
M  V30 47 H -4.213710 4.203978 -0.586515 0
M  V30 48 H -4.481450 0.646701 -1.291637 0
M  V30 49 H -5.298290 2.204290 -1.099534 0
M  V30 50 H -5.348781 1.992216 1.205458 0
M  V30 51 H -4.979473 0.865292 3.243181 0
M  V30 52 H -2.463501 -1.851357 2.439953 0
M  V30 53 H -1.598430 -3.427475 4.030639 0
M  V30 54 H -4.852025 -0.026453 5.405516 0
M  V30 55 H -1.890725 0.699789 -1.185016 0
M  V30 56 H 1.693073 -0.453005 -3.906108 0
M  V30 57 H 3.629034 -2.063585 -4.035734 0
M  V30 END ATOM
M  V30 BEGIN BOND
M  V30 1 1 1 2
M  V30 2 1 2 3
M  V30 3 1 2 4
M  V30 4 1 4 5
M  V30 5 2 5 6
M  V30 6 1 6 7
M  V30 7 2 7 8
M  V30 8 1 8 9
M  V30 9 1 9 10
M  V30 10 2 10 11
M  V30 11 1 10 12
M  V30 12 2 12 13
M  V30 13 1 13 14
M  V30 14 2 14 15
M  V30 15 1 15 16
M  V30 16 1 16 17
M  V30 17 1 17 18
M  V30 18 1 18 19
M  V30 19 2 19 20
M  V30 20 1 19 21
M  V30 21 1 21 22
M  V30 22 2 22 23
M  V30 23 1 23 24
M  V30 24 2 24 25
M  V30 25 1 25 26
M  V30 26 3 26 27
M  V30 27 1 25 28
M  V30 28 1 28 29
M  V30 29 2 28 30
M  V30 30 2 16 31
M  V30 31 1 8 32
M  V30 32 2 32 33
M  V30 33 1 33 5
M  V30 34 1 31 12
M  V30 35 1 30 22
M  V30 36 1 1 34
M  V30 37 1 1 35
M  V30 38 1 1 36
M  V30 39 1 3 37
M  V30 40 1 3 38
M  V30 41 1 3 39
M  V30 42 1 4 40
M  V30 43 1 4 41
M  V30 44 1 6 42
M  V30 45 1 7 43
M  V30 46 1 9 44
M  V30 47 1 13 45
M  V30 48 1 14 46
M  V30 49 1 15 47
M  V30 50 1 17 48
M  V30 51 1 17 49
M  V30 52 1 18 50
M  V30 53 1 21 51
M  V30 54 1 23 52
M  V30 55 1 24 53
M  V30 56 1 30 54
M  V30 57 1 31 55
M  V30 58 1 32 56
M  V30 59 1 33 57
M  V30 END BOND
M  V30 END CTAB
M  END
>  <Dataset>  (565) 
ChEMBL_Kinases

>  <Ligand_Instance>  (565) 
nan

>  <PDB_ID>  (565) 
nan

>  <Standardized_SMILES>  (565) 
CN(C)Cc1ccc(NC(=O)c2cccc(CNC(=O)Nc3ccc(C#N)c(Cl)c3)c2)cc1

>  <Name>  (565) 
nan

>  <Pocket>  (565) 
nan

>  <ATP_Site>  (565) 
nan

>  <Peripheral>  (565) 
nan

>  <Num_H_Atoms_ProtBoundConf>  (565) 
nan

>  <Num_Resolved_Atoms>  (565) 
nan

>  <Num_Not_Resolved_Atoms>  (565) 
nan

$$$$
CHEMBL3798804
     RDKit          3D

  0  0  0  0  0  0  0  0  0  0999 V3000
M  V30 BEGIN CTAB
M  V30 COUNTS 54 58 0 0 0
M  V30 BEGIN ATOM
M  V30 1 C 6.069780 -4.253312 3.733008 0
M  V30 2 N 4.942684 -3.796816 2.913136 0
M  V30 3 C 4.408296 -2.590603 2.643577 0
M  V30 4 C 3.325568 -2.793331 1.778572 0
M  V30 5 C 2.563342 -1.635727 1.326255 0
M  V30 6 C 2.410366 -0.529829 2.135568 0
M  V30 7 C 1.674655 0.574699 1.683986 0
M  V30 8 C 1.082227 0.581881 0.410929 0
M  V30 9 C 0.403459 1.854266 0.232763 0
M  V30 10 C 1.018127 3.065256 0.504603 0
M  V30 11 N 0.368731 4.230401 0.329846 0
M  V30 12 C -0.898744 4.270302 -0.113975 0
M  V30 13 N -1.543709 5.537956 -0.282549 0
M  V30 14 C -1.561814 3.074341 -0.402053 0
M  V30 15 Cl -3.206190 3.243342 -0.972450 0
M  V30 16 C -0.887674 1.861107 -0.220836 0
M  V30 17 N -1.722803 0.766474 -0.563387 0
M  V30 18 C -2.056732 -0.026258 -1.736254 0
M  V30 19 C -2.147870 -1.499175 -1.395369 0
M  V30 20 C -3.341414 -1.716742 -0.497379 0
M  V30 21 C -3.709080 -0.461960 0.256783 0
M  V30 22 C -2.461348 0.295823 0.593234 0
M  V30 23 N -4.438406 -2.198426 -1.309870 0
M  V30 24 C -4.283115 -3.611902 -1.464448 0
M  V30 25 O -4.752236 -4.430936 -2.301921 0
M  V30 26 N -3.408509 -4.029882 -0.401561 0
M  V30 27 C -3.054383 -2.874643 0.368295 0
M  V30 28 O -2.592464 -2.778292 1.535300 0
M  V30 29 C 1.251239 -0.535202 -0.375925 0
M  V30 30 C 1.975864 -1.612719 0.079816 0
M  V30 31 C 3.249543 -4.151976 1.555864 0
M  V30 32 N 4.258695 -4.730616 2.269617 0
M  V30 33 H 6.648226 -3.325455 3.985397 0
M  V30 34 H 5.739133 -4.715881 4.663291 0
M  V30 35 H 6.725118 -4.878914 3.097634 0
M  V30 36 H 4.894929 -1.753306 3.122232 0
M  V30 37 H 2.886829 -0.589978 3.103504 0
M  V30 38 H 1.657706 1.359882 2.456876 0
M  V30 39 H 2.035238 3.013928 0.859830 0
M  V30 40 H -2.580999 5.614934 -0.303735 0
M  V30 41 H -0.948544 6.388903 -0.384569 0
M  V30 42 H -3.062635 0.247756 -2.129966 0
M  V30 43 H -1.262527 0.095295 -2.488643 0
M  V30 44 H -1.241870 -1.898417 -0.920098 0
M  V30 45 H -2.307840 -2.076611 -2.325041 0
M  V30 46 H -4.440399 0.080179 -0.344846 0
M  V30 47 H -4.180671 -0.773540 1.188865 0
M  V30 48 H -2.734363 1.103290 1.299828 0
M  V30 49 H -1.819800 -0.399137 1.190678 0
M  V30 50 H -5.283754 -1.769892 -1.790436 0
M  V30 51 H -3.045312 -4.997784 -0.163874 0
M  V30 52 H 0.757470 -0.400914 -1.319236 0
M  V30 53 H 2.050445 -2.437424 -0.608805 0
M  V30 54 H 2.468496 -4.507871 0.906638 0
M  V30 END ATOM
M  V30 BEGIN BOND
M  V30 1 1 1 2
M  V30 2 1 2 3
M  V30 3 2 3 4
M  V30 4 1 4 5
M  V30 5 2 5 6
M  V30 6 1 6 7
M  V30 7 2 7 8
M  V30 8 1 8 9
M  V30 9 2 9 10
M  V30 10 1 10 11
M  V30 11 2 11 12
M  V30 12 1 12 13
M  V30 13 1 12 14
M  V30 14 1 14 15
M  V30 15 2 14 16
M  V30 16 1 16 17
M  V30 17 1 17 18
M  V30 18 1 18 19
M  V30 19 1 19 20
M  V30 20 1 20 21
M  V30 21 1 21 22
M  V30 22 1 20 23
M  V30 23 1 23 24
M  V30 24 2 24 25
M  V30 25 1 24 26
M  V30 26 1 26 27
M  V30 27 2 27 28
M  V30 28 1 8 29
M  V30 29 2 29 30
M  V30 30 1 4 31
M  V30 31 2 31 32
M  V30 32 1 32 2
M  V30 33 1 30 5
M  V30 34 1 16 9
M  V30 35 1 22 17
M  V30 36 1 27 20
M  V30 37 1 1 33
M  V30 38 1 1 34
M  V30 39 1 1 35
M  V30 40 1 3 36
M  V30 41 1 6 37
M  V30 42 1 7 38
M  V30 43 1 10 39
M  V30 44 1 13 40
M  V30 45 1 13 41
M  V30 46 1 18 42
M  V30 47 1 18 43
M  V30 48 1 19 44
M  V30 49 1 19 45
M  V30 50 1 21 46
M  V30 51 1 21 47
M  V30 52 1 22 48
M  V30 53 1 22 49
M  V30 54 1 23 50
M  V30 55 1 26 51
M  V30 56 1 29 52
M  V30 57 1 30 53
M  V30 58 1 31 54
M  V30 END BOND
M  V30 END CTAB
M  END
>  <Dataset>  (566) 
ChEMBL_Kinases

>  <Ligand_Instance>  (566) 
nan

>  <PDB_ID>  (566) 
nan

>  <Standardized_SMILES>  (566) 
Cn1cc(-c2ccc(-c3cnc(N)c(Cl)c3N3CCC4(CC3)NC(=O)NC4=O)cc2)cn1

>  <Name>  (566) 
nan

>  <Pocket>  (566) 
nan

>  <ATP_Site>  (566) 
nan

>  <Peripheral>  (566) 
nan

>  <Num_H_Atoms_ProtBoundConf>  (566) 
nan

>  <Num_Resolved_Atoms>  (566) 
nan

>  <Num_Not_Resolved_Atoms>  (566) 
nan

$$$$
CHEMBL3798802
     RDKit          3D

  0  0  0  0  0  0  0  0  0  0999 V3000
M  V30 BEGIN CTAB
M  V30 COUNTS 31 33 0 0 0
M  V30 BEGIN ATOM
M  V30 1 C -1.927383 -1.448209 4.896025 0
M  V30 2 S -0.601136 -0.215232 4.649908 0
M  V30 3 C 0.014757 -0.445436 2.996405 0
M  V30 4 S 1.349116 -1.548141 2.558325 0
M  V30 5 C 1.319534 -1.191091 0.836586 0
M  V30 6 C 2.219718 -1.807891 -0.121652 0
M  V30 7 C 3.186367 -2.726872 0.188523 0
M  V30 8 C 3.787153 -3.027816 -1.029656 0
M  V30 9 N 3.186511 -2.304281 -2.018824 0
M  V30 10 N 2.229750 -1.565139 -1.435814 0
M  V30 11 C 0.314325 -0.265663 0.673861 0
M  V30 12 C -0.345108 0.100494 1.820929 0
M  V30 13 C -1.428698 1.097084 1.662786 0
M  V30 14 O -2.105653 1.506954 2.657671 0
M  V30 15 N -1.778976 1.658370 0.379477 0
M  V30 16 C -0.625012 1.707949 -0.525921 0
M  V30 17 C -0.053464 0.312179 -0.646694 0 CFG=2
M  V30 18 C -1.157659 -0.525197 -1.304237 0
M  V30 19 H -1.671153 -2.414306 4.414124 0
M  V30 20 H -2.098117 -1.617830 5.982582 0
M  V30 21 H -2.900157 -1.100190 4.487225 0
M  V30 22 H 3.480935 -3.169553 1.132351 0
M  V30 23 H 4.606795 -3.733351 -1.151238 0
M  V30 24 H 3.434881 -2.329230 -3.042079 0
M  V30 25 H -2.772280 1.976924 0.182085 0
M  V30 26 H 0.127953 2.437742 -0.191548 0
M  V30 27 H -1.033622 1.971055 -1.516423 0
M  V30 28 H 0.807290 0.338911 -1.348631 0
M  V30 29 H -1.835087 -0.865740 -0.467253 0
M  V30 30 H -0.775139 -1.402306 -1.831496 0
M  V30 31 H -1.801806 0.071501 -1.971933 0
M  V30 END ATOM
M  V30 BEGIN BOND
M  V30 1 1 1 2
M  V30 2 1 2 3
M  V30 3 1 3 4
M  V30 4 1 4 5
M  V30 5 1 5 6
M  V30 6 1 6 7
M  V30 7 2 7 8
M  V30 8 1 8 9
M  V30 9 1 9 10
M  V30 10 2 5 11
M  V30 11 1 11 12
M  V30 12 1 12 13
M  V30 13 2 13 14
M  V30 14 1 13 15
M  V30 15 1 15 16
M  V30 16 1 16 17
M  V30 17 1 17 18
M  V30 18 2 12 3
M  V30 19 2 10 6
M  V30 20 1 17 11
M  V30 21 1 1 19
M  V30 22 1 1 20
M  V30 23 1 1 21
M  V30 24 1 7 22
M  V30 25 1 8 23
M  V30 26 1 9 24
M  V30 27 1 15 25
M  V30 28 1 16 26
M  V30 29 1 16 27
M  V30 30 1 17 28 CFG=3
M  V30 31 1 18 29
M  V30 32 1 18 30
M  V30 33 1 18 31
M  V30 END BOND
M  V30 END CTAB
M  END
>  <Dataset>  (567) 
ChEMBL_Kinases

>  <Ligand_Instance>  (567) 
nan

>  <PDB_ID>  (567) 
nan

>  <Standardized_SMILES>  (567) 
CSc1sc(-c2cc[nH]n2)c2c1C(=O)NC[C@@H]2C

>  <Name>  (567) 
nan

>  <Pocket>  (567) 
nan

>  <ATP_Site>  (567) 
nan

>  <Peripheral>  (567) 
nan

>  <Num_H_Atoms_ProtBoundConf>  (567) 
nan

>  <Num_Resolved_Atoms>  (567) 
nan

>  <Num_Not_Resolved_Atoms>  (567) 
nan

$$$$
CHEMBL3798787
     RDKit          3D

  0  0  0  0  0  0  0  0  0  0999 V3000
M  V30 BEGIN CTAB
M  V30 COUNTS 48 52 0 0 0
M  V30 BEGIN ATOM
M  V30 1 C 0.400760 -4.670094 1.240857 0
M  V30 2 C 0.777561 -3.268258 1.611151 0
M  V30 3 C 0.065345 -2.831985 2.869725 0
M  V30 4 N 2.218501 -3.335365 1.931572 0
M  V30 5 C 2.962283 -2.148849 2.143849 0
M  V30 6 O 4.016673 -2.143173 2.836984 0
M  V30 7 C 2.447426 -0.959308 1.526615 0
M  V30 8 C 3.109729 0.234170 1.699328 0
M  V30 9 C 2.622414 1.387218 1.125338 0
M  V30 10 C 1.469307 1.357634 0.374279 0
M  V30 11 N 0.883495 2.521162 -0.254155 0
M  V30 12 C 1.194733 3.334030 -1.278831 0
M  V30 13 O 2.267777 3.040603 -1.869691 0
M  V30 14 N 0.220168 4.270439 -1.379220 0
M  V30 15 C -0.701747 4.055999 -0.428495 0
M  V30 16 N -1.837354 4.760329 -0.177752 0
M  V30 17 C -2.602239 4.328877 0.852764 0
M  V30 18 C -2.296760 3.240330 1.640105 0
M  V30 19 C -1.130535 2.583862 1.318348 0
M  V30 20 C -0.279512 2.943805 0.286514 0
M  V30 21 C 0.839190 0.131139 0.229667 0
M  V30 22 C 1.286570 -1.073123 0.787794 0
M  V30 23 N 0.535532 -2.291389 0.574859 0
M  V30 24 C -0.310853 -2.285547 -0.585570 0
M  V30 25 C -1.768793 -2.166018 -0.359383 0
M  V30 26 C -2.626135 -3.071903 0.397918 0
M  V30 27 C -2.614388 -3.221150 -1.083768 0
M  V30 28 H 1.267287 -5.359930 1.214299 0
M  V30 29 H -0.288063 -5.068101 2.038286 0
M  V30 30 H -0.178966 -4.751190 0.298283 0
M  V30 31 H -0.730584 -2.075405 2.687167 0
M  V30 32 H 0.763813 -2.317870 3.582327 0
M  V30 33 H -0.335060 -3.688755 3.451217 0
M  V30 34 H 2.751292 -4.247464 2.017914 0
M  V30 35 H 4.010657 0.254261 2.287247 0
M  V30 36 H 3.126431 2.332292 1.248537 0
M  V30 37 H 0.319531 4.983230 -2.137313 0
M  V30 38 H -3.529523 4.854095 1.104031 0
M  V30 39 H -2.907791 2.898730 2.459417 0
M  V30 40 H -0.861344 1.724977 1.916286 0
M  V30 41 H -0.063274 0.159462 -0.361031 0
M  V30 42 H 0.009974 -1.557327 -1.343812 0
M  V30 43 H -0.108762 -3.287774 -1.096364 0
M  V30 44 H -2.223229 -1.132911 -0.544312 0
M  V30 45 H -2.312031 -3.924179 1.006980 0
M  V30 46 H -3.591762 -2.638014 0.807832 0
M  V30 47 H -3.448525 -2.919533 -1.720308 0
M  V30 48 H -2.075196 -4.129244 -1.452758 0
M  V30 END ATOM
M  V30 BEGIN BOND
M  V30 1 1 1 2
M  V30 2 1 2 3
M  V30 3 1 2 4
M  V30 4 1 4 5
M  V30 5 2 5 6
M  V30 6 1 5 7
M  V30 7 2 7 8
M  V30 8 1 8 9
M  V30 9 2 9 10
M  V30 10 1 10 11
M  V30 11 1 11 12
M  V30 12 2 12 13
M  V30 13 1 12 14
M  V30 14 1 14 15
M  V30 15 2 15 16
M  V30 16 1 16 17
M  V30 17 2 17 18
M  V30 18 1 18 19
M  V30 19 2 19 20
M  V30 20 1 10 21
M  V30 21 2 21 22
M  V30 22 1 22 23
M  V30 23 1 23 24
M  V30 24 1 24 25
M  V30 25 1 25 26
M  V30 26 1 26 27
M  V30 27 1 23 2
M  V30 28 1 27 25
M  V30 29 1 22 7
M  V30 30 1 20 11
M  V30 31 1 20 15
M  V30 32 1 1 28
M  V30 33 1 1 29
M  V30 34 1 1 30
M  V30 35 1 3 31
M  V30 36 1 3 32
M  V30 37 1 3 33
M  V30 38 1 4 34
M  V30 39 1 8 35
M  V30 40 1 9 36
M  V30 41 1 14 37
M  V30 42 1 17 38
M  V30 43 1 18 39
M  V30 44 1 19 40
M  V30 45 1 21 41
M  V30 46 1 24 42
M  V30 47 1 24 43
M  V30 48 1 25 44
M  V30 49 1 26 45
M  V30 50 1 26 46
M  V30 51 1 27 47
M  V30 52 1 27 48
M  V30 END BOND
M  V30 END CTAB
M  END
>  <Dataset>  (568) 
ChEMBL_Kinases

>  <Ligand_Instance>  (568) 
nan

>  <PDB_ID>  (568) 
nan

>  <Standardized_SMILES>  (568) 
CC1(C)NC(=O)c2ccc(-n3c(=O)[nH]c4ncccc43)cc2N1CC1CC1

>  <Name>  (568) 
nan

>  <Pocket>  (568) 
nan

>  <ATP_Site>  (568) 
nan

>  <Peripheral>  (568) 
nan

>  <Num_H_Atoms_ProtBoundConf>  (568) 
nan

>  <Num_Resolved_Atoms>  (568) 
nan

>  <Num_Not_Resolved_Atoms>  (568) 
nan

$$$$
CHEMBL590969
     RDKit          3D

  0  0  0  0  0  0  0  0  0  0999 V3000
M  V30 BEGIN CTAB
M  V30 COUNTS 35 37 0 0 0
M  V30 BEGIN ATOM
M  V30 1 O 4.802779 -4.597000 3.208199 0
M  V30 2 C 3.819024 -3.838676 3.185524 0
M  V30 3 O 3.205106 -3.640838 4.415793 0
M  V30 4 C 3.311552 -3.183648 1.981601 0
M  V30 5 C 2.210853 -2.354689 2.044244 0
M  V30 6 C 1.796659 -1.776311 0.863999 0
M  V30 7 C 2.384802 -1.954094 -0.367534 0
M  V30 8 N 1.953880 -1.357147 -1.573977 0
M  V30 9 C 0.794056 -0.478449 -1.530742 0
M  V30 10 N -0.006359 -0.008763 -0.882544 0
M  V30 11 C -0.992758 0.814069 -1.187511 0
M  V30 12 C -1.924270 1.305039 -0.181316 0
M  V30 13 C -1.893055 0.984856 1.158997 0
M  V30 14 C -2.753605 1.428286 2.134465 0
M  V30 15 C -3.765726 2.285146 1.764751 0
M  V30 16 O -4.613665 2.714866 2.758557 0
M  V30 17 C -3.860532 2.650475 0.440516 0
M  V30 18 C -2.957112 2.161445 -0.477177 0
M  V30 19 O -3.196124 2.627254 -1.756345 0
M  V30 20 C -1.070989 1.168127 -2.518111 0
M  V30 21 S 0.341058 0.243159 -3.225676 0
M  V30 22 C 3.477250 -2.796151 -0.342466 0
M  V30 23 C 3.960621 -3.416375 0.787528 0
M  V30 24 H 3.443530 -4.143850 5.255768 0
M  V30 25 H 1.695052 -2.167948 2.984938 0
M  V30 26 H 0.932997 -1.134805 0.953650 0
M  V30 27 H 2.490180 -1.577015 -2.436644 0
M  V30 28 H -1.096514 0.301024 1.492917 0
M  V30 29 H -2.622846 1.102480 3.155300 0
M  V30 30 H -4.356754 3.299799 3.538829 0
M  V30 31 H -4.668926 3.322103 0.202967 0
M  V30 32 H -4.109696 2.448741 -2.155427 0
M  V30 33 H -1.669769 1.762231 -3.131291 0
M  V30 34 H 4.011439 -2.996753 -1.284124 0
M  V30 35 H 4.822024 -4.068043 0.751634 0
M  V30 END ATOM
M  V30 BEGIN BOND
M  V30 1 2 1 2
M  V30 2 1 2 3
M  V30 3 1 2 4
M  V30 4 2 4 5
M  V30 5 1 5 6
M  V30 6 2 6 7
M  V30 7 1 7 8
M  V30 8 1 8 9
M  V30 9 2 9 10
M  V30 10 1 10 11
M  V30 11 1 11 12
M  V30 12 2 12 13
M  V30 13 1 13 14
M  V30 14 2 14 15
M  V30 15 1 15 16
M  V30 16 1 15 17
M  V30 17 2 17 18
M  V30 18 1 18 19
M  V30 19 2 11 20
M  V30 20 1 20 21
M  V30 21 1 7 22
M  V30 22 2 22 23
M  V30 23 1 23 4
M  V30 24 1 21 9
M  V30 25 1 18 12
M  V30 26 1 3 24
M  V30 27 1 5 25
M  V30 28 1 6 26
M  V30 29 1 8 27
M  V30 30 1 13 28
M  V30 31 1 14 29
M  V30 32 1 16 30
M  V30 33 1 17 31
M  V30 34 1 19 32
M  V30 35 1 20 33
M  V30 36 1 22 34
M  V30 37 1 23 35
M  V30 END BOND
M  V30 END CTAB
M  END
>  <Dataset>  (569) 
ChEMBL_Kinases

>  <Ligand_Instance>  (569) 
nan

>  <PDB_ID>  (569) 
nan

>  <Standardized_SMILES>  (569) 
O=C(O)c1ccc(Nc2nc(-c3ccc(O)cc3O)cs2)cc1

>  <Name>  (569) 
nan

>  <Pocket>  (569) 
nan

>  <ATP_Site>  (569) 
nan

>  <Peripheral>  (569) 
nan

>  <Num_H_Atoms_ProtBoundConf>  (569) 
nan

>  <Num_Resolved_Atoms>  (569) 
nan

>  <Num_Not_Resolved_Atoms>  (569) 
nan

$$$$
CHEMBL591256
     RDKit          3D

  0  0  0  0  0  0  0  0  0  0999 V3000
M  V30 BEGIN CTAB
M  V30 COUNTS 67 72 0 0 0
M  V30 BEGIN ATOM
M  V30 1 C 4.348481 -3.602176 6.396715 0
M  V30 2 C 4.609370 -3.222526 4.954026 0 CFG=2
M  V30 3 C 4.670454 -1.720964 4.802286 0
M  V30 4 N 3.501233 -1.337027 4.002165 0
M  V30 5 C 3.589138 -0.436001 2.901460 0
M  V30 6 C 2.546373 -0.029650 2.095779 0
M  V30 7 C 2.754783 0.853995 1.052846 0
M  V30 8 C 1.551469 1.206069 0.269837 0
M  V30 9 O 0.612409 1.774987 0.921417 0
M  V30 10 N 1.443779 0.926046 -1.137891 0
M  V30 11 C 0.175745 1.380656 -1.604509 0
M  V30 12 C -0.004335 2.668586 -2.087536 0
M  V30 13 C -1.242744 3.121242 -2.546137 0
M  V30 14 C -2.337732 2.272517 -2.526168 0
M  V30 15 C -2.137513 0.998016 -2.042779 0
M  V30 16 C -0.922188 0.543384 -1.589181 0
M  V30 17 C -3.311707 0.143275 -2.039360 0
M  V30 18 C -4.496355 0.664275 -2.507123 0
M  V30 19 C -5.409400 -0.379199 -2.376258 0
M  V30 20 C -6.826200 -0.402202 -2.715391 0
M  V30 21 N -7.439262 0.754370 -3.255855 0
M  V30 22 O -7.651316 -1.355509 -2.595624 0
M  V30 23 N -4.745464 -1.446578 -1.850408 0
M  V30 24 N -3.479054 -1.126435 -1.648661 0
M  V30 25 C -2.595025 -2.092005 -1.103657 0
M  V30 26 C -2.295051 -2.349544 0.240258 0
M  V30 27 C -1.405335 -3.356928 0.542469 0
M  V30 28 C -0.810945 -4.108585 -0.445347 0
M  V30 29 F 0.057977 -5.089360 -0.101323 0
M  V30 30 C -1.092455 -3.871453 -1.773779 0
M  V30 31 C -1.985154 -2.862386 -2.103737 0
M  V30 32 C -4.775268 2.003877 -3.030659 0
M  V30 33 C -3.565410 2.885507 -3.036984 0
M  V30 34 C 4.039564 1.333348 0.822650 0
M  V30 35 Cl 4.180394 2.449413 -0.529490 0
M  V30 36 C 5.066359 0.915917 1.637519 0
M  V30 37 N 4.799491 0.064106 2.624000 0
M  V30 38 C 2.263549 -1.959496 4.441044 0
M  V30 39 C 2.374586 -3.437041 4.079463 0
M  V30 40 N 3.736778 -3.878277 4.029697 0
M  V30 41 H 5.006798 -4.461437 6.700892 0
M  V30 42 H 4.596120 -2.740257 7.035111 0
M  V30 43 H 3.295251 -3.882283 6.487987 0
M  V30 44 H 5.646426 -3.590888 4.722280 0
M  V30 45 H 4.615019 -1.221480 5.794637 0
M  V30 46 H 5.587400 -1.382021 4.278413 0
M  V30 47 H 1.576272 -0.434582 2.323183 0
M  V30 48 H 2.237337 0.459830 -1.627071 0
M  V30 49 H 0.870468 3.315862 -2.093023 0
M  V30 50 H -1.253327 4.134070 -2.893816 0
M  V30 51 H -0.751647 -0.440459 -1.212021 0
M  V30 52 H -7.718860 1.775724 -3.193482 0
M  V30 53 H -7.876926 0.655047 -4.220121 0
M  V30 54 H -2.826290 -1.691141 0.917720 0
M  V30 55 H -1.213483 -3.509358 1.586235 0
M  V30 56 H -0.597102 -4.492937 -2.519292 0
M  V30 57 H -2.148411 -2.744111 -3.166251 0
M  V30 58 H -5.567865 2.507732 -2.420244 0
M  V30 59 H -5.134190 1.874210 -4.083980 0
M  V30 60 H -3.786292 3.804914 -2.414571 0
M  V30 61 H -3.383202 3.246969 -4.088020 0
M  V30 62 H 6.042633 1.323514 1.408595 0
M  V30 63 H 2.220805 -1.946174 5.564339 0
M  V30 64 H 1.355082 -1.482072 4.057676 0
M  V30 65 H 1.716999 -4.070062 4.716701 0
M  V30 66 H 1.954409 -3.524982 3.037209 0
M  V30 67 H 3.753321 -4.880086 4.239916 0
M  V30 END ATOM
M  V30 BEGIN BOND
M  V30 1 1 1 2
M  V30 2 1 2 3
M  V30 3 1 3 4
M  V30 4 1 4 5
M  V30 5 2 5 6
M  V30 6 1 6 7
M  V30 7 1 7 8
M  V30 8 2 8 9
M  V30 9 1 8 10
M  V30 10 1 10 11
M  V30 11 2 11 12
M  V30 12 1 12 13
M  V30 13 2 13 14
M  V30 14 1 14 15
M  V30 15 2 15 16
M  V30 16 1 15 17
M  V30 17 2 17 18
M  V30 18 1 18 19
M  V30 19 1 19 20
M  V30 20 1 20 21
M  V30 21 2 20 22
M  V30 22 2 19 23
M  V30 23 1 23 24
M  V30 24 1 24 25
M  V30 25 2 25 26
M  V30 26 1 26 27
M  V30 27 2 27 28
M  V30 28 1 28 29
M  V30 29 1 28 30
M  V30 30 2 30 31
M  V30 31 1 18 32
M  V30 32 1 32 33
M  V30 33 2 7 34
M  V30 34 1 34 35
M  V30 35 1 34 36
M  V30 36 2 36 37
M  V30 37 1 4 38
M  V30 38 1 38 39
M  V30 39 1 39 40
M  V30 40 1 40 2
M  V30 41 1 37 5
M  V30 42 1 16 11
M  V30 43 1 24 17
M  V30 44 1 31 25
M  V30 45 1 33 14
M  V30 46 1 1 41
M  V30 47 1 1 42
M  V30 48 1 1 43
M  V30 49 1 2 44 CFG=3
M  V30 50 1 3 45
M  V30 51 1 3 46
M  V30 52 1 6 47
M  V30 53 1 10 48
M  V30 54 1 12 49
M  V30 55 1 13 50
M  V30 56 1 16 51
M  V30 57 1 21 52
M  V30 58 1 21 53
M  V30 59 1 26 54
M  V30 60 1 27 55
M  V30 61 1 30 56
M  V30 62 1 31 57
M  V30 63 1 32 58
M  V30 64 1 32 59
M  V30 65 1 33 60
M  V30 66 1 33 61
M  V30 67 1 36 62
M  V30 68 1 38 63
M  V30 69 1 38 64
M  V30 70 1 39 65
M  V30 71 1 39 66
M  V30 72 1 40 67
M  V30 END BOND
M  V30 END CTAB
M  END
>  <Dataset>  (570) 
ChEMBL_Kinases

>  <Ligand_Instance>  (570) 
nan

>  <PDB_ID>  (570) 
nan

>  <Standardized_SMILES>  (570) 
C[C@@H]1CN(c2cc(C(=O)Nc3ccc4c(c3)-c3c(c(C(N)=O)nn3-c3ccc(F)cc3)CC4)c(Cl)cn2)CCN1

>  <Name>  (570) 
nan

>  <Pocket>  (570) 
nan

>  <ATP_Site>  (570) 
nan

>  <Peripheral>  (570) 
nan

>  <Num_H_Atoms_ProtBoundConf>  (570) 
nan

>  <Num_Resolved_Atoms>  (570) 
nan

>  <Num_Not_Resolved_Atoms>  (570) 
nan

$$$$
CHEMBL504598
     RDKit          3D

  0  0  0  0  0  0  0  0  0  0999 V3000
M  V30 BEGIN CTAB
M  V30 COUNTS 32 34 0 0 0
M  V30 BEGIN ATOM
M  V30 1 O -2.491763 -1.625860 0.385344 0
M  V30 2 C -2.737966 -1.223942 1.543262 0
M  V30 3 N -1.902902 -0.665362 2.512206 0
M  V30 4 C -0.465906 -0.503727 2.142390 0
M  V30 5 N 0.349004 -1.263352 2.304628 0
M  V30 6 C 1.645049 -1.223205 2.017275 0
M  V30 7 C 2.073565 -0.092058 1.433858 0
M  V30 8 C 3.376912 0.450257 0.926364 0
M  V30 9 C 3.604352 0.101084 -0.505224 0
M  V30 10 C 4.248910 -1.047562 -0.914163 0
M  V30 11 C 4.399368 -1.260893 -2.264661 0
M  V30 12 C 3.942662 -0.391914 -3.236841 0
M  V30 13 C 3.301294 0.749517 -2.794856 0
M  V30 14 C 3.124307 1.011080 -1.449407 0
M  V30 15 S 0.535290 0.894394 1.323108 0
M  V30 16 C -4.125413 -1.333615 2.018499 0
M  V30 17 C -4.817689 -1.041810 3.138501 0
M  V30 18 C -6.138000 -1.291484 3.220527 0
M  V30 19 C -6.820498 -1.866017 2.127959 0
M  V30 20 S -5.425622 -2.069320 0.851282 0
M  V30 21 H -2.174181 -0.356043 3.447857 0
M  V30 22 H 2.376641 -2.009900 2.208684 0
M  V30 23 H 4.197401 0.028131 1.535359 0
M  V30 24 H 3.306890 1.560550 1.035980 0
M  V30 25 H 4.600827 -1.718034 -0.145043 0
M  V30 26 H 4.898167 -2.149885 -2.578898 0
M  V30 27 H 4.075117 -0.585777 -4.286883 0
M  V30 28 H 2.921632 1.467332 -3.498304 0
M  V30 29 H 2.613108 1.922109 -1.125753 0
M  V30 30 H -4.221887 -0.606381 3.923819 0
M  V30 31 H -6.736982 -1.076604 4.093790 0
M  V30 32 H -7.833798 -2.126006 2.016713 0
M  V30 END ATOM
M  V30 BEGIN BOND
M  V30 1 2 1 2
M  V30 2 1 2 3
M  V30 3 1 3 4
M  V30 4 2 4 5
M  V30 5 1 5 6
M  V30 6 2 6 7
M  V30 7 1 7 8
M  V30 8 1 8 9
M  V30 9 2 9 10
M  V30 10 1 10 11
M  V30 11 2 11 12
M  V30 12 1 12 13
M  V30 13 2 13 14
M  V30 14 1 7 15
M  V30 15 1 2 16
M  V30 16 2 16 17
M  V30 17 1 17 18
M  V30 18 2 18 19
M  V30 19 1 19 20
M  V30 20 1 15 4
M  V30 21 1 20 16
M  V30 22 1 14 9
M  V30 23 1 3 21
M  V30 24 1 6 22
M  V30 25 1 8 23
M  V30 26 1 8 24
M  V30 27 1 10 25
M  V30 28 1 11 26
M  V30 29 1 12 27
M  V30 30 1 13 28
M  V30 31 1 14 29
M  V30 32 1 17 30
M  V30 33 1 18 31
M  V30 34 1 19 32
M  V30 END BOND
M  V30 END CTAB
M  END
>  <Dataset>  (571) 
ChEMBL_Kinases

>  <Ligand_Instance>  (571) 
nan

>  <PDB_ID>  (571) 
nan

>  <Standardized_SMILES>  (571) 
O=C(Nc1ncc(Cc2ccccc2)s1)c1cccs1

>  <Name>  (571) 
nan

>  <Pocket>  (571) 
nan

>  <ATP_Site>  (571) 
nan

>  <Peripheral>  (571) 
nan

>  <Num_H_Atoms_ProtBoundConf>  (571) 
nan

>  <Num_Resolved_Atoms>  (571) 
nan

>  <Num_Not_Resolved_Atoms>  (571) 
nan

$$$$
CHEMBL3799370
     RDKit          3D

  0  0  0  0  0  0  0  0  0  0999 V3000
M  V30 BEGIN CTAB
M  V30 COUNTS 51 54 0 0 0
M  V30 BEGIN ATOM
M  V30 1 C -2.993971 -2.920908 2.823126 0
M  V30 2 C -1.651417 -3.514824 2.493442 0
M  V30 3 C -0.611315 -2.447973 2.746821 0
M  V30 4 N -0.723149 -1.332772 1.860623 0
M  V30 5 C 0.137878 -0.198488 1.895006 0
M  V30 6 O 1.027019 -0.269251 2.797969 0
M  V30 7 C 0.010915 0.932842 0.983016 0
M  V30 8 C -0.951112 1.018630 -0.000294 0
M  V30 9 C -1.036842 2.116307 -0.849231 0
M  V30 10 C -0.135180 3.167085 -0.717677 0
M  V30 11 N 0.029812 4.328034 -1.370165 0
M  V30 12 N 1.065934 4.935640 -0.800029 0
M  V30 13 C 1.561048 4.189831 0.196106 0
M  V30 14 C 2.705595 4.631684 0.986086 0
M  V30 15 C 3.838698 5.181075 0.380014 0
M  V30 16 C 4.912478 5.591700 1.169786 0
M  V30 17 N 4.891278 5.472720 2.529127 0
M  V30 18 C 3.806502 4.947589 3.099063 0
M  V30 19 C 2.690241 4.512531 2.379568 0
M  V30 20 C 0.805675 3.028281 0.282342 0
M  V30 21 C 0.921280 1.958353 1.140576 0
M  V30 22 O -1.518146 -3.982395 1.223194 0
M  V30 23 C -1.203940 -5.298052 1.053957 0
M  V30 24 C -1.103709 -5.612125 -0.399935 0
M  V30 25 C -2.310846 -6.022646 -0.960376 0
M  V30 26 C -2.341851 -6.343325 -2.311331 0
M  V30 27 C -1.201292 -6.263548 -3.109603 0
M  V30 28 C -0.051639 -5.850848 -2.482209 0
M  V30 29 C 0.047179 -5.520091 -1.155730 0
M  V30 30 H -3.736185 -3.669099 3.183253 0
M  V30 31 H -3.406715 -2.270827 2.025888 0
M  V30 32 H -2.827660 -2.243975 3.705286 0
M  V30 33 H -1.468715 -4.341428 3.210630 0
M  V30 34 H -0.636721 -2.115795 3.811700 0
M  V30 35 H 0.413075 -2.888944 2.612047 0
M  V30 36 H -1.490081 -1.373110 1.152571 0
M  V30 37 H -1.658107 0.214797 -0.117462 0
M  V30 38 H -1.810610 2.132369 -1.603136 0
M  V30 39 H -0.594108 4.605937 -2.163134 0
M  V30 40 H 3.822593 5.259989 -0.686789 0
M  V30 41 H 5.790021 6.017921 0.691128 0
M  V30 42 H 3.735270 4.828334 4.187737 0
M  V30 43 H 1.840329 4.094414 2.909076 0
M  V30 44 H 1.687745 1.921224 1.902190 0
M  V30 45 H -1.873056 -6.004059 1.582884 0
M  V30 46 H -0.188499 -5.465670 1.482188 0
M  V30 47 H -3.243727 -6.107406 -0.391556 0
M  V30 48 H -3.284265 -6.665039 -2.754120 0
M  V30 49 H -1.235472 -6.516133 -4.163920 0
M  V30 50 H 0.852942 -5.779273 -3.079529 0
M  V30 51 H 0.942526 -5.195990 -0.655515 0
M  V30 END ATOM
M  V30 BEGIN BOND
M  V30 1 1 1 2
M  V30 2 1 2 3
M  V30 3 1 3 4
M  V30 4 1 4 5
M  V30 5 2 5 6
M  V30 6 1 5 7
M  V30 7 2 7 8
M  V30 8 1 8 9
M  V30 9 2 9 10
M  V30 10 1 10 11
M  V30 11 1 11 12
M  V30 12 2 12 13
M  V30 13 1 13 14
M  V30 14 2 14 15
M  V30 15 1 15 16
M  V30 16 2 16 17
M  V30 17 1 17 18
M  V30 18 2 18 19
M  V30 19 1 13 20
M  V30 20 2 20 21
M  V30 21 1 2 22
M  V30 22 1 22 23
M  V30 23 1 23 24
M  V30 24 2 24 25
M  V30 25 1 25 26
M  V30 26 2 26 27
M  V30 27 1 27 28
M  V30 28 2 28 29
M  V30 29 1 21 7
M  V30 30 1 29 24
M  V30 31 1 20 10
M  V30 32 1 19 14
M  V30 33 1 1 30
M  V30 34 1 1 31
M  V30 35 1 1 32
M  V30 36 1 2 33
M  V30 37 1 3 34
M  V30 38 1 3 35
M  V30 39 1 4 36
M  V30 40 1 8 37
M  V30 41 1 9 38
M  V30 42 1 11 39
M  V30 43 1 15 40
M  V30 44 1 16 41
M  V30 45 1 18 42
M  V30 46 1 19 43
M  V30 47 1 21 44
M  V30 48 1 23 45
M  V30 49 1 23 46
M  V30 50 1 25 47
M  V30 51 1 26 48
M  V30 52 1 27 49
M  V30 53 1 28 50
M  V30 54 1 29 51
M  V30 END BOND
M  V30 END CTAB
M  END
>  <Dataset>  (572) 
ChEMBL_Kinases

>  <Ligand_Instance>  (572) 
nan

>  <PDB_ID>  (572) 
nan

>  <Standardized_SMILES>  (572) 
CC(CNC(=O)c1ccc2[nH]nc(-c3ccncc3)c2c1)OCc1ccccc1

>  <Name>  (572) 
nan

>  <Pocket>  (572) 
nan

>  <ATP_Site>  (572) 
nan

>  <Peripheral>  (572) 
nan

>  <Num_H_Atoms_ProtBoundConf>  (572) 
nan

>  <Num_Resolved_Atoms>  (572) 
nan

>  <Num_Not_Resolved_Atoms>  (572) 
nan

$$$$
CHEMBL3799359
     RDKit          3D

  0  0  0  0  0  0  0  0  0  0999 V3000
M  V30 BEGIN CTAB
M  V30 COUNTS 36 38 0 0 0
M  V30 BEGIN ATOM
M  V30 1 C -0.264222 -3.705118 2.856028 0
M  V30 2 C -0.971405 -2.510323 2.319193 0
M  V30 3 C -0.310190 -1.286119 2.201612 0
M  V30 4 C -0.915526 -0.151585 1.712571 0
M  V30 5 N -0.172709 1.073704 1.620018 0
M  V30 6 N 0.297471 0.849425 0.320085 0
M  V30 7 C 0.626974 1.757869 -0.523596 0
M  V30 8 C 1.116039 1.438568 -1.881247 0
M  V30 9 C 1.453343 2.468808 -2.738442 0
M  V30 10 C 1.913477 2.162217 -4.016431 0
M  V30 11 C 1.999421 0.808957 -4.337394 0
M  V30 12 O 2.456870 0.431106 -5.612553 0
M  V30 13 C 1.661343 -0.216375 -3.477777 0
M  V30 14 C 1.206246 0.099567 -2.212967 0
M  V30 15 N -2.205256 -0.239466 1.333398 0
M  V30 16 C -2.916481 -1.387449 1.415196 0
M  V30 17 C -4.235159 -1.402164 1.007594 0
M  V30 18 C -4.978146 -2.573041 1.085514 0
M  V30 19 C -4.321902 -3.672973 1.581290 0
M  V30 20 C -3.001639 -3.660515 1.989982 0
M  V30 21 C -2.270343 -2.494178 1.909618 0
M  V30 22 H 0.286806 -4.229952 2.049761 0
M  V30 23 H 0.546586 -3.293141 3.522562 0
M  V30 24 H -0.874550 -4.342643 3.499079 0
M  V30 25 H 0.741344 -1.268291 2.524998 0
M  V30 26 H -0.005239 1.890498 2.270334 0
M  V30 27 H 0.533642 2.787395 -0.203391 0
M  V30 28 H 1.374288 3.515919 -2.455733 0
M  V30 29 H 2.193686 2.918672 -4.734883 0
M  V30 30 H 2.139800 -0.447565 -6.039307 0
M  V30 31 H 1.756615 -1.255590 -3.804327 0
M  V30 32 H 0.930209 -0.671099 -1.506837 0
M  V30 33 H -4.646347 -0.470498 0.632806 0
M  V30 34 H -6.007124 -2.564895 0.762238 0
M  V30 35 H -4.906022 -4.590465 1.641754 0
M  V30 36 H -2.563296 -4.560523 2.364902 0
M  V30 END ATOM
M  V30 BEGIN BOND
M  V30 1 1 1 2
M  V30 2 2 2 3
M  V30 3 1 3 4
M  V30 4 1 4 5
M  V30 5 1 5 6
M  V30 6 2 6 7
M  V30 7 1 7 8
M  V30 8 2 8 9
M  V30 9 1 9 10
M  V30 10 2 10 11
M  V30 11 1 11 12
M  V30 12 1 11 13
M  V30 13 2 13 14
M  V30 14 2 4 15
M  V30 15 1 15 16
M  V30 16 2 16 17
M  V30 17 1 17 18
M  V30 18 2 18 19
M  V30 19 1 19 20
M  V30 20 2 20 21
M  V30 21 1 21 2
M  V30 22 1 14 8
M  V30 23 1 21 16
M  V30 24 1 1 22
M  V30 25 1 1 23
M  V30 26 1 1 24
M  V30 27 1 3 25
M  V30 28 1 5 26
M  V30 29 1 7 27
M  V30 30 1 9 28
M  V30 31 1 10 29
M  V30 32 1 12 30
M  V30 33 1 13 31
M  V30 34 1 14 32
M  V30 35 1 17 33
M  V30 36 1 18 34
M  V30 37 1 19 35
M  V30 38 1 20 36
M  V30 END BOND
M  V30 END CTAB
M  END
>  <Dataset>  (573) 
ChEMBL_Kinases

>  <Ligand_Instance>  (573) 
nan

>  <PDB_ID>  (573) 
nan

>  <Standardized_SMILES>  (573) 
Cc1cc(N/N=C/c2ccc(O)cc2)nc2ccccc12

>  <Name>  (573) 
nan

>  <Pocket>  (573) 
nan

>  <ATP_Site>  (573) 
nan

>  <Peripheral>  (573) 
nan

>  <Num_H_Atoms_ProtBoundConf>  (573) 
nan

>  <Num_Resolved_Atoms>  (573) 
nan

>  <Num_Not_Resolved_Atoms>  (573) 
nan

$$$$
CHEMBL3799347
     RDKit          3D

  0  0  0  0  0  0  0  0  0  0999 V3000
M  V30 BEGIN CTAB
M  V30 COUNTS 29 31 0 0 0
M  V30 BEGIN ATOM
M  V30 1 C -0.735862 -5.084908 -0.069981 0
M  V30 2 S 0.432540 -4.540092 1.231301 0
M  V30 3 C 0.670328 -2.728093 1.049072 0
M  V30 4 S 1.940567 -1.941571 0.015353 0
M  V30 5 C 1.511486 -0.313118 0.384940 0
M  V30 6 C 2.213774 0.871349 -0.179037 0
M  V30 7 C 2.102545 2.214716 -0.083058 0
M  V30 8 C 3.038219 2.884719 -0.835579 0
M  V30 9 N 3.731621 1.883852 -1.400189 0
M  V30 10 N 3.264642 0.713134 -1.028470 0
M  V30 11 C 0.477600 -0.411155 1.232563 0
M  V30 12 C 0.018577 -1.640265 1.595007 0
M  V30 13 C -1.131352 -1.766325 2.522005 0
M  V30 14 O -1.105342 -2.700901 3.391218 0
M  V30 15 C -2.299974 -0.806500 2.430388 0
M  V30 16 C -1.818069 0.311243 1.520199 0
M  V30 17 C -0.365168 0.568680 1.958810 0
M  V30 18 H -0.343392 -4.871094 -1.079220 0
M  V30 19 H -1.697563 -4.570059 0.005674 0
M  V30 20 H -0.924838 -6.154170 0.107492 0
M  V30 21 H 1.370096 2.706029 0.509436 0
M  V30 22 H 3.131331 3.958175 -0.905810 0
M  V30 23 H 4.551389 2.036033 -2.061526 0
M  V30 24 H -3.089539 -1.358078 1.889045 0
M  V30 25 H -2.582652 -0.425020 3.409024 0
M  V30 26 H -2.412473 1.218839 1.644651 0
M  V30 27 H -1.790047 -0.095055 0.491714 0
M  V30 28 H -0.322148 0.377017 3.073621 0
M  V30 29 H -0.113399 1.610222 1.830050 0
M  V30 END ATOM
M  V30 BEGIN BOND
M  V30 1 1 1 2
M  V30 2 1 2 3
M  V30 3 1 3 4
M  V30 4 1 4 5
M  V30 5 1 5 6
M  V30 6 1 6 7
M  V30 7 2 7 8
M  V30 8 1 8 9
M  V30 9 1 9 10
M  V30 10 2 5 11
M  V30 11 1 11 12
M  V30 12 1 12 13
M  V30 13 2 13 14
M  V30 14 1 13 15
M  V30 15 1 15 16
M  V30 16 1 16 17
M  V30 17 2 12 3
M  V30 18 2 10 6
M  V30 19 1 17 11
M  V30 20 1 1 18
M  V30 21 1 1 19
M  V30 22 1 1 20
M  V30 23 1 7 21
M  V30 24 1 8 22
M  V30 25 1 9 23
M  V30 26 1 15 24
M  V30 27 1 15 25
M  V30 28 1 16 26
M  V30 29 1 16 27
M  V30 30 1 17 28
M  V30 31 1 17 29
M  V30 END BOND
M  V30 END CTAB
M  END
>  <Dataset>  (574) 
ChEMBL_Kinases

>  <Ligand_Instance>  (574) 
nan

>  <PDB_ID>  (574) 
nan

>  <Standardized_SMILES>  (574) 
CSc1sc(-c2cc[nH]n2)c2c1C(=O)CCC2

>  <Name>  (574) 
nan

>  <Pocket>  (574) 
nan

>  <ATP_Site>  (574) 
nan

>  <Peripheral>  (574) 
nan

>  <Num_H_Atoms_ProtBoundConf>  (574) 
nan

>  <Num_Resolved_Atoms>  (574) 
nan

>  <Num_Not_Resolved_Atoms>  (574) 
nan

$$$$
CHEMBL3799336
     RDKit          3D

  0  0  0  0  0  0  0  0  0  0999 V3000
M  V30 BEGIN CTAB
M  V30 COUNTS 31 33 0 0 0
M  V30 BEGIN ATOM
M  V30 1 C -2.118013 -1.506645 4.260466 0
M  V30 2 C -0.779491 -2.050526 4.670709 0
M  V30 3 S 0.514432 -0.903803 4.173838 0
M  V30 4 C 0.692846 -0.760783 2.407511 0
M  V30 5 S 1.766912 -1.813182 1.377311 0
M  V30 6 C 1.366830 -1.035893 -0.118047 0
M  V30 7 C 1.962017 -1.475305 -1.400999 0
M  V30 8 C 2.864796 -2.513656 -1.506863 0
M  V30 9 C 3.186848 -2.618630 -2.864570 0
M  V30 10 N 2.482779 -1.660532 -3.518066 0
M  V30 11 N 1.764321 -0.997977 -2.618828 0
M  V30 12 C 0.478192 -0.045948 0.155321 0
M  V30 13 C 0.109662 0.118798 1.464309 0
M  V30 14 C -0.850288 1.143533 1.857193 0
M  V30 15 O -1.213812 1.335955 3.041290 0
M  V30 16 N -1.374387 1.949234 0.788970 0
M  V30 17 C -1.464098 1.264774 -0.494030 0
M  V30 18 C -0.069268 0.847974 -0.891521 0
M  V30 19 H -2.097884 -1.293799 3.181808 0
M  V30 20 H -2.930703 -2.193855 4.562193 0
M  V30 21 H -2.337822 -0.523338 4.757576 0
M  V30 22 H -0.708846 -2.253684 5.748853 0
M  V30 23 H -0.632181 -2.998448 4.084837 0
M  V30 24 H 3.294287 -3.168897 -0.755489 0
M  V30 25 H 3.870274 -3.328312 -3.326529 0
M  V30 26 H 2.539468 -1.517229 -4.561894 0
M  V30 27 H -1.655172 2.939825 0.970419 0
M  V30 28 H -2.128281 0.395545 -0.363490 0
M  V30 29 H -1.852775 1.966220 -1.277952 0
M  V30 30 H -0.045651 0.389354 -1.898177 0
M  V30 31 H 0.519646 1.784919 -0.990685 0
M  V30 END ATOM
M  V30 BEGIN BOND
M  V30 1 1 1 2
M  V30 2 1 2 3
M  V30 3 1 3 4
M  V30 4 1 4 5
M  V30 5 1 5 6
M  V30 6 1 6 7
M  V30 7 1 7 8
M  V30 8 2 8 9
M  V30 9 1 9 10
M  V30 10 1 10 11
M  V30 11 2 6 12
M  V30 12 1 12 13
M  V30 13 1 13 14
M  V30 14 2 14 15
M  V30 15 1 14 16
M  V30 16 1 16 17
M  V30 17 1 17 18
M  V30 18 2 13 4
M  V30 19 2 11 7
M  V30 20 1 18 12
M  V30 21 1 1 19
M  V30 22 1 1 20
M  V30 23 1 1 21
M  V30 24 1 2 22
M  V30 25 1 2 23
M  V30 26 1 8 24
M  V30 27 1 9 25
M  V30 28 1 10 26
M  V30 29 1 16 27
M  V30 30 1 17 28
M  V30 31 1 17 29
M  V30 32 1 18 30
M  V30 33 1 18 31
M  V30 END BOND
M  V30 END CTAB
M  END
>  <Dataset>  (575) 
ChEMBL_Kinases

>  <Ligand_Instance>  (575) 
nan

>  <PDB_ID>  (575) 
nan

>  <Standardized_SMILES>  (575) 
CCSc1sc(-c2cc[nH]n2)c2c1C(=O)NCC2

>  <Name>  (575) 
nan

>  <Pocket>  (575) 
nan

>  <ATP_Site>  (575) 
nan

>  <Peripheral>  (575) 
nan

>  <Num_H_Atoms_ProtBoundConf>  (575) 
nan

>  <Num_Resolved_Atoms>  (575) 
nan

>  <Num_Not_Resolved_Atoms>  (575) 
nan

$$$$
CHEMBL3799307
     RDKit          3D

  0  0  0  0  0  0  0  0  0  0999 V3000
M  V30 BEGIN CTAB
M  V30 COUNTS 51 55 0 0 0
M  V30 BEGIN ATOM
M  V30 1 C -1.248871 -4.805562 2.193369 0
M  V30 2 N -0.303062 -4.471858 1.178360 0
M  V30 3 C 0.426939 -3.277390 0.951394 0
M  V30 4 C 0.607390 -2.290182 1.902719 0
M  V30 5 C 1.320921 -1.135550 1.664338 0
M  V30 6 C 1.893860 -0.920767 0.434787 0
M  V30 7 C 2.667378 0.215686 -0.037205 0
M  V30 8 C 3.908472 0.191038 -0.631615 0
M  V30 9 N 4.542717 1.293004 -1.019191 0
M  V30 10 C 3.974524 2.514811 -0.838083 0
M  V30 11 C 2.713338 2.579027 -0.237277 0
M  V30 12 Cl 2.169219 4.258270 -0.102045 0
M  V30 13 C 2.046234 1.422328 0.169915 0
M  V30 14 N 0.786902 1.837019 0.726389 0
M  V30 15 C 0.259187 2.211375 2.018601 0
M  V30 16 C -0.886115 1.371195 2.407370 0
M  V30 17 C -1.807794 0.869267 1.381923 0
M  V30 18 C -1.353190 0.933912 -0.038594 0
M  V30 19 C -0.251529 1.921296 -0.281055 0
M  V30 20 C -3.230878 1.424875 1.537506 0
M  V30 21 N -3.981760 0.463072 0.720408 0
M  V30 22 C -3.275868 -0.763323 0.969868 0
M  V30 23 O -3.726275 -1.901493 0.608082 0
M  V30 24 O -2.086488 -0.497542 1.636207 0
M  V30 25 C 1.699580 -1.933143 -0.515287 0
M  V30 26 C 0.975288 -3.112313 -0.282925 0
M  V30 27 C 0.706260 -4.247261 -1.211661 0
M  V30 28 S 0.203243 -5.544551 -0.108528 0
M  V30 29 O 1.374425 -6.364981 0.346318 0
M  V30 30 O -0.919379 -6.352371 -0.639488 0
M  V30 31 H -1.821953 -3.960092 2.585533 0
M  V30 32 H -2.005444 -5.495251 1.733004 0
M  V30 33 H -0.783492 -5.318670 3.077978 0
M  V30 34 H 0.209618 -2.335116 2.906635 0
M  V30 35 H 1.498533 -0.348604 2.365107 0
M  V30 36 H 4.298040 -0.820793 -0.742687 0
M  V30 37 H 4.570130 3.345254 -1.186453 0
M  V30 38 H 0.026131 3.305598 2.047820 0
M  V30 39 H 1.095441 2.013694 2.751715 0
M  V30 40 H -0.567753 0.539645 3.108605 0
M  V30 41 H -1.510946 2.015414 3.112466 0
M  V30 42 H -2.220921 1.237702 -0.663573 0
M  V30 43 H -1.017456 -0.049633 -0.436196 0
M  V30 44 H -0.655692 2.972780 -0.232843 0
M  V30 45 H 0.105351 1.800988 -1.319173 0
M  V30 46 H -3.552853 1.274289 2.572903 0
M  V30 47 H -3.318726 2.460971 1.158470 0
M  V30 48 H -4.815970 0.669042 0.122902 0
M  V30 49 H 2.131656 -1.828548 -1.524751 0
M  V30 50 H 1.576776 -4.518261 -1.821890 0
M  V30 51 H -0.197438 -3.975006 -1.795510 0
M  V30 END ATOM
M  V30 BEGIN BOND
M  V30 1 1 1 2
M  V30 2 1 2 3
M  V30 3 2 3 4
M  V30 4 1 4 5
M  V30 5 2 5 6
M  V30 6 1 6 7
M  V30 7 2 7 8
M  V30 8 1 8 9
M  V30 9 2 9 10
M  V30 10 1 10 11
M  V30 11 1 11 12
M  V30 12 2 11 13
M  V30 13 1 13 14
M  V30 14 1 14 15
M  V30 15 1 15 16
M  V30 16 1 16 17
M  V30 17 1 17 18
M  V30 18 1 18 19
M  V30 19 1 17 20
M  V30 20 1 20 21
M  V30 21 1 21 22
M  V30 22 2 22 23
M  V30 23 1 22 24
M  V30 24 1 6 25
M  V30 25 2 25 26
M  V30 26 1 26 27
M  V30 27 1 27 28
M  V30 28 2 28 29
M  V30 29 2 28 30
M  V30 30 1 28 2
M  V30 31 1 26 3
M  V30 32 1 13 7
M  V30 33 1 19 14
M  V30 34 1 24 17
M  V30 35 1 1 31
M  V30 36 1 1 32
M  V30 37 1 1 33
M  V30 38 1 4 34
M  V30 39 1 5 35
M  V30 40 1 8 36
M  V30 41 1 10 37
M  V30 42 1 15 38
M  V30 43 1 15 39
M  V30 44 1 16 40
M  V30 45 1 16 41
M  V30 46 1 18 42
M  V30 47 1 18 43
M  V30 48 1 19 44
M  V30 49 1 19 45
M  V30 50 1 20 46
M  V30 51 1 20 47
M  V30 52 1 21 48
M  V30 53 1 25 49
M  V30 54 1 27 50
M  V30 55 1 27 51
M  V30 END BOND
M  V30 END CTAB
M  END
>  <Dataset>  (576) 
ChEMBL_Kinases

>  <Ligand_Instance>  (576) 
nan

>  <PDB_ID>  (576) 
nan

>  <Standardized_SMILES>  (576) 
CN1c2ccc(-c3cncc(Cl)c3N3CCC4(CC3)CNC(=O)O4)cc2CS1(=O)=O

>  <Name>  (576) 
nan

>  <Pocket>  (576) 
nan

>  <ATP_Site>  (576) 
nan

>  <Peripheral>  (576) 
nan

>  <Num_H_Atoms_ProtBoundConf>  (576) 
nan

>  <Num_Resolved_Atoms>  (576) 
nan

>  <Num_Not_Resolved_Atoms>  (576) 
nan

$$$$
CHEMBL379929
     RDKit          3D

  0  0  0  0  0  0  0  0  0  0999 V3000
M  V30 BEGIN CTAB
M  V30 COUNTS 39 42 0 0 0
M  V30 BEGIN ATOM
M  V30 1 C -0.990046 -3.748402 0.237944 0
M  V30 2 C 0.406566 -3.692850 0.766218 0
M  V30 3 C 0.472660 -2.997590 2.117858 0
M  V30 4 C 1.379801 -3.089672 -0.189685 0
M  V30 5 N 2.482338 -3.597862 -0.768077 0
M  V30 6 N 3.058728 -2.710534 -1.558231 0
M  V30 7 C 2.296962 -1.600550 -1.479703 0
M  V30 8 C 2.376141 -0.336320 -2.071694 0
M  V30 9 C 1.428115 0.658704 -1.810513 0
M  V30 10 C 0.378174 0.396577 -0.944114 0
M  V30 11 C -0.608739 1.435169 -0.671774 0
M  V30 12 O -1.378615 1.990156 -1.595532 0
M  V30 13 C -2.158002 2.891218 -1.022377 0
M  V30 14 N -1.907695 2.939390 0.294786 0
M  V30 15 C -0.931913 2.025641 0.530716 0
M  V30 16 C -0.329706 1.710466 1.804866 0
M  V30 17 C 0.974523 1.813185 2.214681 0
M  V30 18 C 1.355037 1.459728 3.491389 0
M  V30 19 C 0.456866 0.986149 4.425050 0
M  V30 20 C -0.860655 0.879640 4.019096 0
M  V30 21 C -1.249164 1.231219 2.743680 0
M  V30 22 C 0.336081 -0.856743 -0.383574 0
M  V30 23 N 1.249881 -1.823912 -0.631837 0
M  V30 24 H -1.715932 -3.273578 0.960795 0
M  V30 25 H -1.071282 -3.262893 -0.765906 0
M  V30 26 H -1.357957 -4.784339 0.081781 0
M  V30 27 H 0.746238 -4.733715 0.946917 0
M  V30 28 H -0.536322 -2.554071 2.310212 0
M  V30 29 H 0.663146 -3.705860 2.951129 0
M  V30 30 H 1.282333 -2.226865 2.152579 0
M  V30 31 H 3.228562 -0.200950 -2.742505 0
M  V30 32 H 1.551408 1.606693 -2.300218 0
M  V30 33 H -2.877686 3.476767 -1.588929 0
M  V30 34 H 1.635291 2.191058 1.439670 0
M  V30 35 H 2.400482 1.564700 3.750775 0
M  V30 36 H 0.779496 0.715973 5.419145 0
M  V30 37 H -1.558912 0.504932 4.765092 0
M  V30 38 H -2.316821 1.097045 2.558673 0
M  V30 39 H -0.502418 -1.018508 0.287732 0
M  V30 END ATOM
M  V30 BEGIN BOND
M  V30 1 1 1 2
M  V30 2 1 2 3
M  V30 3 1 2 4
M  V30 4 2 4 5
M  V30 5 1 5 6
M  V30 6 2 6 7
M  V30 7 1 7 8
M  V30 8 2 8 9
M  V30 9 1 9 10
M  V30 10 1 10 11
M  V30 11 1 11 12
M  V30 12 1 12 13
M  V30 13 2 13 14
M  V30 14 1 14 15
M  V30 15 1 15 16
M  V30 16 2 16 17
M  V30 17 1 17 18
M  V30 18 2 18 19
M  V30 19 1 19 20
M  V30 20 2 20 21
M  V30 21 2 10 22
M  V30 22 1 22 23
M  V30 23 1 23 4
M  V30 24 1 23 7
M  V30 25 2 15 11
M  V30 26 1 21 16
M  V30 27 1 1 24
M  V30 28 1 1 25
M  V30 29 1 1 26
M  V30 30 1 2 27
M  V30 31 1 3 28
M  V30 32 1 3 29
M  V30 33 1 3 30
M  V30 34 1 8 31
M  V30 35 1 9 32
M  V30 36 1 13 33
M  V30 37 1 17 34
M  V30 38 1 18 35
M  V30 39 1 19 36
M  V30 40 1 20 37
M  V30 41 1 21 38
M  V30 42 1 22 39
M  V30 END BOND
M  V30 END CTAB
M  END
>  <Dataset>  (577) 
ChEMBL_Kinases

>  <Ligand_Instance>  (577) 
nan

>  <PDB_ID>  (577) 
nan

>  <Standardized_SMILES>  (577) 
CC(C)c1nnc2ccc(-c3ocnc3-c3ccccc3)cn12

>  <Name>  (577) 
nan

>  <Pocket>  (577) 
nan

>  <ATP_Site>  (577) 
nan

>  <Peripheral>  (577) 
nan

>  <Num_H_Atoms_ProtBoundConf>  (577) 
nan

>  <Num_Resolved_Atoms>  (577) 
nan

>  <Num_Not_Resolved_Atoms>  (577) 
nan

$$$$
CHEMBL504830
     RDKit          3D

  0  0  0  0  0  0  0  0  0  0999 V3000
M  V30 BEGIN CTAB
M  V30 COUNTS 40 42 0 0 0
M  V30 BEGIN ATOM
M  V30 1 C -0.361211 -3.618953 -0.364741 0
M  V30 2 C 0.129044 -2.731385 0.788836 0
M  V30 3 C 0.728461 -3.667621 1.769918 0
M  V30 4 N 1.103537 -1.810366 0.184618 0
M  V30 5 C 1.824085 -0.792352 0.905442 0
M  V30 6 C 2.090955 0.457683 1.453057 0
M  V30 7 N 1.088920 1.451033 1.221204 0
M  V30 8 C 1.160157 2.278600 0.066513 0
M  V30 9 C 2.199116 2.115161 -0.822391 0
M  V30 10 C 2.252913 2.921541 -1.931075 0
M  V30 11 N 1.292127 3.860365 -2.136288 0
M  V30 12 C 0.260853 4.038398 -1.274567 0
M  V30 13 C 0.183227 3.230298 -0.138365 0
M  V30 14 C 3.302628 0.031617 1.982124 0
M  V30 15 O 3.939602 0.931131 2.620693 0
M  V30 16 C 3.046512 -1.210891 1.442779 0
M  V30 17 O 3.967125 -2.061077 1.675814 0
M  V30 18 C -1.026884 -1.952796 1.242820 0
M  V30 19 C -0.991750 -1.041452 2.289639 0
M  V30 20 C -2.075900 -0.317398 2.706223 0
M  V30 21 C -3.284984 -0.467156 2.085124 0
M  V30 22 C -3.412125 -1.344712 1.042381 0
M  V30 23 C -2.294948 -2.054649 0.654090 0
M  V30 24 H -0.665475 -3.014226 -1.237886 0
M  V30 25 H 0.507992 -4.234352 -0.690432 0
M  V30 26 H -1.119180 -4.293491 0.026943 0
M  V30 27 H 1.813749 -3.794768 1.534598 0
M  V30 28 H 0.319245 -4.713956 1.690864 0
M  V30 29 H 0.638375 -3.385784 2.827104 0
M  V30 30 H 1.351486 -1.829498 -0.850032 0
M  V30 31 H 0.312065 1.555162 1.909858 0
M  V30 32 H 2.967669 1.359353 -0.651935 0
M  V30 33 H 3.081532 2.762146 -2.602119 0
M  V30 34 H -0.507880 4.783456 -1.430815 0
M  V30 35 H -0.602220 3.314036 0.585586 0
M  V30 36 H -0.083935 -0.881439 2.811814 0
M  V30 37 H -1.994763 0.383193 3.531103 0
M  V30 38 H -4.144199 0.100511 2.408287 0
M  V30 39 H -4.349508 -1.468600 0.552056 0
M  V30 40 H -2.442937 -2.735207 -0.173013 0
M  V30 END ATOM
M  V30 BEGIN BOND
M  V30 1 1 1 2
M  V30 2 1 2 3
M  V30 3 1 2 4
M  V30 4 1 4 5
M  V30 5 2 5 6
M  V30 6 1 6 7
M  V30 7 1 7 8
M  V30 8 2 8 9
M  V30 9 1 9 10
M  V30 10 2 10 11
M  V30 11 1 11 12
M  V30 12 2 12 13
M  V30 13 1 6 14
M  V30 14 2 14 15
M  V30 15 1 14 16
M  V30 16 2 16 17
M  V30 17 1 2 18
M  V30 18 2 18 19
M  V30 19 1 19 20
M  V30 20 2 20 21
M  V30 21 1 21 22
M  V30 22 2 22 23
M  V30 23 1 16 5
M  V30 24 1 23 18
M  V30 25 1 13 8
M  V30 26 1 1 24
M  V30 27 1 1 25
M  V30 28 1 1 26
M  V30 29 1 3 27
M  V30 30 1 3 28
M  V30 31 1 3 29
M  V30 32 1 4 30
M  V30 33 1 7 31
M  V30 34 1 9 32
M  V30 35 1 10 33
M  V30 36 1 12 34
M  V30 37 1 13 35
M  V30 38 1 19 36
M  V30 39 1 20 37
M  V30 40 1 21 38
M  V30 41 1 22 39
M  V30 42 1 23 40
M  V30 END BOND
M  V30 END CTAB
M  END
>  <Dataset>  (578) 
ChEMBL_Kinases

>  <Ligand_Instance>  (578) 
nan

>  <PDB_ID>  (578) 
nan

>  <Standardized_SMILES>  (578) 
CC(C)(Nc1c(Nc2ccncc2)c(=O)c1=O)c1ccccc1

>  <Name>  (578) 
nan

>  <Pocket>  (578) 
nan

>  <ATP_Site>  (578) 
nan

>  <Peripheral>  (578) 
nan

>  <Num_H_Atoms_ProtBoundConf>  (578) 
nan

>  <Num_Resolved_Atoms>  (578) 
nan

>  <Num_Not_Resolved_Atoms>  (578) 
nan

$$$$
CHEMBL50498
     RDKit          3D

  0  0  0  0  0  0  0  0  0  0999 V3000
M  V30 BEGIN CTAB
M  V30 COUNTS 27 29 0 0 0
M  V30 BEGIN ATOM
M  V30 1 N 0.998138 -3.631990 4.217694 0
M  V30 2 C 0.320677 -2.532007 3.610981 0
M  V30 3 N -0.747795 -2.049262 4.266421 0
M  V30 4 C -1.432751 -0.996109 3.730813 0
M  V30 5 C -0.951141 -0.514787 2.536739 0
M  V30 6 C 0.119420 -0.972576 1.842942 0
M  V30 7 C 0.740372 -0.511718 0.626327 0
M  V30 8 C 2.118248 -0.688760 0.412502 0
M  V30 9 N 2.482942 -0.213991 -0.787297 0
M  V30 10 C 1.420211 0.283960 -1.419360 0
M  V30 11 C 1.221814 0.864863 -2.652781 0
M  V30 12 C -0.029207 1.273180 -3.060417 0
M  V30 13 C -1.069753 1.072575 -2.178351 0
M  V30 14 C -0.857562 0.492646 -0.951201 0
M  V30 15 O -1.995606 0.358025 -0.196475 0
M  V30 16 C 0.376751 0.093135 -0.548939 0
M  V30 17 N 0.722268 -2.006726 2.454575 0
M  V30 18 H 1.411640 -4.537092 3.903693 0
M  V30 19 H 1.182611 -3.635763 5.248933 0
M  V30 20 H -2.295309 -0.574787 4.220475 0
M  V30 21 H -1.490515 0.325295 2.190913 0
M  V30 22 H 2.870584 -1.140931 1.075725 0
M  V30 23 H 3.446406 -0.215731 -1.200142 0
M  V30 24 H 2.068958 0.993943 -3.295148 0
M  V30 25 H -0.197485 1.733252 -4.031048 0
M  V30 26 H -2.039269 1.401117 -2.524782 0
M  V30 27 H -2.548987 1.185875 -0.014559 0
M  V30 END ATOM
M  V30 BEGIN BOND
M  V30 1 1 1 2
M  V30 2 2 2 3
M  V30 3 1 3 4
M  V30 4 2 4 5
M  V30 5 1 5 6
M  V30 6 1 6 7
M  V30 7 2 7 8
M  V30 8 1 8 9
M  V30 9 1 9 10
M  V30 10 2 10 11
M  V30 11 1 11 12
M  V30 12 2 12 13
M  V30 13 1 13 14
M  V30 14 1 14 15
M  V30 15 2 14 16
M  V30 16 2 6 17
M  V30 17 1 17 2
M  V30 18 1 16 7
M  V30 19 1 16 10
M  V30 20 1 1 18
M  V30 21 1 1 19
M  V30 22 1 4 20
M  V30 23 1 5 21
M  V30 24 1 8 22
M  V30 25 1 9 23
M  V30 26 1 11 24
M  V30 27 1 12 25
M  V30 28 1 13 26
M  V30 29 1 15 27
M  V30 END BOND
M  V30 END CTAB
M  END
>  <Dataset>  (579) 
ChEMBL_Kinases

>  <Ligand_Instance>  (579) 
nan

>  <PDB_ID>  (579) 
nan

>  <Standardized_SMILES>  (579) 
Nc1nccc(-c2c[nH]c3cccc(O)c23)n1

>  <Name>  (579) 
MERIDIANIN A

>  <Pocket>  (579) 
nan

>  <ATP_Site>  (579) 
nan

>  <Peripheral>  (579) 
nan

>  <Num_H_Atoms_ProtBoundConf>  (579) 
nan

>  <Num_Resolved_Atoms>  (579) 
nan

>  <Num_Not_Resolved_Atoms>  (579) 
nan

$$$$
CHEMBL3799237
     RDKit          3D

  0  0  0  0  0  0  0  0  0  0999 V3000
M  V30 BEGIN CTAB
M  V30 COUNTS 44 46 0 0 0
M  V30 BEGIN ATOM
M  V30 1 C -2.052689 -3.194811 1.623366 0
M  V30 2 C -1.825203 -1.805701 1.076629 0
M  V30 3 N -0.948732 -0.993296 1.854774 0
M  V30 4 C 0.340917 -0.568540 1.410174 0
M  V30 5 C 0.532315 -0.415524 0.053099 0
M  V30 6 C 1.754594 -0.007671 -0.440268 0
M  V30 7 C 2.097207 0.192074 -1.811162 0
M  V30 8 C 2.616693 -0.681418 -2.743929 0
M  V30 9 C 2.926783 -2.096455 -2.439846 0
M  V30 10 N 2.755480 0.021019 -3.896631 0
M  V30 11 N 2.364141 1.264049 -3.757785 0
M  V30 12 C 1.958079 1.388518 -2.490521 0
M  V30 13 C 1.434958 2.686073 -1.956377 0
M  V30 14 C 2.789331 0.246252 0.451462 0
M  V30 15 C 2.608591 0.095510 1.826707 0
M  V30 16 C 1.378858 -0.313589 2.308228 0
M  V30 17 C 1.026559 -0.516245 3.699860 0
M  V30 18 O 1.934206 -0.298113 4.555197 0
M  V30 19 N -0.291389 -0.943491 4.072626 0
M  V30 20 C -1.393199 -0.575838 3.168406 0
M  V30 21 C -2.612768 -1.214945 3.678963 0
M  V30 22 C -1.557633 0.923708 3.298584 0
M  V30 23 H -3.089377 -3.328688 2.008518 0
M  V30 24 H -1.281486 -3.503172 2.346101 0
M  V30 25 H -2.010934 -3.925649 0.789532 0
M  V30 26 H -2.822105 -1.340976 0.946813 0
M  V30 27 H -1.416855 -1.961994 0.064774 0
M  V30 28 H -0.234861 -0.597850 -0.640752 0
M  V30 29 H 2.040998 -2.672924 -2.107639 0
M  V30 30 H 3.831666 -2.240877 -1.817469 0
M  V30 31 H 3.189618 -2.583543 -3.411347 0
M  V30 32 H 2.403475 1.948061 -4.553521 0
M  V30 33 H 0.729153 3.110566 -2.725229 0
M  V30 34 H 0.826082 2.534802 -1.041318 0
M  V30 35 H 2.243704 3.432961 -1.814893 0
M  V30 36 H 3.782350 0.567983 0.169740 0
M  V30 37 H 3.375813 0.280404 2.561204 0
M  V30 38 H -0.335289 -1.489996 4.978598 0
M  V30 39 H -3.423388 -1.094234 2.947274 0
M  V30 40 H -2.927251 -0.622500 4.569274 0
M  V30 41 H -2.503039 -2.239557 4.064630 0
M  V30 42 H -2.169316 1.115894 4.199785 0
M  V30 43 H -2.057940 1.309371 2.375669 0
M  V30 44 H -0.590230 1.439535 3.426287 0
M  V30 END ATOM
M  V30 BEGIN BOND
M  V30 1 1 1 2
M  V30 2 1 2 3
M  V30 3 1 3 4
M  V30 4 2 4 5
M  V30 5 1 5 6
M  V30 6 1 6 7
M  V30 7 1 7 8
M  V30 8 1 8 9
M  V30 9 2 8 10
M  V30 10 1 10 11
M  V30 11 1 11 12
M  V30 12 1 12 13
M  V30 13 2 6 14
M  V30 14 1 14 15
M  V30 15 2 15 16
M  V30 16 1 16 17
M  V30 17 2 17 18
M  V30 18 1 17 19
M  V30 19 1 19 20
M  V30 20 1 20 21
M  V30 21 1 20 22
M  V30 22 1 20 3
M  V30 23 1 16 4
M  V30 24 2 12 7
M  V30 25 1 1 23
M  V30 26 1 1 24
M  V30 27 1 1 25
M  V30 28 1 2 26
M  V30 29 1 2 27
M  V30 30 1 5 28
M  V30 31 1 9 29
M  V30 32 1 9 30
M  V30 33 1 9 31
M  V30 34 1 11 32
M  V30 35 1 13 33
M  V30 36 1 13 34
M  V30 37 1 13 35
M  V30 38 1 14 36
M  V30 39 1 15 37
M  V30 40 1 19 38
M  V30 41 1 21 39
M  V30 42 1 21 40
M  V30 43 1 21 41
M  V30 44 1 22 42
M  V30 45 1 22 43
M  V30 46 1 22 44
M  V30 END BOND
M  V30 END CTAB
M  END
>  <Dataset>  (580) 
ChEMBL_Kinases

>  <Ligand_Instance>  (580) 
nan

>  <PDB_ID>  (580) 
nan

>  <Standardized_SMILES>  (580) 
CCN1c2cc(-c3c(C)n[nH]c3C)ccc2C(=O)NC1(C)C

>  <Name>  (580) 
nan

>  <Pocket>  (580) 
nan

>  <ATP_Site>  (580) 
nan

>  <Peripheral>  (580) 
nan

>  <Num_H_Atoms_ProtBoundConf>  (580) 
nan

>  <Num_Resolved_Atoms>  (580) 
nan

>  <Num_Not_Resolved_Atoms>  (580) 
nan

$$$$
CHEMBL3798991
     RDKit          3D

  0  0  0  0  0  0  0  0  0  0999 V3000
M  V30 BEGIN CTAB
M  V30 COUNTS 53 56 0 0 0
M  V30 BEGIN ATOM
M  V30 1 C 0.076803 -8.476376 -0.565442 0
M  V30 2 O -0.757217 -7.483091 0.010518 0
M  V30 3 C -0.465761 -6.135737 -0.070563 0
M  V30 4 C 0.661758 -5.653817 -0.721330 0
M  V30 5 C 0.964831 -4.300531 -0.806872 0
M  V30 6 C 0.109603 -3.382569 -0.219873 0
M  V30 7 C 0.419492 -1.963920 -0.295207 0
M  V30 8 N 1.630555 -1.452951 -0.019680 0
M  V30 9 N 1.622659 -0.142927 -0.161661 0
M  V30 10 C 0.390783 0.273311 -0.541909 0
M  V30 11 C -0.279915 1.482676 -0.853951 0
M  V30 12 N 0.690957 2.502405 -0.691108 0
M  V30 13 C 1.658300 3.519285 -0.528951 0
M  V30 14 C 1.230808 4.549494 0.489672 0
M  V30 15 N 0.996492 4.044679 1.782861 0
M  V30 16 C 2.078208 3.560427 2.542610 0
M  V30 17 C 1.787387 2.325583 3.349291 0
M  V30 18 O 0.665774 1.636032 2.900657 0
M  V30 19 C -0.479501 2.424960 2.938197 0
M  V30 20 C -0.317933 3.704017 2.158391 0
M  V30 21 C -1.600458 1.501202 -1.216874 0
M  V30 22 C -2.298338 0.320596 -1.281767 0
M  V30 23 C -1.586382 -0.807437 -0.966930 0
M  V30 24 N -0.320518 -0.890907 -0.611865 0
M  V30 25 C -1.009156 -3.896423 0.422579 0
M  V30 26 C -1.332233 -5.240227 0.521163 0
M  V30 27 O -2.468741 -5.604250 1.185459 0
M  V30 28 C -3.394439 -4.777327 1.803076 0
M  V30 29 H -0.153823 -8.500390 -1.661132 0
M  V30 30 H 1.147663 -8.196876 -0.480570 0
M  V30 31 H -0.074958 -9.480918 -0.106631 0
M  V30 32 H 1.360352 -6.320505 -1.197712 0
M  V30 33 H 1.859951 -3.990105 -1.329852 0
M  V30 34 H 0.034888 3.291504 -0.972071 0
M  V30 35 H 1.922164 3.994882 -1.491541 0
M  V30 36 H 2.659061 3.072465 -0.204269 0
M  V30 37 H 2.033004 5.332337 0.533032 0
M  V30 38 H 0.315407 5.064865 0.146560 0
M  V30 39 H 2.399538 4.354728 3.265849 0
M  V30 40 H 2.982719 3.419378 1.889549 0
M  V30 41 H 1.637720 2.540474 4.438623 0
M  V30 42 H 2.653722 1.645306 3.259170 0
M  V30 43 H -1.282749 1.838285 2.445464 0
M  V30 44 H -0.799545 2.582273 3.989678 0
M  V30 45 H -0.973133 3.730371 1.259520 0
M  V30 46 H -0.699934 4.515156 2.837790 0
M  V30 47 H -2.005394 2.458645 -1.429845 0
M  V30 48 H -3.325477 0.459219 -1.577761 0
M  V30 49 H -2.182229 -1.705405 -1.034027 0
M  V30 50 H -1.606474 -3.073846 0.847107 0
M  V30 51 H -4.421803 -5.181640 1.673907 0
M  V30 52 H -3.192735 -4.783342 2.906748 0
M  V30 53 H -3.375684 -3.717019 1.509528 0
M  V30 END ATOM
M  V30 BEGIN BOND
M  V30 1 1 1 2
M  V30 2 1 2 3
M  V30 3 2 3 4
M  V30 4 1 4 5
M  V30 5 2 5 6
M  V30 6 1 6 7
M  V30 7 2 7 8
M  V30 8 1 8 9
M  V30 9 2 9 10
M  V30 10 1 10 11
M  V30 11 1 11 12
M  V30 12 1 12 13
M  V30 13 1 13 14
M  V30 14 1 14 15
M  V30 15 1 15 16
M  V30 16 1 16 17
M  V30 17 1 17 18
M  V30 18 1 18 19
M  V30 19 1 19 20
M  V30 20 2 11 21
M  V30 21 1 21 22
M  V30 22 2 22 23
M  V30 23 1 23 24
M  V30 24 1 6 25
M  V30 25 2 25 26
M  V30 26 1 26 27
M  V30 27 1 27 28
M  V30 28 1 26 3
M  V30 29 1 24 7
M  V30 30 1 24 10
M  V30 31 1 20 15
M  V30 32 1 1 29
M  V30 33 1 1 30
M  V30 34 1 1 31
M  V30 35 1 4 32
M  V30 36 1 5 33
M  V30 37 1 12 34
M  V30 38 1 13 35
M  V30 39 1 13 36
M  V30 40 1 14 37
M  V30 41 1 14 38
M  V30 42 1 16 39
M  V30 43 1 16 40
M  V30 44 1 17 41
M  V30 45 1 17 42
M  V30 46 1 19 43
M  V30 47 1 19 44
M  V30 48 1 20 45
M  V30 49 1 20 46
M  V30 50 1 21 47
M  V30 51 1 22 48
M  V30 52 1 23 49
M  V30 53 1 25 50
M  V30 54 1 28 51
M  V30 55 1 28 52
M  V30 56 1 28 53
M  V30 END BOND
M  V30 END CTAB
M  END
>  <Dataset>  (581) 
ChEMBL_Kinases

>  <Ligand_Instance>  (581) 
nan

>  <PDB_ID>  (581) 
nan

>  <Standardized_SMILES>  (581) 
COc1ccc(-c2nnc3c(NCCN4CCOCC4)cccn23)cc1OC

>  <Name>  (581) 
nan

>  <Pocket>  (581) 
nan

>  <ATP_Site>  (581) 
nan

>  <Peripheral>  (581) 
nan

>  <Num_H_Atoms_ProtBoundConf>  (581) 
nan

>  <Num_Resolved_Atoms>  (581) 
nan

>  <Num_Not_Resolved_Atoms>  (581) 
nan

$$$$
CHEMBL505673
     RDKit          3D

  0  0  0  0  0  0  0  0  0  0999 V3000
M  V30 BEGIN CTAB
M  V30 COUNTS 44 48 0 0 0
M  V30 BEGIN ATOM
M  V30 1 C 2.623275 -3.587614 5.041220 0
M  V30 2 O 2.139729 -3.640164 3.716614 0
M  V30 3 C 2.154609 -2.593558 2.827472 0
M  V30 4 C 2.682394 -1.377597 3.243605 0
M  V30 5 C 2.708564 -0.298818 2.357080 0
M  V30 6 C 2.202182 -0.509374 1.107552 0
M  V30 7 C 1.669946 -1.698948 0.655431 0
M  V30 8 C 1.113221 -2.126782 -0.555727 0
M  V30 9 C 0.941376 -1.265110 -1.726487 0
M  V30 10 C 0.394117 -0.048146 -1.797139 0
M  V30 11 C -0.223848 0.895952 -0.873524 0
M  V30 12 C -0.029756 2.228324 -0.697781 0
M  V30 13 N -0.871149 2.665423 0.274321 0
M  V30 14 C -0.985897 4.020311 0.779894 0
M  V30 15 C -1.624158 1.652811 0.751730 0
M  V30 16 C -2.609921 1.571372 1.712109 0
M  V30 17 C -3.242231 0.381307 2.005859 0
M  V30 18 C -2.868054 -0.738690 1.315194 0
M  V30 19 Br -3.716432 -2.415025 1.684418 0
M  V30 20 C -1.879000 -0.638106 0.357005 0
M  V30 21 C -1.221381 0.552604 0.038428 0
M  V30 22 C 0.460116 0.412790 -3.194594 0
M  V30 23 O 0.103525 1.451342 -3.798385 0
M  V30 24 N 1.082829 -0.605680 -3.966301 0
M  V30 25 C 1.393288 -1.666790 -3.072330 0
M  V30 26 O 1.959039 -2.779236 -3.342353 0
M  V30 27 C 0.783460 -3.451548 -0.319097 0
M  V30 28 O 1.114320 -3.768795 0.911423 0
M  V30 29 C 1.652545 -2.753180 1.544339 0
M  V30 30 H 2.431187 -2.604336 5.537399 0
M  V30 31 H 2.079886 -4.354385 5.657708 0
M  V30 32 H 3.695582 -3.813481 5.103985 0
M  V30 33 H 3.091243 -1.182929 4.235383 0
M  V30 34 H 3.121702 0.668633 2.668452 0
M  V30 35 H 2.252884 0.372488 0.451826 0
M  V30 36 H 0.696979 2.807317 -1.267457 0
M  V30 37 H 0.056919 4.451872 0.793792 0
M  V30 38 H -1.606758 4.629830 0.120509 0
M  V30 39 H -1.374835 4.023746 1.816822 0
M  V30 40 H -2.927674 2.436030 2.276607 0
M  V30 41 H -4.022644 0.275010 2.752103 0
M  V30 42 H -1.646327 -1.550644 -0.145767 0
M  V30 43 H 1.315749 -0.663838 -4.999661 0
M  V30 44 H 0.327285 -4.035206 -1.104089 0
M  V30 END ATOM
M  V30 BEGIN BOND
M  V30 1 1 1 2
M  V30 2 1 2 3
M  V30 3 2 3 4
M  V30 4 1 4 5
M  V30 5 2 5 6
M  V30 6 1 6 7
M  V30 7 1 7 8
M  V30 8 1 8 9
M  V30 9 2 9 10
M  V30 10 1 10 11
M  V30 11 2 11 12
M  V30 12 1 12 13
M  V30 13 1 13 14
M  V30 14 1 13 15
M  V30 15 2 15 16
M  V30 16 1 16 17
M  V30 17 2 17 18
M  V30 18 1 18 19
M  V30 19 1 18 20
M  V30 20 2 20 21
M  V30 21 1 10 22
M  V30 22 2 22 23
M  V30 23 1 22 24
M  V30 24 1 24 25
M  V30 25 2 25 26
M  V30 26 2 8 27
M  V30 27 1 27 28
M  V30 28 1 28 29
M  V30 29 1 29 3
M  V30 30 2 29 7
M  V30 31 1 25 9
M  V30 32 1 21 11
M  V30 33 1 21 15
M  V30 34 1 1 30
M  V30 35 1 1 31
M  V30 36 1 1 32
M  V30 37 1 4 33
M  V30 38 1 5 34
M  V30 39 1 6 35
M  V30 40 1 12 36
M  V30 41 1 14 37
M  V30 42 1 14 38
M  V30 43 1 14 39
M  V30 44 1 16 40
M  V30 45 1 17 41
M  V30 46 1 20 42
M  V30 47 1 24 43
M  V30 48 1 27 44
M  V30 END BOND
M  V30 END CTAB
M  END
>  <Dataset>  (582) 
ChEMBL_Kinases

>  <Ligand_Instance>  (582) 
nan

>  <PDB_ID>  (582) 
nan

>  <Standardized_SMILES>  (582) 
COc1cccc2c(C3=C(c4cn(C)c5ccc(Br)cc45)C(=O)NC3=O)coc12

>  <Name>  (582) 
nan

>  <Pocket>  (582) 
nan

>  <ATP_Site>  (582) 
nan

>  <Peripheral>  (582) 
nan

>  <Num_H_Atoms_ProtBoundConf>  (582) 
nan

>  <Num_Resolved_Atoms>  (582) 
nan

>  <Num_Not_Resolved_Atoms>  (582) 
nan

$$$$
CHEMBL3799212
     RDKit          3D

  0  0  0  0  0  0  0  0  0  0999 V3000
M  V30 BEGIN CTAB
M  V30 COUNTS 55 59 0 0 0
M  V30 BEGIN ATOM
M  V30 1 C -0.058586 -4.740640 4.516824 0
M  V30 2 N 0.046972 -4.223191 3.156710 0
M  V30 3 C 0.571763 -2.960944 2.770345 0
M  V30 4 C 0.839694 -1.830190 3.511105 0
M  V30 5 C 1.364244 -0.642923 2.981488 0
M  V30 6 C 1.637386 -0.595692 1.604469 0
M  V30 7 C 2.179974 0.710935 1.270732 0
M  V30 8 C 3.228132 1.295546 1.948809 0
M  V30 9 N 3.699806 2.507505 1.594430 0
M  V30 10 C 3.159289 3.193018 0.558750 0
M  V30 11 N 3.705890 4.470000 0.237911 0
M  V30 12 C 2.098283 2.621986 -0.141899 0
M  V30 13 Cl 1.497527 3.620168 -1.457719 0
M  V30 14 C 1.594670 1.364178 0.211513 0
M  V30 15 N 0.513447 1.005317 -0.642588 0
M  V30 16 C 0.345807 0.307986 -1.902203 0
M  V30 17 C -0.662332 -0.776694 -1.910525 0
M  V30 18 C -1.976176 -0.367632 -1.310389 0
M  V30 19 C -2.812094 0.460620 -2.242399 0
M  V30 20 C -4.221621 0.177207 -1.732233 0
M  V30 21 N -4.189984 -1.255106 -1.482375 0
M  V30 22 C -2.829438 -1.592286 -1.144484 0
M  V30 23 O -2.651887 -2.787990 -0.797495 0
M  V30 24 C -1.715776 0.277580 0.022630 0
M  V30 25 C -0.796431 1.441960 -0.172278 0
M  V30 26 C 1.368432 -1.725236 0.874202 0
M  V30 27 C 0.852100 -2.875495 1.430033 0
M  V30 28 C 0.579518 -4.081125 0.569984 0
M  V30 29 S -0.443115 -5.025101 1.680635 0
M  V30 30 O -0.085323 -6.461954 1.721496 0
M  V30 31 O -1.906573 -4.766306 1.467249 0
M  V30 32 H -0.184994 -5.836964 4.487904 0
M  V30 33 H -0.899703 -4.202652 5.000025 0
M  V30 34 H 0.848868 -4.431159 5.077455 0
M  V30 35 H 0.616164 -1.897245 4.583797 0
M  V30 36 H 1.511614 0.154172 3.726185 0
M  V30 37 H 3.638408 0.720476 2.772571 0
M  V30 38 H 3.850669 5.081296 1.093942 0
M  V30 39 H 3.939735 5.248551 0.891518 0
M  V30 40 H 0.069521 1.053395 -2.679514 0
M  V30 41 H 1.364304 -0.115302 -2.130484 0
M  V30 42 H -0.355570 -1.736714 -1.477092 0
M  V30 43 H -0.891311 -0.981021 -3.000283 0
M  V30 44 H -2.765914 -0.022776 -3.240443 0
M  V30 45 H -2.580984 1.526676 -2.263828 0
M  V30 46 H -4.346959 0.779810 -0.809645 0
M  V30 47 H -4.985391 0.474636 -2.478807 0
M  V30 48 H -5.077578 -1.797544 -1.573324 0
M  V30 49 H -2.641634 0.607522 0.523619 0
M  V30 50 H -1.230146 -0.468181 0.652440 0
M  V30 51 H -0.758861 1.983448 0.794314 0
M  V30 52 H -1.216440 2.197405 -0.890888 0
M  V30 53 H 1.627629 -1.564085 -0.159074 0
M  V30 54 H 1.509058 -4.637390 0.331491 0
M  V30 55 H -0.029000 -3.822789 -0.317363 0
M  V30 END ATOM
M  V30 BEGIN BOND
M  V30 1 1 1 2
M  V30 2 1 2 3
M  V30 3 2 3 4
M  V30 4 1 4 5
M  V30 5 2 5 6
M  V30 6 1 6 7
M  V30 7 2 7 8
M  V30 8 1 8 9
M  V30 9 2 9 10
M  V30 10 1 10 11
M  V30 11 1 10 12
M  V30 12 1 12 13
M  V30 13 2 12 14
M  V30 14 1 14 15
M  V30 15 1 15 16
M  V30 16 1 16 17
M  V30 17 1 17 18
M  V30 18 1 18 19
M  V30 19 1 19 20
M  V30 20 1 20 21
M  V30 21 1 21 22
M  V30 22 2 22 23
M  V30 23 1 18 24
M  V30 24 1 24 25
M  V30 25 1 6 26
M  V30 26 2 26 27
M  V30 27 1 27 28
M  V30 28 1 28 29
M  V30 29 2 29 30
M  V30 30 2 29 31
M  V30 31 1 29 2
M  V30 32 1 27 3
M  V30 33 1 14 7
M  V30 34 1 25 15
M  V30 35 1 22 18
M  V30 36 1 1 32
M  V30 37 1 1 33
M  V30 38 1 1 34
M  V30 39 1 4 35
M  V30 40 1 5 36
M  V30 41 1 8 37
M  V30 42 1 11 38
M  V30 43 1 11 39
M  V30 44 1 16 40
M  V30 45 1 16 41
M  V30 46 1 17 42
M  V30 47 1 17 43
M  V30 48 1 19 44
M  V30 49 1 19 45
M  V30 50 1 20 46
M  V30 51 1 20 47
M  V30 52 1 21 48
M  V30 53 1 24 49
M  V30 54 1 24 50
M  V30 55 1 25 51
M  V30 56 1 25 52
M  V30 57 1 26 53
M  V30 58 1 28 54
M  V30 59 1 28 55
M  V30 END BOND
M  V30 END CTAB
M  END
>  <Dataset>  (583) 
ChEMBL_Kinases

>  <Ligand_Instance>  (583) 
nan

>  <PDB_ID>  (583) 
nan

>  <Standardized_SMILES>  (583) 
CN1c2ccc(-c3cnc(N)c(Cl)c3N3CCC4(CCNC4=O)CC3)cc2CS1(=O)=O

>  <Name>  (583) 
nan

>  <Pocket>  (583) 
nan

>  <ATP_Site>  (583) 
nan

>  <Peripheral>  (583) 
nan

>  <Num_H_Atoms_ProtBoundConf>  (583) 
nan

>  <Num_Resolved_Atoms>  (583) 
nan

>  <Num_Not_Resolved_Atoms>  (583) 
nan

$$$$
CHEMBL3799159
     RDKit          3D

  0  0  0  0  0  0  0  0  0  0999 V3000
M  V30 BEGIN CTAB
M  V30 COUNTS 69 73 0 0 0
M  V30 BEGIN ATOM
M  V30 1 C 3.151196 -3.699659 3.260813 0
M  V30 2 N 3.457915 -2.961284 2.055707 0
M  V30 3 C 3.150889 -1.611601 1.742537 0
M  V30 4 C 2.181230 -0.852502 2.368589 0
M  V30 5 C 1.946744 0.454145 1.999873 0
M  V30 6 C 2.645696 1.092245 0.999106 0
M  V30 7 C 2.493255 2.433565 0.514756 0
M  V30 8 C 3.528768 3.327349 0.372413 0
M  V30 9 N 3.405223 4.573829 -0.067536 0
M  V30 10 C 2.191333 5.028970 -0.408200 0
M  V30 11 C 1.090474 4.186636 -0.293448 0
M  V30 12 Cl -0.419460 4.927852 -0.775778 0
M  V30 13 C 1.236608 2.874328 0.172065 0
M  V30 14 N 0.000923 2.210253 0.197672 0
M  V30 15 C -1.117868 2.001334 1.130116 0
M  V30 16 C -1.572719 0.539268 0.984233 0
M  V30 17 C -2.334037 0.469521 -0.291061 0
M  V30 18 C -3.754739 0.935880 -0.053168 0
M  V30 19 C -4.509330 0.307553 -1.206626 0
M  V30 20 C -3.641835 -0.824275 -1.676141 0
M  V30 21 N -2.392085 -0.772642 -0.959028 0
M  V30 22 C -2.252767 -1.958271 -0.179255 0
M  V30 23 C -2.053844 -3.122393 -1.112998 0
M  V30 24 C -1.873152 -4.444580 -0.465329 0
M  V30 25 S -3.182315 -5.013149 0.544339 0
M  V30 26 C -3.570771 -4.003711 1.919486 0
M  V30 27 O -4.448120 -5.225825 -0.264805 0
M  V30 28 O -2.786547 -6.393966 1.050186 0
M  V30 29 C -1.742482 1.489857 -1.274017 0
M  V30 30 C -0.224246 1.541345 -1.070146 0
M  V30 31 C 3.614903 0.267740 0.404250 0
M  V30 32 C 3.890476 -1.067218 0.745078 0
M  V30 33 C 4.916972 -1.942067 0.120391 0
M  V30 34 S 4.301982 -3.529997 0.631876 0
M  V30 35 O 3.316008 -3.991840 -0.399552 0
M  V30 36 O 5.357827 -4.512566 0.947495 0
M  V30 37 H 2.063825 -3.905417 3.235143 0
M  V30 38 H 3.792868 -4.583680 3.362481 0
M  V30 39 H 3.301657 -2.985188 4.116904 0
M  V30 40 H 1.562610 -1.230545 3.168272 0
M  V30 41 H 1.193102 1.041747 2.499542 0
M  V30 42 H 4.515802 2.951647 0.651127 0
M  V30 43 H 2.139797 6.048871 -0.760165 0
M  V30 44 H -1.990375 2.626177 0.882721 0
M  V30 45 H -0.850675 2.249568 2.171335 0
M  V30 46 H -0.730495 -0.146505 1.095593 0
M  V30 47 H -2.282684 0.389136 1.832374 0
M  V30 48 H -4.180856 0.617064 0.898532 0
M  V30 49 H -3.857245 2.034113 -0.149949 0
M  V30 50 H -5.496034 -0.037331 -0.843325 0
M  V30 51 H -4.694893 1.038412 -2.019744 0
M  V30 52 H -4.229974 -1.760950 -1.479922 0
M  V30 53 H -3.404293 -0.770214 -2.759414 0
M  V30 54 H -1.535641 -1.934730 0.639031 0
M  V30 55 H -3.264787 -2.111013 0.308300 0
M  V30 56 H -2.883645 -3.217046 -1.849509 0
M  V30 57 H -1.138325 -2.967854 -1.761602 0
M  V30 58 H -1.754477 -5.194366 -1.303291 0
M  V30 59 H -0.881443 -4.485519 0.049944 0
M  V30 60 H -4.520561 -3.435708 1.818294 0
M  V30 61 H -2.700288 -3.403396 2.219081 0
M  V30 62 H -3.767798 -4.674217 2.813385 0
M  V30 63 H -2.200280 2.482774 -1.138224 0
M  V30 64 H -1.917055 1.189906 -2.310027 0
M  V30 65 H 0.197472 2.041198 -1.940378 0
M  V30 66 H 0.083305 0.479659 -0.962502 0
M  V30 67 H 4.198721 0.730518 -0.398859 0
M  V30 68 H 5.926591 -1.742808 0.536534 0
M  V30 69 H 4.912807 -1.874209 -0.981248 0
M  V30 END ATOM
M  V30 BEGIN BOND
M  V30 1 1 1 2
M  V30 2 1 2 3
M  V30 3 2 3 4
M  V30 4 1 4 5
M  V30 5 2 5 6
M  V30 6 1 6 7
M  V30 7 2 7 8
M  V30 8 1 8 9
M  V30 9 2 9 10
M  V30 10 1 10 11
M  V30 11 1 11 12
M  V30 12 2 11 13
M  V30 13 1 13 14
M  V30 14 1 14 15
M  V30 15 1 15 16
M  V30 16 1 16 17
M  V30 17 1 17 18
M  V30 18 1 18 19
M  V30 19 1 19 20
M  V30 20 1 20 21
M  V30 21 1 21 22
M  V30 22 1 22 23
M  V30 23 1 23 24
M  V30 24 1 24 25
M  V30 25 1 25 26
M  V30 26 2 25 27
M  V30 27 2 25 28
M  V30 28 1 17 29
M  V30 29 1 29 30
M  V30 30 1 6 31
M  V30 31 2 31 32
M  V30 32 1 32 33
M  V30 33 1 33 34
M  V30 34 2 34 35
M  V30 35 2 34 36
M  V30 36 1 34 2
M  V30 37 1 32 3
M  V30 38 1 13 7
M  V30 39 1 30 14
M  V30 40 1 21 17
M  V30 41 1 1 37
M  V30 42 1 1 38
M  V30 43 1 1 39
M  V30 44 1 4 40
M  V30 45 1 5 41
M  V30 46 1 8 42
M  V30 47 1 10 43
M  V30 48 1 15 44
M  V30 49 1 15 45
M  V30 50 1 16 46
M  V30 51 1 16 47
M  V30 52 1 18 48
M  V30 53 1 18 49
M  V30 54 1 19 50
M  V30 55 1 19 51
M  V30 56 1 20 52
M  V30 57 1 20 53
M  V30 58 1 22 54
M  V30 59 1 22 55
M  V30 60 1 23 56
M  V30 61 1 23 57
M  V30 62 1 24 58
M  V30 63 1 24 59
M  V30 64 1 26 60
M  V30 65 1 26 61
M  V30 66 1 26 62
M  V30 67 1 29 63
M  V30 68 1 29 64
M  V30 69 1 30 65
M  V30 70 1 30 66
M  V30 71 1 31 67
M  V30 72 1 33 68
M  V30 73 1 33 69
M  V30 END BOND
M  V30 END CTAB
M  END
>  <Dataset>  (584) 
ChEMBL_Kinases

>  <Ligand_Instance>  (584) 
nan

>  <PDB_ID>  (584) 
nan

>  <Standardized_SMILES>  (584) 
CN1c2ccc(-c3cncc(Cl)c3N3CCC4(CCCN4CCCS(C)(=O)=O)CC3)cc2CS1(=O)=O

>  <Name>  (584) 
nan

>  <Pocket>  (584) 
nan

>  <ATP_Site>  (584) 
nan

>  <Peripheral>  (584) 
nan

>  <Num_H_Atoms_ProtBoundConf>  (584) 
nan

>  <Num_Resolved_Atoms>  (584) 
nan

>  <Num_Not_Resolved_Atoms>  (584) 
nan

$$$$
CHEMBL3799146
     RDKit          3D

  0  0  0  0  0  0  0  0  0  0999 V3000
M  V30 BEGIN CTAB
M  V30 COUNTS 38 40 0 0 0
M  V30 BEGIN ATOM
M  V30 1 C -0.284499 0.642117 6.130712 0
M  V30 2 S 0.955843 1.240245 4.926560 0
M  V30 3 C 0.808708 0.338556 3.420420 0
M  V30 4 S 1.704963 -1.213804 3.055003 0
M  V30 5 C 1.052272 -1.443186 1.483056 0
M  V30 6 C 1.353834 -2.567561 0.547047 0
M  V30 7 C 2.217453 -3.558592 0.875900 0
M  V30 8 C 2.219999 -4.384175 -0.232934 0
M  V30 9 N 1.383198 -3.897689 -1.190751 0
M  V30 10 C 1.037415 -4.383563 -2.513048 0
M  V30 11 N 0.871122 -2.773406 -0.661790 0
M  V30 12 C 0.171243 -0.348538 1.258935 0
M  V30 13 C 0.087639 0.528870 2.283382 0
M  V30 14 C -0.828380 1.670800 2.058614 0
M  V30 15 O -1.418284 2.225797 3.045361 0
M  V30 16 C -1.120376 2.237638 0.714280 0
M  V30 17 C -0.655688 1.328424 -0.393098 0
M  V30 18 C -1.619445 1.432423 -1.557738 0
M  V30 19 C 0.705988 1.763500 -0.900679 0
M  V30 20 C -0.624075 -0.120587 0.025103 0
M  V30 21 H -0.772119 1.498063 6.671315 0
M  V30 22 H 0.148392 -0.100970 6.833585 0
M  V30 23 H -1.109272 0.127859 5.560657 0
M  V30 24 H 2.816358 -3.751777 1.770535 0
M  V30 25 H 2.776264 -5.296688 -0.390822 0
M  V30 26 H 1.396969 -3.614006 -3.240127 0
M  V30 27 H 1.426919 -5.381985 -2.697368 0
M  V30 28 H -0.083635 -4.406412 -2.648203 0
M  V30 29 H -0.587503 3.208675 0.637970 0
M  V30 30 H -2.204028 2.453203 0.590845 0
M  V30 31 H -1.777810 0.449045 -2.075337 0
M  V30 32 H -2.627903 1.688701 -1.155052 0
M  V30 33 H -1.275109 2.120089 -2.355054 0
M  V30 34 H 1.540702 1.348469 -0.278900 0
M  V30 35 H 0.786119 2.859138 -0.943095 0
M  V30 36 H 0.889171 1.380437 -1.934957 0
M  V30 37 H -0.220043 -0.670442 -0.839560 0
M  V30 38 H -1.667684 -0.449806 0.201413 0
M  V30 END ATOM
M  V30 BEGIN BOND
M  V30 1 1 1 2
M  V30 2 1 2 3
M  V30 3 1 3 4
M  V30 4 1 4 5
M  V30 5 1 5 6
M  V30 6 1 6 7
M  V30 7 2 7 8
M  V30 8 1 8 9
M  V30 9 1 9 10
M  V30 10 1 9 11
M  V30 11 2 5 12
M  V30 12 1 12 13
M  V30 13 1 13 14
M  V30 14 2 14 15
M  V30 15 1 14 16
M  V30 16 1 16 17
M  V30 17 1 17 18
M  V30 18 1 17 19
M  V30 19 1 17 20
M  V30 20 2 13 3
M  V30 21 2 11 6
M  V30 22 1 20 12
M  V30 23 1 1 21
M  V30 24 1 1 22
M  V30 25 1 1 23
M  V30 26 1 7 24
M  V30 27 1 8 25
M  V30 28 1 10 26
M  V30 29 1 10 27
M  V30 30 1 10 28
M  V30 31 1 16 29
M  V30 32 1 16 30
M  V30 33 1 18 31
M  V30 34 1 18 32
M  V30 35 1 18 33
M  V30 36 1 19 34
M  V30 37 1 19 35
M  V30 38 1 19 36
M  V30 39 1 20 37
M  V30 40 1 20 38
M  V30 END BOND
M  V30 END CTAB
M  END
>  <Dataset>  (585) 
ChEMBL_Kinases

>  <Ligand_Instance>  (585) 
nan

>  <PDB_ID>  (585) 
nan

>  <Standardized_SMILES>  (585) 
CSc1sc(-c2ccn(C)n2)c2c1C(=O)CC(C)(C)C2

>  <Name>  (585) 
nan

>  <Pocket>  (585) 
nan

>  <ATP_Site>  (585) 
nan

>  <Peripheral>  (585) 
nan

>  <Num_H_Atoms_ProtBoundConf>  (585) 
nan

>  <Num_Resolved_Atoms>  (585) 
nan

>  <Num_Not_Resolved_Atoms>  (585) 
nan

$$$$
CHEMBL379914
     RDKit          3D

  0  0  0  0  0  0  0  0  0  0999 V3000
M  V30 BEGIN CTAB
M  V30 COUNTS 50 53 0 0 0
M  V30 BEGIN ATOM
M  V30 1 N -0.532728 -1.114367 0.227443 0
M  V30 2 C -0.771550 -2.146173 -0.733774 0 CFG=2
M  V30 3 C -0.023879 -1.851955 -2.009143 0
M  V30 4 O 1.315908 -1.753758 -1.986865 0
M  V30 5 C 2.196116 -0.940406 -1.417565 0
M  V30 6 C 3.430658 -1.495340 -1.840320 0
M  V30 7 N 4.652725 -0.982313 -1.494870 0
M  V30 8 C 4.734850 0.121157 -0.702977 0
M  V30 9 Cl 6.229969 0.868959 -0.193220 0
M  V30 10 C 3.564859 0.699313 -0.265330 0
M  V30 11 C 3.554935 1.880103 0.581222 0
M  V30 12 C 2.551302 2.564274 1.095116 0
M  V30 13 C 2.606025 3.738747 1.935375 0
M  V30 14 C 1.440765 4.322688 2.384754 0
M  V30 15 C 1.571076 5.457304 3.193939 0
M  V30 16 N 2.733913 6.004840 3.555083 0
M  V30 17 C 3.877555 5.442872 3.121955 0
M  V30 18 C 3.787285 4.328868 2.326486 0
M  V30 19 C 2.365401 0.149122 -0.638420 0
M  V30 20 C -2.239623 -2.206753 -1.121767 0
M  V30 21 C -3.121701 -2.482676 0.040512 0
M  V30 22 C -3.933088 -1.595318 0.734737 0
M  V30 23 N -4.549784 -2.275738 1.706913 0
M  V30 24 C -4.171023 -3.552800 1.666003 0
M  V30 25 C -4.502492 -4.671370 2.435240 0
M  V30 26 C -3.967169 -5.916421 2.193448 0
M  V30 27 C -3.068160 -6.064437 1.150295 0
M  V30 28 C -2.738723 -4.972519 0.392174 0
M  V30 29 C -3.273346 -3.729814 0.633927 0
M  V30 30 H -1.396778 -0.933786 0.819410 0
M  V30 31 H 0.222582 -1.306862 0.912696 0
M  V30 32 H -0.441303 -3.103490 -0.269686 0
M  V30 33 H -0.536454 -0.894958 -2.390869 0
M  V30 34 H -0.394788 -2.590064 -2.811683 0
M  V30 35 H 3.707863 -2.356338 -2.464589 0
M  V30 36 H 4.535232 2.287159 0.850289 0
M  V30 37 H 1.577496 2.156283 0.825664 0
M  V30 38 H 0.485611 3.933921 2.132241 0
M  V30 39 H 0.667206 5.939588 3.563998 0
M  V30 40 H 4.839647 5.883002 3.411368 0
M  V30 41 H 4.741501 3.931029 2.016089 0
M  V30 42 H 1.430424 0.544573 -0.360137 0
M  V30 43 H -2.412666 -2.922570 -1.950276 0
M  V30 44 H -2.476427 -1.200031 -1.548071 0
M  V30 45 H -4.048297 -0.539700 0.528385 0
M  V30 46 H -5.219791 -1.837686 2.376787 0
M  V30 47 H -5.202989 -4.532981 3.240554 0
M  V30 48 H -4.230487 -6.761734 2.790390 0
M  V30 49 H -2.628453 -7.034852 0.934337 0
M  V30 50 H -2.037678 -5.128033 -0.408004 0
M  V30 END ATOM
M  V30 BEGIN BOND
M  V30 1 1 1 2
M  V30 2 1 2 3
M  V30 3 1 3 4
M  V30 4 1 4 5
M  V30 5 2 5 6
M  V30 6 1 6 7
M  V30 7 2 7 8
M  V30 8 1 8 9
M  V30 9 1 8 10
M  V30 10 1 10 11
M  V30 11 2 11 12
M  V30 12 1 12 13
M  V30 13 2 13 14
M  V30 14 1 14 15
M  V30 15 2 15 16
M  V30 16 1 16 17
M  V30 17 2 17 18
M  V30 18 2 10 19
M  V30 19 1 2 20
M  V30 20 1 20 21
M  V30 21 2 21 22
M  V30 22 1 22 23
M  V30 23 1 23 24
M  V30 24 2 24 25
M  V30 25 1 25 26
M  V30 26 2 26 27
M  V30 27 1 27 28
M  V30 28 2 28 29
M  V30 29 1 19 5
M  V30 30 1 29 21
M  V30 31 1 18 13
M  V30 32 1 29 24
M  V30 33 1 1 30
M  V30 34 1 1 31
M  V30 35 1 2 32 CFG=1
M  V30 36 1 3 33
M  V30 37 1 3 34
M  V30 38 1 6 35
M  V30 39 1 11 36
M  V30 40 1 12 37
M  V30 41 1 14 38
M  V30 42 1 15 39
M  V30 43 1 17 40
M  V30 44 1 18 41
M  V30 45 1 19 42
M  V30 46 1 20 43
M  V30 47 1 20 44
M  V30 48 1 22 45
M  V30 49 1 23 46
M  V30 50 1 25 47
M  V30 51 1 26 48
M  V30 52 1 27 49
M  V30 53 1 28 50
M  V30 END BOND
M  V30 END CTAB
M  END
>  <Dataset>  (586) 
ChEMBL_Kinases

>  <Ligand_Instance>  (586) 
nan

>  <PDB_ID>  (586) 
nan

>  <Standardized_SMILES>  (586) 
N[C@H](COc1cnc(Cl)c(/C=C/c2ccncc2)c1)Cc1c[nH]c2ccccc12

>  <Name>  (586) 
nan

>  <Pocket>  (586) 
nan

>  <ATP_Site>  (586) 
nan

>  <Peripheral>  (586) 
nan

>  <Num_H_Atoms_ProtBoundConf>  (586) 
nan

>  <Num_Resolved_Atoms>  (586) 
nan

>  <Num_Not_Resolved_Atoms>  (586) 
nan

$$$$
CHEMBL505756
     RDKit          3D

  0  0  0  0  0  0  0  0  0  0999 V3000
M  V30 BEGIN CTAB
M  V30 COUNTS 38 40 0 0 0
M  V30 BEGIN ATOM
M  V30 1 C -0.831101 -3.911631 3.836228 0
M  V30 2 C 0.453926 -3.164432 3.805625 0
M  V30 3 O 0.861631 -2.532837 4.818086 0
M  V30 4 N 1.234489 -3.166387 2.606049 0
M  V30 5 C 0.971262 -3.808257 1.345837 0
M  V30 6 C 1.008780 -2.853012 0.173377 0
M  V30 7 C 1.111047 -1.448197 0.787169 0
M  V30 8 O 0.944778 -0.453380 -0.114858 0
M  V30 9 C 0.084183 0.578721 -0.149645 0
M  V30 10 C 0.369245 1.294419 -1.328627 0
M  V30 11 C -0.326235 2.443457 -1.711286 0
M  V30 12 C -0.111932 3.197761 -2.841060 0
M  V30 13 N -0.825975 4.283942 -3.128651 0
M  V30 14 C -1.817818 4.733512 -2.335798 0
M  V30 15 C -2.111626 4.041577 -1.172112 0
M  V30 16 C -1.353518 2.922720 -0.905447 0
M  V30 17 C -1.655456 2.248583 0.248854 0
M  V30 18 C -0.941502 1.124221 0.579545 0
M  V30 19 Br -1.348971 0.186141 2.169232 0
M  V30 20 C 2.533194 -1.463184 1.402340 0
M  V30 21 C 2.485457 -2.454233 2.536838 0
M  V30 22 H -1.640931 -3.381428 3.295607 0
M  V30 23 H -0.692802 -4.903496 3.343758 0
M  V30 24 H -1.169432 -4.028790 4.897000 0
M  V30 25 H -0.059574 -4.218562 1.399656 0
M  V30 26 H 1.684652 -4.665855 1.168309 0
M  V30 27 H 0.143361 -2.979296 -0.472325 0
M  V30 28 H 1.958748 -3.050121 -0.380064 0
M  V30 29 H 0.452241 -1.467776 1.671444 0
M  V30 30 H 1.118957 1.096926 -2.088146 0
M  V30 31 H 0.686159 2.851469 -3.496422 0
M  V30 32 H -2.381415 5.625309 -2.601599 0
M  V30 33 H -2.891685 4.369806 -0.520021 0
M  V30 34 H -2.431831 2.552423 0.923584 0
M  V30 35 H 2.834306 -0.472961 1.744159 0
M  V30 36 H 3.183581 -1.865265 0.592455 0
M  V30 37 H 3.310307 -3.194085 2.488182 0
M  V30 38 H 2.636222 -1.888934 3.494908 0
M  V30 END ATOM
M  V30 BEGIN BOND
M  V30 1 1 1 2
M  V30 2 2 2 3
M  V30 3 1 2 4
M  V30 4 1 4 5
M  V30 5 1 5 6
M  V30 6 1 6 7
M  V30 7 1 7 8
M  V30 8 1 8 9
M  V30 9 2 9 10
M  V30 10 1 10 11
M  V30 11 2 11 12
M  V30 12 1 12 13
M  V30 13 2 13 14
M  V30 14 1 14 15
M  V30 15 2 15 16
M  V30 16 1 16 17
M  V30 17 2 17 18
M  V30 18 1 18 19
M  V30 19 1 7 20
M  V30 20 1 20 21
M  V30 21 1 21 4
M  V30 22 1 18 9
M  V30 23 1 16 11
M  V30 24 1 1 22
M  V30 25 1 1 23
M  V30 26 1 1 24
M  V30 27 1 5 25
M  V30 28 1 5 26
M  V30 29 1 6 27
M  V30 30 1 6 28
M  V30 31 1 7 29
M  V30 32 1 10 30
M  V30 33 1 12 31
M  V30 34 1 14 32
M  V30 35 1 15 33
M  V30 36 1 17 34
M  V30 37 1 20 35
M  V30 38 1 20 36
M  V30 39 1 21 37
M  V30 40 1 21 38
M  V30 END BOND
M  V30 END CTAB
M  END
>  <Dataset>  (587) 
ChEMBL_Kinases

>  <Ligand_Instance>  (587) 
nan

>  <PDB_ID>  (587) 
nan

>  <Standardized_SMILES>  (587) 
CC(=O)N1CCC(Oc2cc3cnccc3cc2Br)CC1

>  <Name>  (587) 
nan

>  <Pocket>  (587) 
nan

>  <ATP_Site>  (587) 
nan

>  <Peripheral>  (587) 
nan

>  <Num_H_Atoms_ProtBoundConf>  (587) 
nan

>  <Num_Resolved_Atoms>  (587) 
nan

>  <Num_Not_Resolved_Atoms>  (587) 
nan

$$$$
CHEMBL3799116
     RDKit          3D

  0  0  0  0  0  0  0  0  0  0999 V3000
M  V30 BEGIN CTAB
M  V30 COUNTS 53 57 0 0 0
M  V30 BEGIN ATOM
M  V30 1 C -2.065648 -5.333755 3.236092 0
M  V30 2 N -1.046497 -5.217910 2.211320 0
M  V30 3 C -0.218508 -4.142133 1.802391 0
M  V30 4 C 0.045106 -3.020792 2.565946 0
M  V30 5 C 0.859636 -2.007448 2.114329 0
M  V30 6 C 1.457226 -2.055213 0.874758 0
M  V30 7 C 2.326168 -1.087613 0.234004 0
M  V30 8 C 3.510411 -1.603666 -0.278364 0
M  V30 9 N 4.380390 -0.799750 -0.877781 0
M  V30 10 C 4.151106 0.505699 -1.005843 0
M  V30 11 C 3.013467 1.088153 -0.530166 0
M  V30 12 F 2.759837 2.418998 -0.650471 0
M  V30 13 C 2.090454 0.260414 0.100860 0
M  V30 14 N 0.896662 0.855786 0.592180 0
M  V30 15 C 0.379623 1.482335 1.787071 0
M  V30 16 C -0.339869 2.776798 1.503038 0
M  V30 17 C -1.344709 2.640970 0.384111 0
M  V30 18 C -1.134402 3.583280 -0.756005 0
M  V30 19 C -2.487894 3.501560 -1.474372 0
M  V30 20 N -3.424928 3.226433 -0.405609 0
M  V30 21 C -2.728426 3.003444 0.825595 0
M  V30 22 O -3.387753 3.152749 1.875183 0
M  V30 23 C -1.389260 1.192200 -0.032639 0
M  V30 24 C -0.035653 0.769155 -0.504424 0
M  V30 25 C 1.161937 -3.211314 0.134507 0
M  V30 26 C 0.332381 -4.257841 0.578243 0
M  V30 27 C -0.020483 -5.505633 -0.157513 0
M  V30 28 S -0.596076 -6.542703 1.163894 0
M  V30 29 O 0.493710 -7.373468 1.766191 0
M  V30 30 O -1.788186 -7.339029 0.768349 0
M  V30 31 H -1.720782 -5.944897 4.116662 0
M  V30 32 H -3.000916 -5.808320 2.818647 0
M  V30 33 H -2.393865 -4.369875 3.629693 0
M  V30 34 H -0.356464 -2.856397 3.549429 0
M  V30 35 H 1.083516 -1.135587 2.691591 0
M  V30 36 H 3.778395 -2.648273 -0.219406 0
M  V30 37 H 4.910573 1.106838 -1.509969 0
M  V30 38 H 1.227394 1.729393 2.469100 0
M  V30 39 H -0.280988 0.785232 2.298156 0
M  V30 40 H -0.914287 3.028662 2.419757 0
M  V30 41 H 0.351418 3.623379 1.320230 0
M  V30 42 H -0.297158 3.335656 -1.430275 0
M  V30 43 H -1.030255 4.596866 -0.363216 0
M  V30 44 H -2.409019 2.707964 -2.219283 0
M  V30 45 H -2.723002 4.435953 -2.019559 0
M  V30 46 H -4.421293 3.240138 -0.720408 0
M  V30 47 H -2.168418 1.014107 -0.803095 0
M  V30 48 H -1.686311 0.598224 0.847013 0
M  V30 49 H -0.152163 -0.250308 -0.926927 0
M  V30 50 H 0.357670 1.406638 -1.323626 0
M  V30 51 H 1.609115 -3.309147 -0.863516 0
M  V30 52 H 0.850535 -5.916633 -0.687152 0
M  V30 53 H -0.877452 -5.343306 -0.851116 0
M  V30 END ATOM
M  V30 BEGIN BOND
M  V30 1 1 1 2
M  V30 2 1 2 3
M  V30 3 2 3 4
M  V30 4 1 4 5
M  V30 5 2 5 6
M  V30 6 1 6 7
M  V30 7 2 7 8
M  V30 8 1 8 9
M  V30 9 2 9 10
M  V30 10 1 10 11
M  V30 11 1 11 12
M  V30 12 2 11 13
M  V30 13 1 13 14
M  V30 14 1 14 15
M  V30 15 1 15 16
M  V30 16 1 16 17
M  V30 17 1 17 18
M  V30 18 1 18 19
M  V30 19 1 19 20
M  V30 20 1 20 21
M  V30 21 2 21 22
M  V30 22 1 17 23
M  V30 23 1 23 24
M  V30 24 1 6 25
M  V30 25 2 25 26
M  V30 26 1 26 27
M  V30 27 1 27 28
M  V30 28 2 28 29
M  V30 29 2 28 30
M  V30 30 1 28 2
M  V30 31 1 26 3
M  V30 32 1 13 7
M  V30 33 1 24 14
M  V30 34 1 21 17
M  V30 35 1 1 31
M  V30 36 1 1 32
M  V30 37 1 1 33
M  V30 38 1 4 34
M  V30 39 1 5 35
M  V30 40 1 8 36
M  V30 41 1 10 37
M  V30 42 1 15 38
M  V30 43 1 15 39
M  V30 44 1 16 40
M  V30 45 1 16 41
M  V30 46 1 18 42
M  V30 47 1 18 43
M  V30 48 1 19 44
M  V30 49 1 19 45
M  V30 50 1 20 46
M  V30 51 1 23 47
M  V30 52 1 23 48
M  V30 53 1 24 49
M  V30 54 1 24 50
M  V30 55 1 25 51
M  V30 56 1 27 52
M  V30 57 1 27 53
M  V30 END BOND
M  V30 END CTAB
M  END
>  <Dataset>  (588) 
ChEMBL_Kinases

>  <Ligand_Instance>  (588) 
nan

>  <PDB_ID>  (588) 
nan

>  <Standardized_SMILES>  (588) 
CN1c2ccc(-c3cncc(F)c3N3CCC4(CCNC4=O)CC3)cc2CS1(=O)=O

>  <Name>  (588) 
nan

>  <Pocket>  (588) 
nan

>  <ATP_Site>  (588) 
nan

>  <Peripheral>  (588) 
nan

>  <Num_H_Atoms_ProtBoundConf>  (588) 
nan

>  <Num_Resolved_Atoms>  (588) 
nan

>  <Num_Not_Resolved_Atoms>  (588) 
nan

$$$$
CHEMBL3799073
     RDKit          3D

  0  0  0  0  0  0  0  0  0  0999 V3000
M  V30 BEGIN CTAB
M  V30 COUNTS 50 54 0 0 0
M  V30 BEGIN ATOM
M  V30 1 C -0.737482 -5.623965 1.907807 0
M  V30 2 N 0.069508 -5.028999 0.852080 0
M  V30 3 N 0.481065 -5.555311 -0.277172 0
M  V30 4 C 1.212643 -4.650078 -0.973750 0
M  V30 5 C 1.272453 -3.478272 -0.249002 0
M  V30 6 C 1.846434 -2.209258 -0.398032 0
M  V30 7 C 1.698141 -1.214337 0.582112 0
M  V30 8 C 2.413860 -0.033652 0.131485 0
M  V30 9 C 3.717883 -0.085662 -0.314090 0
M  V30 10 N 4.342971 1.038504 -0.717632 0
M  V30 11 C 3.719434 2.242261 -0.699449 0
M  V30 12 N 4.458719 3.371957 -1.143575 0
M  V30 13 C 2.396453 2.302493 -0.248726 0
M  V30 14 Cl 1.730976 3.938517 -0.287379 0
M  V30 15 C 1.720188 1.152300 0.176845 0
M  V30 16 N 0.418523 1.481934 0.570075 0
M  V30 17 C -0.168522 1.887375 1.837366 0
M  V30 18 C -1.334193 1.098777 2.277431 0
M  V30 19 C -2.105425 0.358219 1.246026 0
M  V30 20 C -1.520667 0.317178 -0.114832 0
M  V30 21 C -0.605635 1.437144 -0.458989 0
M  V30 22 C -3.550791 0.808294 1.150248 0
M  V30 23 N -4.246840 -0.412169 0.717520 0
M  V30 24 C -3.448654 -1.506639 1.157647 0
M  V30 25 O -3.870134 -2.688162 1.009342 0
M  V30 26 O -2.288766 -0.973070 1.695691 0
M  V30 27 C 0.962407 -1.537944 1.701546 0
M  V30 28 C 0.407103 -2.779333 1.835492 0
M  V30 29 C 0.539318 -3.763324 0.892053 0
M  V30 30 H -0.060829 -5.817569 2.769717 0
M  V30 31 H -1.443188 -4.841166 2.271211 0
M  V30 32 H -1.248109 -6.530268 1.567325 0
M  V30 33 H 1.683763 -4.786010 -1.934223 0
M  V30 34 H 2.386234 -2.163626 -1.355290 0
M  V30 35 H 4.185686 -1.064729 -0.315174 0
M  V30 36 H 4.316210 4.273101 -0.598961 0
M  V30 37 H 5.091426 3.261790 -1.965482 0
M  V30 38 H -0.422077 2.975000 1.707683 0
M  V30 39 H 0.664409 1.881559 2.594592 0
M  V30 40 H -1.025077 0.454760 3.137228 0
M  V30 41 H -2.055325 1.825457 2.756884 0
M  V30 42 H -0.994894 -0.640339 -0.301656 0
M  V30 43 H -2.343935 0.332430 -0.889228 0
M  V30 44 H -0.179768 1.243685 -1.460465 0
M  V30 45 H -1.133365 2.433758 -0.456205 0
M  V30 46 H -3.985703 1.094391 2.111801 0
M  V30 47 H -3.696479 1.565086 0.356955 0
M  V30 48 H -5.157932 -0.433402 0.186553 0
M  V30 49 H 0.937224 -0.690909 2.367482 0
M  V30 50 H -0.147717 -2.909212 2.760381 0
M  V30 END ATOM
M  V30 BEGIN BOND
M  V30 1 1 1 2
M  V30 2 1 2 3
M  V30 3 2 3 4
M  V30 4 1 4 5
M  V30 5 2 5 6
M  V30 6 1 6 7
M  V30 7 1 7 8
M  V30 8 2 8 9
M  V30 9 1 9 10
M  V30 10 2 10 11
M  V30 11 1 11 12
M  V30 12 1 11 13
M  V30 13 1 13 14
M  V30 14 2 13 15
M  V30 15 1 15 16
M  V30 16 1 16 17
M  V30 17 1 17 18
M  V30 18 1 18 19
M  V30 19 1 19 20
M  V30 20 1 20 21
M  V30 21 1 19 22
M  V30 22 1 22 23
M  V30 23 1 23 24
M  V30 24 2 24 25
M  V30 25 1 24 26
M  V30 26 2 7 27
M  V30 27 1 27 28
M  V30 28 2 28 29
M  V30 29 1 29 2
M  V30 30 1 29 5
M  V30 31 1 15 8
M  V30 32 1 21 16
M  V30 33 1 26 19
M  V30 34 1 1 30
M  V30 35 1 1 31
M  V30 36 1 1 32
M  V30 37 1 4 33
M  V30 38 1 6 34
M  V30 39 1 9 35
M  V30 40 1 12 36
M  V30 41 1 12 37
M  V30 42 1 17 38
M  V30 43 1 17 39
M  V30 44 1 18 40
M  V30 45 1 18 41
M  V30 46 1 20 42
M  V30 47 1 20 43
M  V30 48 1 21 44
M  V30 49 1 21 45
M  V30 50 1 22 46
M  V30 51 1 22 47
M  V30 52 1 23 48
M  V30 53 1 27 49
M  V30 54 1 28 50
M  V30 END BOND
M  V30 END CTAB
M  END
>  <Dataset>  (589) 
ChEMBL_Kinases

>  <Ligand_Instance>  (589) 
nan

>  <PDB_ID>  (589) 
nan

>  <Standardized_SMILES>  (589) 
Cn1ncc2cc(-c3cnc(N)c(Cl)c3N3CCC4(CC3)CNC(=O)O4)ccc21

>  <Name>  (589) 
nan

>  <Pocket>  (589) 
nan

>  <ATP_Site>  (589) 
nan

>  <Peripheral>  (589) 
nan

>  <Num_H_Atoms_ProtBoundConf>  (589) 
nan

>  <Num_Resolved_Atoms>  (589) 
nan

>  <Num_Not_Resolved_Atoms>  (589) 
nan

$$$$
CHEMBL3799033
     RDKit          3D

  0  0  0  0  0  0  0  0  0  0999 V3000
M  V30 BEGIN CTAB
M  V30 COUNTS 41 44 0 0 0
M  V30 BEGIN ATOM
M  V30 1 C -0.588198 -1.998346 4.835529 0
M  V30 2 S 1.082661 -1.318446 4.665032 0
M  V30 3 C 1.457238 -1.121786 2.955423 0
M  V30 4 S 2.224452 -2.346556 1.852396 0
M  V30 5 C 2.227617 -1.387458 0.441161 0
M  V30 6 C 2.750915 -1.818436 -0.900653 0
M  V30 7 C 3.276453 -3.062923 -1.065144 0
M  V30 8 C 3.627033 -3.038047 -2.420426 0
M  V30 9 N 3.312011 -1.836126 -2.986015 0
M  V30 10 N 2.764693 -1.089872 -2.013862 0
M  V30 11 C 1.653218 -0.148090 0.796063 0
M  V30 12 C 1.267007 -0.030879 2.079606 0
M  V30 13 C 0.664600 1.232465 2.494397 0
M  V30 14 O 0.274699 1.431987 3.673526 0
M  V30 15 N 0.480085 2.316862 1.594989 0
M  V30 16 C 0.469306 1.974733 0.193393 0
M  V30 17 C -0.929305 1.692984 -0.315293 0
M  V30 18 C -1.589789 0.568092 0.386383 0
M  V30 19 C -1.353509 -0.655962 -0.219372 0
M  V30 20 C -1.892992 -1.817950 0.297375 0
M  V30 21 C -2.668087 -1.703346 1.430427 0
M  V30 22 C -2.903683 -0.473975 2.036448 0
M  V30 23 C -2.365285 0.686577 1.520962 0
M  V30 24 C 1.481715 0.965002 -0.172659 0
M  V30 25 H -1.133560 -1.528294 5.677768 0
M  V30 26 H -1.140884 -1.840507 3.888468 0
M  V30 27 H -0.547196 -3.112160 4.956197 0
M  V30 28 H 3.427448 -3.905587 -0.405790 0
M  V30 29 H 4.095332 -3.849672 -3.000228 0
M  V30 30 H 3.485540 -1.596865 -3.987157 0
M  V30 31 H 0.362006 3.299863 1.980750 0
M  V30 32 H 0.753937 2.941937 -0.324525 0
M  V30 33 H -1.544119 2.605385 -0.066841 0
M  V30 34 H -0.923582 1.587940 -1.398683 0
M  V30 35 H -0.752036 -0.806096 -1.112303 0
M  V30 36 H -1.795069 -2.813628 -0.060604 0
M  V30 37 H -3.163245 -2.513247 1.960774 0
M  V30 38 H -3.507258 -0.333264 2.930014 0
M  V30 39 H -2.467794 1.688902 1.887009 0
M  V30 40 H 2.464985 1.494242 -0.349677 0
M  V30 41 H 1.215473 0.564494 -1.179776 0
M  V30 END ATOM
M  V30 BEGIN BOND
M  V30 1 1 1 2
M  V30 2 1 2 3
M  V30 3 1 3 4
M  V30 4 1 4 5
M  V30 5 1 5 6
M  V30 6 1 6 7
M  V30 7 2 7 8
M  V30 8 1 8 9
M  V30 9 1 9 10
M  V30 10 2 5 11
M  V30 11 1 11 12
M  V30 12 1 12 13
M  V30 13 2 13 14
M  V30 14 1 13 15
M  V30 15 1 15 16
M  V30 16 1 16 17
M  V30 17 1 17 18
M  V30 18 2 18 19
M  V30 19 1 19 20
M  V30 20 2 20 21
M  V30 21 1 21 22
M  V30 22 2 22 23
M  V30 23 1 16 24
M  V30 24 2 12 3
M  V30 25 1 23 18
M  V30 26 2 10 6
M  V30 27 1 24 11
M  V30 28 1 1 25
M  V30 29 1 1 26
M  V30 30 1 1 27
M  V30 31 1 7 28
M  V30 32 1 8 29
M  V30 33 1 9 30
M  V30 34 1 15 31
M  V30 35 1 16 32
M  V30 36 1 17 33
M  V30 37 1 17 34
M  V30 38 1 19 35
M  V30 39 1 20 36
M  V30 40 1 21 37
M  V30 41 1 22 38
M  V30 42 1 23 39
M  V30 43 1 24 40
M  V30 44 1 24 41
M  V30 END BOND
M  V30 END CTAB
M  END
>  <Dataset>  (590) 
ChEMBL_Kinases

>  <Ligand_Instance>  (590) 
nan

>  <PDB_ID>  (590) 
nan

>  <Standardized_SMILES>  (590) 
CSc1sc(-c2cc[nH]n2)c2c1C(=O)NC(Cc1ccccc1)C2

>  <Name>  (590) 
nan

>  <Pocket>  (590) 
nan

>  <ATP_Site>  (590) 
nan

>  <Peripheral>  (590) 
nan

>  <Num_H_Atoms_ProtBoundConf>  (590) 
nan

>  <Num_Resolved_Atoms>  (590) 
nan

>  <Num_Not_Resolved_Atoms>  (590) 
nan

$$$$
CHEMBL3798999
     RDKit          3D

  0  0  0  0  0  0  0  0  0  0999 V3000
M  V30 BEGIN CTAB
M  V30 COUNTS 37 40 0 0 0
M  V30 BEGIN ATOM
M  V30 1 C -1.155919 -1.818563 4.861795 0
M  V30 2 S 0.535368 -1.108650 4.806442 0
M  V30 3 C 1.051820 -1.104256 3.127417 0
M  V30 4 S 1.908152 -2.441693 2.326020 0
M  V30 5 C 2.043647 -1.661061 0.737367 0
M  V30 6 C 2.687764 -2.272603 -0.445973 0
M  V30 7 C 3.246165 -3.528975 -0.402103 0
M  V30 8 C 3.715194 -3.668266 -1.714991 0
M  V30 9 N 3.448254 -2.565814 -2.475520 0
M  V30 10 N 2.810576 -1.727238 -1.647104 0
M  V30 11 C 1.425360 -0.401701 0.882784 0
M  V30 12 C 0.930411 -0.166913 2.139223 0
M  V30 13 C 0.279883 1.140557 2.315398 0
M  V30 14 O -0.220351 1.484025 3.431558 0
M  V30 15 N 0.154889 2.114049 1.280425 0
M  V30 16 C 0.188024 1.531789 -0.060553 0 CFG=2
M  V30 17 C -1.141609 0.973072 -0.336948 0
M  V30 18 C -1.491923 -0.244042 -0.889972 0
M  V30 19 C -2.809209 -0.586180 -1.068846 0
M  V30 20 C -3.778569 0.312606 -0.684049 0
M  V30 21 N -3.472823 1.497211 -0.146482 0
M  V30 22 C -2.181084 1.833744 0.029387 0
M  V30 23 C 1.322177 0.576958 -0.226055 0
M  V30 24 H -1.187096 -2.701405 5.549924 0
M  V30 25 H -1.910597 -1.067420 5.149898 0
M  V30 26 H -1.465382 -2.221509 3.873842 0
M  V30 27 H 3.343412 -4.266220 0.369687 0
M  V30 28 H 4.237736 -4.566076 -2.083491 0
M  V30 29 H 3.731404 -2.508678 -3.476489 0
M  V30 30 H 0.051408 3.141831 1.523603 0
M  V30 31 H 0.353516 2.379001 -0.771832 0
M  V30 32 H -0.629732 -0.851661 -1.146196 0
M  V30 33 H -3.009307 -1.554085 -1.507119 0
M  V30 34 H -4.824378 0.029924 -0.831063 0
M  V30 35 H -2.043282 2.814271 0.472202 0
M  V30 36 H 2.256077 1.190382 -0.334332 0
M  V30 37 H 1.197672 0.057165 -1.184883 0
M  V30 END ATOM
M  V30 BEGIN BOND
M  V30 1 1 1 2
M  V30 2 1 2 3
M  V30 3 1 3 4
M  V30 4 1 4 5
M  V30 5 1 5 6
M  V30 6 1 6 7
M  V30 7 2 7 8
M  V30 8 1 8 9
M  V30 9 1 9 10
M  V30 10 2 5 11
M  V30 11 1 11 12
M  V30 12 1 12 13
M  V30 13 2 13 14
M  V30 14 1 13 15
M  V30 15 1 15 16
M  V30 16 1 16 17
M  V30 17 2 17 18
M  V30 18 1 18 19
M  V30 19 2 19 20
M  V30 20 1 20 21
M  V30 21 2 21 22
M  V30 22 1 16 23
M  V30 23 2 12 3
M  V30 24 1 22 17
M  V30 25 2 10 6
M  V30 26 1 23 11
M  V30 27 1 1 24
M  V30 28 1 1 25
M  V30 29 1 1 26
M  V30 30 1 7 27
M  V30 31 1 8 28
M  V30 32 1 9 29
M  V30 33 1 15 30
M  V30 34 1 16 31 CFG=3
M  V30 35 1 18 32
M  V30 36 1 19 33
M  V30 37 1 20 34
M  V30 38 1 22 35
M  V30 39 1 23 36
M  V30 40 1 23 37
M  V30 END BOND
M  V30 END CTAB
M  END
>  <Dataset>  (591) 
ChEMBL_Kinases

>  <Ligand_Instance>  (591) 
nan

>  <PDB_ID>  (591) 
nan

>  <Standardized_SMILES>  (591) 
CSc1sc(-c2cc[nH]n2)c2c1C(=O)N[C@H](c1cccnc1)C2

>  <Name>  (591) 
nan

>  <Pocket>  (591) 
nan

>  <ATP_Site>  (591) 
nan

>  <Peripheral>  (591) 
nan

>  <Num_H_Atoms_ProtBoundConf>  (591) 
nan

>  <Num_Resolved_Atoms>  (591) 
nan

>  <Num_Not_Resolved_Atoms>  (591) 
nan

$$$$
CHEMBL3798994
     RDKit          3D

  0  0  0  0  0  0  0  0  0  0999 V3000
M  V30 BEGIN CTAB
M  V30 COUNTS 38 41 0 0 0
M  V30 BEGIN ATOM
M  V30 1 C -1.222171 -3.721465 4.872850 0
M  V30 2 S 0.015575 -2.404582 5.177457 0
M  V30 3 C 0.677615 -1.974582 3.581543 0
M  V30 4 S 2.081649 -2.714604 2.782261 0
M  V30 5 C 2.037478 -1.760587 1.350391 0
M  V30 6 C 2.998817 -1.891757 0.214918 0
M  V30 7 C 4.020179 -2.815198 0.235907 0
M  V30 8 C 4.637213 -2.585061 -0.985080 0
M  V30 9 N 4.024737 -1.588972 -1.690106 0
M  V30 10 N 3.011828 -1.188609 -0.903970 0
M  V30 11 C 0.950007 -0.893447 1.509448 0
M  V30 12 C 0.291125 -1.048929 2.671439 0
M  V30 13 C -0.861847 -0.130094 2.842033 0
M  V30 14 O -1.581222 -0.165776 3.899695 0
M  V30 15 N -1.281045 0.849563 1.895093 0
M  V30 16 C -0.247697 1.223854 0.950041 0 CFG=2
M  V30 17 C -1.028700 1.653524 -0.267905 0
M  V30 18 C -2.081550 0.811759 -0.634506 0
M  V30 19 C -2.915005 1.022011 -1.711456 0
M  V30 20 C -2.675817 2.156355 -2.474619 0
M  V30 21 C -1.632069 2.997781 -2.117391 0
M  V30 22 C -0.809177 2.760154 -1.027134 0
M  V30 23 C 0.581305 0.089370 0.486498 0
M  V30 24 H -1.986334 -3.274865 4.185323 0
M  V30 25 H -1.755540 -3.972342 5.808809 0
M  V30 26 H -0.788504 -4.595610 4.362085 0
M  V30 27 H 4.336226 -3.556647 0.955886 0
M  V30 28 H 5.517035 -3.111108 -1.388844 0
M  V30 29 H 4.320150 -1.253182 -2.627942 0
M  V30 30 H -2.250837 1.235581 1.915259 0
M  V30 31 H 0.286079 2.107373 1.310082 0
M  V30 32 H -2.291727 -0.092195 -0.047144 0
M  V30 33 H -3.705731 0.337438 -1.939748 0
M  V30 34 H -3.320469 2.324712 -3.312792 0
M  V30 35 H -1.447557 3.884691 -2.716850 0
M  V30 36 H 0.000939 3.385265 -0.724823 0
M  V30 37 H 0.086677 -0.477999 -0.344283 0
M  V30 38 H 1.483086 0.557047 -0.010246 0
M  V30 END ATOM
M  V30 BEGIN BOND
M  V30 1 1 1 2
M  V30 2 1 2 3
M  V30 3 1 3 4
M  V30 4 1 4 5
M  V30 5 1 5 6
M  V30 6 1 6 7
M  V30 7 2 7 8
M  V30 8 1 8 9
M  V30 9 1 9 10
M  V30 10 2 5 11
M  V30 11 1 11 12
M  V30 12 1 12 13
M  V30 13 2 13 14
M  V30 14 1 13 15
M  V30 15 1 15 16
M  V30 16 1 16 17
M  V30 17 2 17 18
M  V30 18 1 18 19
M  V30 19 2 19 20
M  V30 20 1 20 21
M  V30 21 2 21 22
M  V30 22 1 16 23
M  V30 23 2 12 3
M  V30 24 1 22 17
M  V30 25 2 10 6
M  V30 26 1 23 11
M  V30 27 1 1 24
M  V30 28 1 1 25
M  V30 29 1 1 26
M  V30 30 1 7 27
M  V30 31 1 8 28
M  V30 32 1 9 29
M  V30 33 1 15 30
M  V30 34 1 16 31 CFG=1
M  V30 35 1 18 32
M  V30 36 1 19 33
M  V30 37 1 20 34
M  V30 38 1 21 35
M  V30 39 1 22 36
M  V30 40 1 23 37
M  V30 41 1 23 38
M  V30 END BOND
M  V30 END CTAB
M  END
>  <Dataset>  (592) 
ChEMBL_Kinases

>  <Ligand_Instance>  (592) 
nan

>  <PDB_ID>  (592) 
nan

>  <Standardized_SMILES>  (592) 
CSc1sc(-c2cc[nH]n2)c2c1C(=O)N[C@H](c1ccccc1)C2

>  <Name>  (592) 
nan

>  <Pocket>  (592) 
nan

>  <ATP_Site>  (592) 
nan

>  <Peripheral>  (592) 
nan

>  <Num_H_Atoms_ProtBoundConf>  (592) 
nan

>  <Num_Resolved_Atoms>  (592) 
nan

>  <Num_Not_Resolved_Atoms>  (592) 
nan

$$$$
CHEMBL3799228
     RDKit          3D

  0  0  0  0  0  0  0  0  0  0999 V3000
M  V30 BEGIN CTAB
M  V30 COUNTS 46 49 0 0 0
M  V30 BEGIN ATOM
M  V30 1 O 2.156414 -0.686224 2.868372 0
M  V30 2 C 1.103520 -1.051813 2.286560 0
M  V30 3 N 1.276419 -2.045575 1.284443 0
M  V30 4 C 2.577260 -2.559067 0.997923 0
M  V30 5 C 3.574063 -1.519571 0.534437 0
M  V30 6 N 3.149152 -0.859609 -0.674794 0
M  V30 7 C 3.985894 0.152689 -1.242194 0
M  V30 8 C 3.671558 0.840488 -2.391231 0
M  V30 9 C 4.525814 1.816094 -2.896708 0
M  V30 10 C 5.712399 2.129502 -2.270239 0
M  V30 11 C 6.055024 1.457416 -1.116777 0
M  V30 12 C 5.185482 0.497407 -0.644410 0
M  V30 13 C -0.168514 -0.450624 2.669933 0
M  V30 14 C -0.105987 0.498108 3.669997 0
M  V30 15 C -1.295287 1.111059 4.081404 0
M  V30 16 C -2.481788 0.735599 3.463892 0
M  V30 17 N -3.748742 1.153245 3.657080 0
M  V30 18 N -4.595834 0.520022 2.835892 0
M  V30 19 C -3.846851 -0.325705 2.097987 0
M  V30 20 C -4.384741 -1.214231 1.069905 0
M  V30 21 C -5.538915 -1.894767 1.447418 0
M  V30 22 C -6.168822 -2.777118 0.576723 0
M  V30 23 N -5.669049 -2.983749 -0.643188 0
M  V30 24 C -4.553496 -2.334717 -1.026466 0
M  V30 25 C -3.889261 -1.447904 -0.200250 0
M  V30 26 C -2.518671 -0.221338 2.460177 0
M  V30 27 C -1.344482 -0.825841 2.054682 0
M  V30 28 H 0.422153 -2.371697 0.781674 0
M  V30 29 H 2.487437 -3.276656 0.133398 0
M  V30 30 H 3.000363 -3.130619 1.827506 0
M  V30 31 H 4.489821 -2.097470 0.258006 0
M  V30 32 H 3.891764 -0.815151 1.307778 0
M  V30 33 H 2.259930 -1.065605 -1.181142 0
M  V30 34 H 2.740186 0.601494 -2.891889 0
M  V30 35 H 4.268183 2.345594 -3.794817 0
M  V30 36 H 6.401144 2.881674 -2.633913 0
M  V30 37 H 6.984716 1.686373 -0.604757 0
M  V30 38 H 5.513503 0.002955 0.269883 0
M  V30 39 H 0.791525 0.810206 4.166356 0
M  V30 40 H -1.354312 1.853372 4.843282 0
M  V30 41 H -4.063964 1.872274 4.345812 0
M  V30 42 H -6.023176 -1.799133 2.409086 0
M  V30 43 H -7.075275 -3.313960 0.868225 0
M  V30 44 H -4.127677 -2.486607 -2.014938 0
M  V30 45 H -2.998543 -0.894519 -0.432194 0
M  V30 46 H -1.382043 -1.562771 1.279977 0
M  V30 END ATOM
M  V30 BEGIN BOND
M  V30 1 2 1 2
M  V30 2 1 2 3
M  V30 3 1 3 4
M  V30 4 1 4 5
M  V30 5 1 5 6
M  V30 6 1 6 7
M  V30 7 2 7 8
M  V30 8 1 8 9
M  V30 9 2 9 10
M  V30 10 1 10 11
M  V30 11 2 11 12
M  V30 12 1 2 13
M  V30 13 2 13 14
M  V30 14 1 14 15
M  V30 15 2 15 16
M  V30 16 1 16 17
M  V30 17 1 17 18
M  V30 18 2 18 19
M  V30 19 1 19 20
M  V30 20 2 20 21
M  V30 21 1 21 22
M  V30 22 2 22 23
M  V30 23 1 23 24
M  V30 24 2 24 25
M  V30 25 1 19 26
M  V30 26 2 26 27
M  V30 27 1 12 7
M  V30 28 1 27 13
M  V30 29 1 26 16
M  V30 30 1 25 20
M  V30 31 1 3 28
M  V30 32 1 4 29
M  V30 33 1 4 30
M  V30 34 1 5 31
M  V30 35 1 5 32
M  V30 36 1 6 33
M  V30 37 1 8 34
M  V30 38 1 9 35
M  V30 39 1 10 36
M  V30 40 1 11 37
M  V30 41 1 12 38
M  V30 42 1 14 39
M  V30 43 1 15 40
M  V30 44 1 17 41
M  V30 45 1 21 42
M  V30 46 1 22 43
M  V30 47 1 24 44
M  V30 48 1 25 45
M  V30 49 1 27 46
M  V30 END BOND
M  V30 END CTAB
M  END
>  <Dataset>  (593) 
ChEMBL_Kinases

>  <Ligand_Instance>  (593) 
nan

>  <PDB_ID>  (593) 
nan

>  <Standardized_SMILES>  (593) 
O=C(NCCNc1ccccc1)c1ccc2[nH]nc(-c3ccncc3)c2c1

>  <Name>  (593) 
nan

>  <Pocket>  (593) 
nan

>  <ATP_Site>  (593) 
nan

>  <Peripheral>  (593) 
nan

>  <Num_H_Atoms_ProtBoundConf>  (593) 
nan

>  <Num_Resolved_Atoms>  (593) 
nan

>  <Num_Not_Resolved_Atoms>  (593) 
nan

$$$$
CHEMBL3702235
     RDKit          3D

  0  0  0  0  0  0  0  0  0  0999 V3000
M  V30 BEGIN CTAB
M  V30 COUNTS 62 66 0 0 0
M  V30 BEGIN ATOM
M  V30 1 C -1.372280 -0.112476 3.856904 0
M  V30 2 C 0.108701 0.065060 3.600164 0
M  V30 3 C 0.351925 1.517735 3.271799 0 CFG=2
M  V30 4 C -0.425042 1.905557 2.058763 0
M  V30 5 N 1.777806 1.749527 3.131803 0
M  V30 6 C 2.595886 2.363739 4.023010 0
M  V30 7 C 2.346029 2.924507 5.261512 0
M  V30 8 N 3.377825 3.476747 5.936406 0
M  V30 9 C 4.621313 3.480152 5.413243 0
M  V30 10 C 4.920904 2.939882 4.194978 0
M  V30 11 C 3.872271 2.374653 3.500949 0
M  V30 12 C 3.797839 1.750689 2.273103 0
M  V30 13 C 4.796338 1.504900 1.351521 0
M  V30 14 N 4.492004 0.871979 0.203854 0
M  V30 15 C 3.225748 0.493128 -0.021109 0
M  V30 16 N 2.890290 -0.180323 -1.236594 0
M  V30 17 C 1.567222 -0.621349 -1.561883 0
M  V30 18 C 1.283810 -1.276169 -2.760439 0
M  V30 19 C -0.005980 -1.686178 -3.036782 0
M  V30 20 C -1.038385 -1.465417 -2.151818 0
M  V30 21 N -2.348606 -1.905294 -2.472622 0
M  V30 22 C -2.711435 -2.632118 -3.643449 0
M  V30 23 C -3.708486 -3.733154 -3.263686 0
M  V30 24 C -3.485160 -4.099352 -1.800595 0
M  V30 25 N -4.163430 -5.324034 -1.454832 0
M  V30 26 C -3.666850 -6.412249 -2.275750 0
M  V30 27 C -3.919226 -2.947070 -0.905517 0
M  V30 28 C -3.533389 -1.688755 -1.667173 0
M  V30 29 C -0.731061 -0.816657 -0.975671 0
M  V30 30 N 0.542316 -0.416566 -0.712383 0
M  V30 31 N 2.248319 0.730537 0.874569 0
M  V30 32 C 2.482363 1.358213 2.041559 0
M  V30 33 H -1.925286 -0.478986 2.982965 0
M  V30 34 H -1.517631 -0.847546 4.681133 0
M  V30 35 H -1.810599 0.868313 4.139446 0
M  V30 36 H 0.365201 -0.564520 2.728768 0
M  V30 37 H 0.651002 -0.239443 4.522365 0
M  V30 38 H -0.000413 2.108063 4.158653 0
M  V30 39 H -1.010402 2.845256 2.283239 0
M  V30 40 H -1.165687 1.116302 1.843832 0
M  V30 41 H 0.207575 2.186200 1.192478 0
M  V30 42 H 1.350505 2.929790 5.696533 0
M  V30 43 H 5.381797 3.950028 6.037729 0
M  V30 44 H 5.923639 2.959291 3.806662 0
M  V30 45 H 5.837521 1.781565 1.465849 0
M  V30 46 H 3.640055 -0.374608 -1.948355 0
M  V30 47 H 2.119363 -1.423273 -3.413076 0
M  V30 48 H -0.092885 -2.169905 -3.975830 0
M  V30 49 H -3.315377 -1.913330 -4.272538 0
M  V30 50 H -1.907548 -3.011003 -4.267025 0
M  V30 51 H -4.748053 -3.427101 -3.412736 0
M  V30 52 H -3.424594 -4.634280 -3.838772 0
M  V30 53 H -2.414516 -4.238235 -1.655096 0
M  V30 54 H -3.887942 -5.567981 -0.477368 0
M  V30 55 H -4.297682 -6.469430 -3.195624 0
M  V30 56 H -2.638853 -6.154696 -2.625005 0
M  V30 57 H -3.694794 -7.393536 -1.752082 0
M  V30 58 H -3.346673 -3.032289 0.039476 0
M  V30 59 H -4.994360 -2.967385 -0.693537 0
M  V30 60 H -4.419704 -1.367006 -2.252965 0
M  V30 61 H -3.366037 -0.872838 -0.935463 0
M  V30 62 H -1.488380 -0.609503 -0.233783 0
M  V30 END ATOM
M  V30 BEGIN BOND
M  V30 1 1 1 2
M  V30 2 1 2 3
M  V30 3 1 3 4
M  V30 4 1 3 5
M  V30 5 1 5 6
M  V30 6 2 6 7
M  V30 7 1 7 8
M  V30 8 2 8 9
M  V30 9 1 9 10
M  V30 10 2 10 11
M  V30 11 1 11 12
M  V30 12 2 12 13
M  V30 13 1 13 14
M  V30 14 2 14 15
M  V30 15 1 15 16
M  V30 16 1 16 17
M  V30 17 2 17 18
M  V30 18 1 18 19
M  V30 19 2 19 20
M  V30 20 1 20 21
M  V30 21 1 21 22
M  V30 22 1 22 23
M  V30 23 1 23 24
M  V30 24 1 24 25
M  V30 25 1 25 26
M  V30 26 1 24 27
M  V30 27 1 27 28
M  V30 28 1 20 29
M  V30 29 2 29 30
M  V30 30 1 15 31
M  V30 31 2 31 32
M  V30 32 1 32 5
M  V30 33 1 11 6
M  V30 34 1 32 12
M  V30 35 1 30 17
M  V30 36 1 28 21
M  V30 37 1 1 33
M  V30 38 1 1 34
M  V30 39 1 1 35
M  V30 40 1 2 36
M  V30 41 1 2 37
M  V30 42 1 3 38 CFG=1
M  V30 43 1 4 39
M  V30 44 1 4 40
M  V30 45 1 4 41
M  V30 46 1 7 42
M  V30 47 1 9 43
M  V30 48 1 10 44
M  V30 49 1 13 45
M  V30 50 1 16 46
M  V30 51 1 18 47
M  V30 52 1 19 48
M  V30 53 1 22 49
M  V30 54 1 22 50
M  V30 55 1 23 51
M  V30 56 1 23 52
M  V30 57 1 24 53
M  V30 58 1 25 54
M  V30 59 1 26 55
M  V30 60 1 26 56
M  V30 61 1 26 57
M  V30 62 1 27 58
M  V30 63 1 27 59
M  V30 64 1 28 60
M  V30 65 1 28 61
M  V30 66 1 29 62
M  V30 END BOND
M  V30 END CTAB
M  END
>  <Dataset>  (594) 
ChEMBL_Kinases

>  <Ligand_Instance>  (594) 
nan

>  <PDB_ID>  (594) 
nan

>  <Standardized_SMILES>  (594) 
CC[C@H](C)n1c2cnccc2c2cnc(Nc3ccc(N4CCC(NC)CC4)cn3)nc21

>  <Name>  (594) 
nan

>  <Pocket>  (594) 
nan

>  <ATP_Site>  (594) 
nan

>  <Peripheral>  (594) 
nan

>  <Num_H_Atoms_ProtBoundConf>  (594) 
nan

>  <Num_Resolved_Atoms>  (594) 
nan

>  <Num_Not_Resolved_Atoms>  (594) 
nan

$$$$
CHEMBL379866
     RDKit          3D

  0  0  0  0  0  0  0  0  0  0999 V3000
M  V30 BEGIN CTAB
M  V30 COUNTS 39 42 0 0 0
M  V30 BEGIN ATOM
M  V30 1 C 1.181798 -4.049986 2.862751 0
M  V30 2 C 0.431730 -3.012996 2.095981 0
M  V30 3 C -1.041788 -3.415682 2.062826 0
M  V30 4 C 0.971982 -2.947344 0.702218 0
M  V30 5 N 1.147142 -3.925092 -0.197349 0
M  V30 6 N 1.654995 -3.445502 -1.325672 0
M  V30 7 C 1.824787 -2.126140 -1.185543 0
M  V30 8 C 2.301918 -1.099565 -1.990889 0
M  V30 9 C 2.355630 0.205644 -1.552440 0
M  V30 10 C 1.924836 0.520866 -0.272730 0
M  V30 11 C 1.916082 1.848107 0.334072 0
M  V30 12 O 2.785954 2.784348 0.632239 0
M  V30 13 C 2.207525 3.805230 1.183430 0
M  V30 14 N 0.876989 3.547624 1.262901 0
M  V30 15 C 0.660178 2.307922 0.729703 0
M  V30 16 C -0.712479 1.830898 0.717146 0
M  V30 17 C -1.397433 1.548138 -0.457668 0
M  V30 18 C -2.718670 1.089759 -0.444555 0
M  V30 19 F -3.328746 0.831664 -1.648298 0
M  V30 20 C -3.351163 0.916336 0.767452 0
M  V30 21 C -2.723162 1.179556 1.945148 0
M  V30 22 C -1.434430 1.624746 1.881789 0
M  V30 23 F -0.812199 1.887426 3.080587 0
M  V30 24 C 1.458315 -0.549251 0.485439 0
M  V30 25 N 1.403498 -1.840444 0.055819 0
M  V30 26 H 0.567072 -4.979279 2.976698 0
M  V30 27 H 2.098259 -4.355521 2.318732 0
M  V30 28 H 1.463896 -3.630791 3.844106 0
M  V30 29 H 0.464539 -1.991295 2.526259 0
M  V30 30 H -1.237834 -4.042395 2.954605 0
M  V30 31 H -1.299695 -3.991420 1.161073 0
M  V30 32 H -1.700306 -2.510940 2.149375 0
M  V30 33 H 2.641102 -1.335886 -2.993214 0
M  V30 34 H 2.716325 1.031579 -2.139145 0
M  V30 35 H 2.691153 4.710038 1.524551 0
M  V30 36 H -0.914552 1.679530 -1.409885 0
M  V30 37 H -4.368122 0.560999 0.712043 0
M  V30 38 H -3.230169 1.039657 2.902158 0
M  V30 39 H 1.112004 -0.341340 1.494400 0
M  V30 END ATOM
M  V30 BEGIN BOND
M  V30 1 1 1 2
M  V30 2 1 2 3
M  V30 3 1 2 4
M  V30 4 2 4 5
M  V30 5 1 5 6
M  V30 6 2 6 7
M  V30 7 1 7 8
M  V30 8 2 8 9
M  V30 9 1 9 10
M  V30 10 1 10 11
M  V30 11 1 11 12
M  V30 12 1 12 13
M  V30 13 2 13 14
M  V30 14 1 14 15
M  V30 15 1 15 16
M  V30 16 2 16 17
M  V30 17 1 17 18
M  V30 18 1 18 19
M  V30 19 2 18 20
M  V30 20 1 20 21
M  V30 21 2 21 22
M  V30 22 1 22 23
M  V30 23 2 10 24
M  V30 24 1 24 25
M  V30 25 1 25 4
M  V30 26 1 25 7
M  V30 27 2 15 11
M  V30 28 1 22 16
M  V30 29 1 1 26
M  V30 30 1 1 27
M  V30 31 1 1 28
M  V30 32 1 2 29
M  V30 33 1 3 30
M  V30 34 1 3 31
M  V30 35 1 3 32
M  V30 36 1 8 33
M  V30 37 1 9 34
M  V30 38 1 13 35
M  V30 39 1 17 36
M  V30 40 1 20 37
M  V30 41 1 21 38
M  V30 42 1 24 39
M  V30 END BOND
M  V30 END CTAB
M  END
>  <Dataset>  (595) 
ChEMBL_Kinases

>  <Ligand_Instance>  (595) 
nan

>  <PDB_ID>  (595) 
nan

>  <Standardized_SMILES>  (595) 
CC(C)c1nnc2ccc(-c3ocnc3-c3cc(F)ccc3F)cn12

>  <Name>  (595) 
nan

>  <Pocket>  (595) 
nan

>  <ATP_Site>  (595) 
nan

>  <Peripheral>  (595) 
nan

>  <Num_H_Atoms_ProtBoundConf>  (595) 
nan

>  <Num_Resolved_Atoms>  (595) 
nan

>  <Num_Not_Resolved_Atoms>  (595) 
nan

$$$$
CHEMBL3702236
     RDKit          3D

  0  0  0  0  0  0  0  0  0  0999 V3000
M  V30 BEGIN CTAB
M  V30 COUNTS 55 59 0 0 0
M  V30 BEGIN ATOM
M  V30 1 C -0.088608 -1.250354 2.320083 0
M  V30 2 C 0.834640 -0.906069 3.442357 0
M  V30 3 C 2.283334 -0.998608 3.138379 0 CFG=2
M  V30 4 C 3.068755 -0.628621 4.409812 0
M  V30 5 N 2.780280 -0.126283 2.117952 0
M  V30 6 C 4.097894 -0.179599 1.841943 0
M  V30 7 C 5.213419 -0.863312 2.270843 0
M  V30 8 N 6.453155 -0.728234 1.823729 0
M  V30 9 C 6.713280 0.164435 0.837996 0
M  V30 10 C 5.662302 0.907042 0.332003 0
M  V30 11 C 4.374031 0.725642 0.839050 0
M  V30 12 C 3.208708 1.371442 0.465960 0
M  V30 13 C 2.851779 2.340161 -0.447790 0
M  V30 14 N 1.545341 2.731057 -0.526403 0
M  V30 15 C 0.639323 2.163821 0.288514 0
M  V30 16 N -0.768876 2.437687 0.324988 0
M  V30 17 C -1.598524 1.399783 -0.235312 0
M  V30 18 C -2.989836 1.499712 -0.279181 0
M  V30 19 C -3.762556 0.499336 -0.793428 0
M  V30 20 C -3.199364 -0.650558 -1.289864 0
M  V30 21 N -3.964984 -1.723167 -1.816923 0
M  V30 22 C -5.411760 -1.817544 -1.871841 0
M  V30 23 C -5.679632 -3.263412 -1.535459 0
M  V30 24 C -4.336854 -3.967824 -1.681656 0 CFG=1
M  V30 25 O -4.485685 -5.147965 -2.399767 0
M  V30 26 C -3.460577 -2.949690 -2.401412 0
M  V30 27 C -1.826576 -0.743012 -1.244536 0
M  V30 28 N -1.101281 0.257679 -0.733647 0
M  V30 29 N 1.009896 1.224526 1.168370 0
M  V30 30 C 2.276239 0.796471 1.294057 0
M  V30 31 H -0.893809 -0.471097 2.203574 0
M  V30 32 H 0.411826 -1.477851 1.362651 0
M  V30 33 H -0.684658 -2.194730 2.538524 0
M  V30 34 H 0.573214 0.083928 3.913043 0
M  V30 35 H 0.629007 -1.658724 4.262234 0
M  V30 36 H 2.527769 -2.061147 2.849620 0
M  V30 37 H 2.349749 -0.159473 5.105931 0
M  V30 38 H 3.844270 0.118492 4.217143 0
M  V30 39 H 3.506139 -1.532320 4.893560 0
M  V30 40 H 5.065047 -1.604883 3.073149 0
M  V30 41 H 7.723293 0.296852 0.452237 0
M  V30 42 H 5.820118 1.646204 -0.468308 0
M  V30 43 H 3.601594 2.777338 -1.087830 0
M  V30 44 H -1.269161 3.273099 0.693629 0
M  V30 45 H -3.457747 2.381263 0.098557 0
M  V30 46 H -4.853167 0.626090 -0.804335 0
M  V30 47 H -5.885433 -1.126441 -1.135828 0
M  V30 48 H -5.768649 -1.592956 -2.892556 0
M  V30 49 H -6.097612 -3.371309 -0.499357 0
M  V30 50 H -6.417215 -3.703916 -2.244984 0
M  V30 51 H -3.915961 -4.221511 -0.687620 0
M  V30 52 H -3.813666 -5.788041 -2.075574 0
M  V30 53 H -2.400679 -3.135518 -2.234141 0
M  V30 54 H -3.723980 -3.044679 -3.491844 0
M  V30 55 H -1.262473 -1.574147 -1.593045 0
M  V30 END ATOM
M  V30 BEGIN BOND
M  V30 1 1 1 2
M  V30 2 1 2 3
M  V30 3 1 3 4
M  V30 4 1 3 5
M  V30 5 1 5 6
M  V30 6 2 6 7
M  V30 7 1 7 8
M  V30 8 2 8 9
M  V30 9 1 9 10
M  V30 10 2 10 11
M  V30 11 1 11 12
M  V30 12 2 12 13
M  V30 13 1 13 14
M  V30 14 2 14 15
M  V30 15 1 15 16
M  V30 16 1 16 17
M  V30 17 2 17 18
M  V30 18 1 18 19
M  V30 19 2 19 20
M  V30 20 1 20 21
M  V30 21 1 21 22
M  V30 22 1 22 23
M  V30 23 1 23 24
M  V30 24 1 24 25
M  V30 25 1 24 26
M  V30 26 1 20 27
M  V30 27 2 27 28
M  V30 28 1 15 29
M  V30 29 2 29 30
M  V30 30 1 30 5
M  V30 31 1 11 6
M  V30 32 1 30 12
M  V30 33 1 28 17
M  V30 34 1 26 21
M  V30 35 1 1 31
M  V30 36 1 1 32
M  V30 37 1 1 33
M  V30 38 1 2 34
M  V30 39 1 2 35
M  V30 40 1 3 36 CFG=3
M  V30 41 1 4 37
M  V30 42 1 4 38
M  V30 43 1 4 39
M  V30 44 1 7 40
M  V30 45 1 9 41
M  V30 46 1 10 42
M  V30 47 1 13 43
M  V30 48 1 16 44
M  V30 49 1 18 45
M  V30 50 1 19 46
M  V30 51 1 22 47
M  V30 52 1 22 48
M  V30 53 1 23 49
M  V30 54 1 23 50
M  V30 55 1 24 51 CFG=1
M  V30 56 1 25 52
M  V30 57 1 26 53
M  V30 58 1 26 54
M  V30 59 1 27 55
M  V30 END BOND
M  V30 END CTAB
M  END
>  <Dataset>  (596) 
ChEMBL_Kinases

>  <Ligand_Instance>  (596) 
nan

>  <PDB_ID>  (596) 
nan

>  <Standardized_SMILES>  (596) 
CC[C@H](C)n1c2cnccc2c2cnc(Nc3ccc(N4CC[C@@H](O)C4)cn3)nc21

>  <Name>  (596) 
nan

>  <Pocket>  (596) 
nan

>  <ATP_Site>  (596) 
nan

>  <Peripheral>  (596) 
nan

>  <Num_H_Atoms_ProtBoundConf>  (596) 
nan

>  <Num_Resolved_Atoms>  (596) 
nan

>  <Num_Not_Resolved_Atoms>  (596) 
nan

$$$$
CHEMBL3798632
     RDKit          3D

  0  0  0  0  0  0  0  0  0  0999 V3000
M  V30 BEGIN CTAB
M  V30 COUNTS 53 57 0 0 0
M  V30 BEGIN ATOM
M  V30 1 C 1.005078 -2.828879 8.000408 0
M  V30 2 N 0.798496 -2.699416 6.565761 0
M  V30 3 C 1.267349 -1.665687 5.814834 0
M  V30 4 C 0.872639 -1.893771 4.509519 0
M  V30 5 C 1.087121 -1.128916 3.283247 0
M  V30 6 C 1.175156 0.247658 3.331433 0
M  V30 7 C 1.380198 0.919381 2.126703 0
M  V30 8 C 1.503682 0.302336 0.869935 0
M  V30 9 C 1.765965 1.176119 -0.242811 0
M  V30 10 C 3.043235 1.719718 -0.038248 0
M  V30 11 N 3.611359 2.532075 -0.979418 0
M  V30 12 C 2.873926 2.772546 -2.099625 0
M  V30 13 C 1.621002 2.222498 -2.265993 0
M  V30 14 Cl 0.925131 2.719375 -3.763237 0
M  V30 15 C 0.997784 1.400247 -1.355730 0
M  V30 16 N -0.296610 0.920766 -1.485136 0
M  V30 17 C -1.122872 0.261816 -0.549026 0
M  V30 18 C -1.387917 -1.156482 -1.026125 0
M  V30 19 C -2.244739 -1.109727 -2.281191 0
M  V30 20 C -2.292955 0.286108 -2.836418 0
M  V30 21 C -0.982354 1.034903 -2.759172 0
M  V30 22 N -3.593128 -1.507891 -1.949399 0
M  V30 23 C -3.645453 -2.946852 -2.082896 0
M  V30 24 N -2.666947 -3.232811 -3.102197 0
M  V30 25 C -1.846295 -2.083283 -3.306174 0
M  V30 26 O -0.930421 -1.773611 -4.122111 0
M  V30 27 C 1.404502 -1.100938 0.895605 0
M  V30 28 C 1.201622 -1.785916 2.075326 0
M  V30 29 C 0.157240 -3.096039 4.524067 0
M  V30 30 N 0.133052 -3.556474 5.790966 0
M  V30 31 H 0.337624 -3.586648 8.426298 0
M  V30 32 H 0.841515 -1.871758 8.543574 0
M  V30 33 H 2.087195 -3.089388 8.129037 0
M  V30 34 H 1.843250 -0.800597 6.113636 0
M  V30 35 H 1.093339 0.815665 4.247296 0
M  V30 36 H 1.445357 2.014015 2.202424 0
M  V30 37 H 3.695165 1.584618 0.813334 0
M  V30 38 H 3.389853 3.426818 -2.804845 0
M  V30 39 H -2.170494 0.742323 -0.615828 0
M  V30 40 H -0.914357 0.317242 0.498922 0
M  V30 41 H -1.899955 -1.700271 -0.215474 0
M  V30 42 H -0.492661 -1.717630 -1.309817 0
M  V30 43 H -3.149603 0.812872 -2.384010 0
M  V30 44 H -2.533364 0.184641 -3.914408 0
M  V30 45 H -0.320641 0.654702 -3.578406 0
M  V30 46 H -1.274345 2.096668 -2.870786 0
M  V30 47 H -3.947244 -1.145140 -1.054385 0
M  V30 48 H -4.665478 -3.191071 -2.479161 0
M  V30 49 H -3.446272 -3.408604 -1.110035 0
M  V30 50 H -2.492278 -4.100464 -3.666767 0
M  V30 51 H 1.512265 -1.538542 -0.084175 0
M  V30 52 H 1.140355 -2.873412 1.976307 0
M  V30 53 H -0.308007 -3.588872 3.661976 0
M  V30 END ATOM
M  V30 BEGIN BOND
M  V30 1 1 1 2
M  V30 2 1 2 3
M  V30 3 2 3 4
M  V30 4 1 4 5
M  V30 5 2 5 6
M  V30 6 1 6 7
M  V30 7 2 7 8
M  V30 8 1 8 9
M  V30 9 2 9 10
M  V30 10 1 10 11
M  V30 11 2 11 12
M  V30 12 1 12 13
M  V30 13 1 13 14
M  V30 14 2 13 15
M  V30 15 1 15 16
M  V30 16 1 16 17
M  V30 17 1 17 18
M  V30 18 1 18 19
M  V30 19 1 19 20
M  V30 20 1 20 21
M  V30 21 1 19 22
M  V30 22 1 22 23
M  V30 23 1 23 24
M  V30 24 1 24 25
M  V30 25 2 25 26
M  V30 26 1 8 27
M  V30 27 2 27 28
M  V30 28 1 4 29
M  V30 29 2 29 30
M  V30 30 1 30 2
M  V30 31 1 28 5
M  V30 32 1 15 9
M  V30 33 1 21 16
M  V30 34 1 25 19
M  V30 35 1 1 31
M  V30 36 1 1 32
M  V30 37 1 1 33
M  V30 38 1 3 34
M  V30 39 1 6 35
M  V30 40 1 7 36
M  V30 41 1 10 37
M  V30 42 1 12 38
M  V30 43 1 17 39
M  V30 44 1 17 40
M  V30 45 1 18 41
M  V30 46 1 18 42
M  V30 47 1 20 43
M  V30 48 1 20 44
M  V30 49 1 21 45
M  V30 50 1 21 46
M  V30 51 1 22 47
M  V30 52 1 23 48
M  V30 53 1 23 49
M  V30 54 1 24 50
M  V30 55 1 27 51
M  V30 56 1 28 52
M  V30 57 1 29 53
M  V30 END BOND
M  V30 END CTAB
M  END
>  <Dataset>  (597) 
ChEMBL_Kinases

>  <Ligand_Instance>  (597) 
nan

>  <PDB_ID>  (597) 
nan

>  <Standardized_SMILES>  (597) 
Cn1cc(-c2ccc(-c3cncc(Cl)c3N3CCC4(CC3)NCNC4=O)cc2)cn1

>  <Name>  (597) 
nan

>  <Pocket>  (597) 
nan

>  <ATP_Site>  (597) 
nan

>  <Peripheral>  (597) 
nan

>  <Num_H_Atoms_ProtBoundConf>  (597) 
nan

>  <Num_Resolved_Atoms>  (597) 
nan

>  <Num_Not_Resolved_Atoms>  (597) 
nan

$$$$
CHEMBL5069623
     RDKit          3D

  0  0  0  0  0  0  0  0  0  0999 V3000
M  V30 BEGIN CTAB
M  V30 COUNTS 49 52 0 0 0
M  V30 BEGIN ATOM
M  V30 1 C 0.271403 -6.057169 1.479614 0
M  V30 2 N -0.001315 -4.635524 1.263378 0
M  V30 3 C 0.135596 -3.631144 2.302980 0
M  V30 4 C -0.395371 -4.521547 -0.093678 0
M  V30 5 O -0.357152 -5.680537 -0.574209 0
M  V30 6 C -0.794400 -3.399025 -0.929871 0
M  V30 7 C -0.849714 -2.100974 -0.479671 0
M  V30 8 C -1.230239 -1.042596 -1.280169 0
M  V30 9 C -1.252790 0.299401 -0.708848 0
M  V30 10 C -2.097792 1.329146 -1.052342 0
M  V30 11 N -2.019610 2.532420 -0.452385 0
M  V30 12 C -1.134314 2.836814 0.512628 0
M  V30 13 C -0.271295 1.822839 0.879838 0
M  V30 14 C -0.315518 0.575996 0.292894 0
M  V30 15 C 0.604400 2.409953 1.955992 0
M  V30 16 C 1.885591 2.950969 1.360891 0
M  V30 17 C 2.789417 3.004499 2.573234 0
M  V30 18 C 2.423007 1.789044 3.411725 0
M  V30 19 C 1.026833 1.392000 2.970732 0
M  V30 20 C -0.215088 3.538467 2.505944 0
M  V30 21 N -0.869582 4.020942 1.280825 0
M  V30 22 C -1.565491 -1.355565 -2.601795 0
M  V30 23 C -1.506441 -2.661043 -3.042997 0
M  V30 24 C -1.120057 -3.714711 -2.220199 0
M  V30 25 N -1.093115 -5.019788 -2.774718 0
M  V30 26 H -0.648289 -6.634351 1.284835 0
M  V30 27 H 1.056923 -6.437370 0.810370 0
M  V30 28 H 0.626071 -6.227936 2.521748 0
M  V30 29 H 0.942013 -2.906991 2.119634 0
M  V30 30 H -0.842015 -3.157385 2.567916 0
M  V30 31 H 0.421402 -4.198576 3.225347 0
M  V30 32 H -0.584168 -1.900539 0.544792 0
M  V30 33 H -2.817041 1.109729 -1.824398 0
M  V30 34 H 0.415450 -0.131761 0.669133 0
M  V30 35 H 1.692634 3.956194 0.957248 0
M  V30 36 H 2.276376 2.293665 0.565493 0
M  V30 37 H 3.873602 2.946401 2.265868 0
M  V30 38 H 2.545346 3.955880 3.087752 0
M  V30 39 H 2.426141 2.041591 4.477827 0
M  V30 40 H 3.170774 0.968738 3.270454 0
M  V30 41 H 0.332677 1.300943 3.831972 0
M  V30 42 H 1.127118 0.373982 2.533539 0
M  V30 43 H 0.394259 4.329098 2.983375 0
M  V30 44 H -0.983071 3.112676 3.176327 0
M  V30 45 H -1.106450 4.994797 0.995562 0
M  V30 46 H -1.865103 -0.528298 -3.233794 0
M  V30 47 H -1.780009 -2.816340 -4.072518 0
M  V30 48 H -0.493495 -5.369485 -3.566829 0
M  V30 49 H -1.635208 -5.864979 -2.525848 0
M  V30 END ATOM
M  V30 BEGIN BOND
M  V30 1 1 1 2
M  V30 2 1 2 3
M  V30 3 1 2 4
M  V30 4 2 4 5
M  V30 5 1 4 6
M  V30 6 2 6 7
M  V30 7 1 7 8
M  V30 8 1 8 9
M  V30 9 2 9 10
M  V30 10 1 10 11
M  V30 11 2 11 12
M  V30 12 1 12 13
M  V30 13 2 13 14
M  V30 14 1 13 15
M  V30 15 1 15 16
M  V30 16 1 16 17
M  V30 17 1 17 18
M  V30 18 1 18 19
M  V30 19 1 15 20
M  V30 20 1 20 21
M  V30 21 2 8 22
M  V30 22 1 22 23
M  V30 23 2 23 24
M  V30 24 1 24 25
M  V30 25 1 24 6
M  V30 26 1 14 9
M  V30 27 1 19 15
M  V30 28 1 21 12
M  V30 29 1 1 26
M  V30 30 1 1 27
M  V30 31 1 1 28
M  V30 32 1 3 29
M  V30 33 1 3 30
M  V30 34 1 3 31
M  V30 35 1 7 32
M  V30 36 1 10 33
M  V30 37 1 14 34
M  V30 38 1 16 35
M  V30 39 1 16 36
M  V30 40 1 17 37
M  V30 41 1 17 38
M  V30 42 1 18 39
M  V30 43 1 18 40
M  V30 44 1 19 41
M  V30 45 1 19 42
M  V30 46 1 20 43
M  V30 47 1 20 44
M  V30 48 1 21 45
M  V30 49 1 22 46
M  V30 50 1 23 47
M  V30 51 1 25 48
M  V30 52 1 25 49
M  V30 END BOND
M  V30 END CTAB
M  END
>  <Dataset>  (598) 
ChEMBL_Kinases

>  <Ligand_Instance>  (598) 
nan

>  <PDB_ID>  (598) 
nan

>  <Standardized_SMILES>  (598) 
CN(C)C(=O)c1cc(-c2cnc3c(c2)C2(CCCC2)CN3)ccc1N

>  <Name>  (598) 
nan

>  <Pocket>  (598) 
nan

>  <ATP_Site>  (598) 
nan

>  <Peripheral>  (598) 
nan

>  <Num_H_Atoms_ProtBoundConf>  (598) 
nan

>  <Num_Resolved_Atoms>  (598) 
nan

>  <Num_Not_Resolved_Atoms>  (598) 
nan

$$$$
CHEMBL5069779
     RDKit          3D

  0  0  0  0  0  0  0  0  0  0999 V3000
M  V30 BEGIN CTAB
M  V30 COUNTS 51 52 0 0 0
M  V30 BEGIN ATOM
M  V30 1 C -0.533409 -6.723188 3.583839 0
M  V30 2 C 0.188873 -6.364453 2.326496 0
M  V30 3 C 0.350912 -5.036623 1.993055 0
M  V30 4 C 1.010256 -4.608190 0.840958 0
M  V30 5 C 1.114428 -3.176033 0.603733 0
M  V30 6 C 1.202907 -2.337128 1.693397 0
M  V30 7 C 1.297242 -1.005340 1.360914 0
M  V30 8 C 1.313039 -0.424818 0.119723 0
M  V30 9 O 1.394494 0.768553 -0.358038 0
M  V30 10 C 1.491131 2.091932 -0.200905 0
M  V30 11 C 0.290958 2.689352 0.514034 0 CFG=1
M  V30 12 C 0.307974 2.239419 1.933298 0
M  V30 13 N 0.574614 4.114216 0.541469 0
M  V30 14 C -0.893565 2.324196 -0.283644 0
M  V30 15 C -2.232097 2.763602 0.156845 0
M  V30 16 C -2.404433 4.254748 0.254725 0
M  V30 17 C -2.817943 2.050470 1.333201 0
M  V30 18 C 1.219895 -1.340792 -0.933456 0
M  V30 19 C 1.215503 -0.970091 -2.393943 0
M  V30 20 F 1.112344 -2.092064 -3.181003 0
M  V30 21 F 2.434943 -0.382757 -2.718155 0
M  V30 22 F 0.171739 -0.092663 -2.668129 0
M  V30 23 C 1.120081 -2.722568 -0.691882 0
M  V30 24 C 1.516154 -5.584171 0.010410 0
M  V30 25 C 1.350138 -6.905769 0.350301 0
M  V30 26 N 0.706007 -7.245272 1.472817 0
M  V30 27 H 0.103614 -6.381959 4.430317 0
M  V30 28 H -0.742938 -7.800374 3.626392 0
M  V30 29 H -1.489981 -6.146233 3.582417 0
M  V30 30 H -0.065803 -4.298729 2.680159 0
M  V30 31 H 1.200274 -2.666699 2.721479 0
M  V30 32 H 1.384201 -0.337375 2.194777 0
M  V30 33 H 1.630425 2.670741 -1.169293 0
M  V30 34 H 2.415012 2.366409 0.404701 0
M  V30 35 H -0.061983 3.061471 2.621205 0
M  V30 36 H 1.323538 2.028764 2.325849 0
M  V30 37 H -0.290675 1.333690 2.030398 0
M  V30 38 H 0.450655 4.563198 1.447429 0
M  V30 39 H 0.326122 4.627064 -0.302890 0
M  V30 40 H -0.909901 1.233115 -0.427790 0
M  V30 41 H -0.742334 2.752589 -1.314023 0
M  V30 42 H -2.921566 2.478482 -0.696647 0
M  V30 43 H -1.949848 4.706635 1.146595 0
M  V30 44 H -2.058783 4.716480 -0.693818 0
M  V30 45 H -3.494900 4.450040 0.319898 0
M  V30 46 H -2.834305 0.962324 1.156074 0
M  V30 47 H -2.439134 2.361079 2.314788 0
M  V30 48 H -3.909378 2.343648 1.349970 0
M  V30 49 H 1.045469 -3.475453 -1.495080 0
M  V30 50 H 2.030134 -5.271462 -0.887369 0
M  V30 51 H 1.747605 -7.688719 -0.300939 0
M  V30 END ATOM
M  V30 BEGIN BOND
M  V30 1 1 1 2
M  V30 2 2 2 3
M  V30 3 1 3 4
M  V30 4 1 4 5
M  V30 5 2 5 6
M  V30 6 1 6 7
M  V30 7 2 7 8
M  V30 8 1 8 9
M  V30 9 1 9 10
M  V30 10 1 10 11
M  V30 11 1 11 12
M  V30 12 1 11 13 CFG=1
M  V30 13 1 11 14
M  V30 14 1 14 15
M  V30 15 1 15 16
M  V30 16 1 15 17
M  V30 17 1 8 18
M  V30 18 1 18 19
M  V30 19 1 19 20
M  V30 20 1 19 21
M  V30 21 1 19 22
M  V30 22 2 18 23
M  V30 23 2 4 24
M  V30 24 1 24 25
M  V30 25 2 25 26
M  V30 26 1 26 2
M  V30 27 1 23 5
M  V30 28 1 1 27
M  V30 29 1 1 28
M  V30 30 1 1 29
M  V30 31 1 3 30
M  V30 32 1 6 31
M  V30 33 1 7 32
M  V30 34 1 10 33
M  V30 35 1 10 34
M  V30 36 1 12 35
M  V30 37 1 12 36
M  V30 38 1 12 37
M  V30 39 1 13 38
M  V30 40 1 13 39
M  V30 41 1 14 40
M  V30 42 1 14 41
M  V30 43 1 15 42
M  V30 44 1 16 43
M  V30 45 1 16 44
M  V30 46 1 16 45
M  V30 47 1 17 46
M  V30 48 1 17 47
M  V30 49 1 17 48
M  V30 50 1 23 49
M  V30 51 1 24 50
M  V30 52 1 25 51
M  V30 END BOND
M  V30 END CTAB
M  END
>  <Dataset>  (599) 
ChEMBL_Kinases

>  <Ligand_Instance>  (599) 
nan

>  <PDB_ID>  (599) 
nan

>  <Standardized_SMILES>  (599) 
Cc1cc(-c2ccc(OC[C@@](C)(N)CC(C)C)c(C(F)(F)F)c2)ccn1

>  <Name>  (599) 
nan

>  <Pocket>  (599) 
nan

>  <ATP_Site>  (599) 
nan

>  <Peripheral>  (599) 
nan

>  <Num_H_Atoms_ProtBoundConf>  (599) 
nan

>  <Num_Resolved_Atoms>  (599) 
nan

>  <Num_Not_Resolved_Atoms>  (599) 
nan

$$$$
CHEMBL3798611
     RDKit          3D

  0  0  0  0  0  0  0  0  0  0999 V3000
M  V30 BEGIN CTAB
M  V30 COUNTS 55 59 0 0 0
M  V30 BEGIN ATOM
M  V30 1 C 1.117282 -2.187425 1.946027 0
M  V30 2 N 2.129984 -2.133854 0.938032 0
M  V30 3 C 2.652964 -3.238657 0.169831 0
M  V30 4 O 2.015358 -4.308602 -0.095483 0
M  V30 5 N 3.995530 -2.860562 -0.204125 0
M  V30 6 C 4.242100 -1.549196 0.344919 0
M  V30 7 O 5.422768 -1.209856 0.584263 0
M  V30 8 C 2.860630 -0.976818 0.454694 0
M  V30 9 C 2.949483 0.116014 1.462783 0
M  V30 10 C 1.879822 1.142407 1.423900 0
M  V30 11 N 1.615943 1.487544 0.041987 0
M  V30 12 C 0.660302 2.526303 0.132277 0
M  V30 13 C 1.237939 3.778263 0.180327 0
M  V30 14 Cl 2.981274 4.077451 0.115478 0
M  V30 15 C 0.492643 4.933451 0.284843 0
M  V30 16 N -0.858709 4.786723 0.339597 0
M  V30 17 C -1.431585 3.577627 0.293846 0
M  V30 18 C -0.708218 2.408061 0.189476 0
M  V30 19 C -1.343969 1.102284 0.136373 0
M  V30 20 C -2.263584 1.024131 1.192604 0
M  V30 21 C -3.045480 -0.118366 1.403112 0
M  V30 22 C -2.917722 -1.200620 0.558009 0
M  V30 23 C -3.703923 -2.416309 0.725177 0
M  V30 24 C -4.988873 -2.599301 1.212139 0
M  V30 25 N -5.301370 -3.905937 1.180207 0
M  V30 26 N -4.263369 -4.576823 0.689273 0
M  V30 27 C -4.082443 -6.012140 0.446094 0
M  V30 28 C -3.271063 -3.685097 0.402674 0
M  V30 29 C -2.009802 -1.103451 -0.472402 0
M  V30 30 C -1.238033 0.006599 -0.691692 0
M  V30 31 C 2.237611 0.877479 -1.128535 0
M  V30 32 C 2.435377 -0.578890 -0.906587 0
M  V30 33 H 0.728505 -3.234199 2.001535 0
M  V30 34 H 0.299100 -1.462409 1.766725 0
M  V30 35 H 1.500079 -1.984147 2.974482 0
M  V30 36 H 4.627101 -3.481101 -0.777196 0
M  V30 37 H 2.909525 -0.371107 2.471203 0
M  V30 38 H 3.941052 0.629995 1.434071 0
M  V30 39 H 2.277403 2.036584 1.991118 0
M  V30 40 H 0.971143 0.831734 1.980987 0
M  V30 41 H 0.806864 5.951530 0.331178 0
M  V30 42 H -2.507870 3.488662 0.339381 0
M  V30 43 H -2.503240 1.775683 1.960796 0
M  V30 44 H -3.768976 -0.240684 2.194829 0
M  V30 45 H -5.609610 -1.777863 1.555593 0
M  V30 46 H -4.361724 -6.271815 -0.590185 0
M  V30 47 H -3.034888 -6.290060 0.678382 0
M  V30 48 H -4.750736 -6.541123 1.176825 0
M  V30 49 H -2.303602 -3.910120 -0.007099 0
M  V30 50 H -1.831879 -1.891764 -1.190118 0
M  V30 51 H -0.507907 0.199282 -1.460464 0
M  V30 52 H 3.248587 1.368262 -1.192792 0
M  V30 53 H 1.707609 1.117748 -2.046989 0
M  V30 54 H 1.478113 -1.096146 -1.129208 0
M  V30 55 H 3.131561 -0.970311 -1.704923 0
M  V30 END ATOM
M  V30 BEGIN BOND
M  V30 1 1 1 2
M  V30 2 1 2 3
M  V30 3 2 3 4
M  V30 4 1 3 5
M  V30 5 1 5 6
M  V30 6 2 6 7
M  V30 7 1 6 8
M  V30 8 1 8 9
M  V30 9 1 9 10
M  V30 10 1 10 11
M  V30 11 1 11 12
M  V30 12 2 12 13
M  V30 13 1 13 14
M  V30 14 1 13 15
M  V30 15 2 15 16
M  V30 16 1 16 17
M  V30 17 2 17 18
M  V30 18 1 18 19
M  V30 19 2 19 20
M  V30 20 1 20 21
M  V30 21 2 21 22
M  V30 22 1 22 23
M  V30 23 1 23 24
M  V30 24 2 24 25
M  V30 25 1 25 26
M  V30 26 1 26 27
M  V30 27 1 26 28
M  V30 28 1 22 29
M  V30 29 2 29 30
M  V30 30 1 11 31
M  V30 31 1 31 32
M  V30 32 1 8 2
M  V30 33 1 18 12
M  V30 34 1 30 19
M  V30 35 1 32 8
M  V30 36 2 28 23
M  V30 37 1 1 33
M  V30 38 1 1 34
M  V30 39 1 1 35
M  V30 40 1 5 36
M  V30 41 1 9 37
M  V30 42 1 9 38
M  V30 43 1 10 39
M  V30 44 1 10 40
M  V30 45 1 15 41
M  V30 46 1 17 42
M  V30 47 1 20 43
M  V30 48 1 21 44
M  V30 49 1 24 45
M  V30 50 1 27 46
M  V30 51 1 27 47
M  V30 52 1 27 48
M  V30 53 1 28 49
M  V30 54 1 29 50
M  V30 55 1 30 51
M  V30 56 1 31 52
M  V30 57 1 31 53
M  V30 58 1 32 54
M  V30 59 1 32 55
M  V30 END BOND
M  V30 END CTAB
M  END
>  <Dataset>  (600) 
ChEMBL_Kinases

>  <Ligand_Instance>  (600) 
nan

>  <PDB_ID>  (600) 
nan

>  <Standardized_SMILES>  (600) 
CN1C(=O)NC(=O)C12CCN(c1c(Cl)cncc1-c1ccc(-c3cnn(C)c3)cc1)CC2

>  <Name>  (600) 
nan

>  <Pocket>  (600) 
nan

>  <ATP_Site>  (600) 
nan

>  <Peripheral>  (600) 
nan

>  <Num_H_Atoms_ProtBoundConf>  (600) 
nan

>  <Num_Resolved_Atoms>  (600) 
nan

>  <Num_Not_Resolved_Atoms>  (600) 
nan

$$$$
CHEMBL3798604
     RDKit          3D

  0  0  0  0  0  0  0  0  0  0999 V3000
M  V30 BEGIN CTAB
M  V30 COUNTS 45 48 0 0 0
M  V30 BEGIN ATOM
M  V30 1 O 1.110657 1.319322 3.149406 0
M  V30 2 C 0.495344 0.367999 2.626615 0
M  V30 3 N 1.129936 -0.903243 2.614339 0
M  V30 4 C 2.424577 -1.182131 3.155783 0
M  V30 5 C 3.519667 -0.360296 2.493147 0
M  V30 6 O 3.587083 -0.618762 1.111424 0
M  V30 7 C 4.498032 -0.007579 0.245763 0
M  V30 8 C 5.470243 0.932734 0.571513 0
M  V30 9 C 6.283245 1.425931 -0.427815 0
M  V30 10 C 6.125752 0.983008 -1.741359 0
M  V30 11 C 5.172316 0.054464 -2.088571 0
M  V30 12 C 4.362967 -0.433539 -1.080789 0
M  V30 13 C -0.826383 0.641740 2.070953 0
M  V30 14 C -1.295574 1.935113 2.166240 0
M  V30 15 C -2.553053 2.284882 1.659438 0
M  V30 16 C -3.350589 1.344847 1.053864 0
M  V30 17 N -4.578441 1.331772 0.472306 0
M  V30 18 N -4.869586 0.098027 0.033458 0
M  V30 19 C -3.827745 -0.735139 0.320447 0
M  V30 20 C -3.800022 -2.160151 -0.014966 0
M  V30 21 C -2.728953 -2.826814 -0.575563 0
M  V30 22 C -2.835420 -4.186893 -0.844984 0
M  V30 23 N -3.959140 -4.883442 -0.575059 0
M  V30 24 C -4.991152 -4.191970 -0.023711 0
M  V30 25 C -4.971271 -2.838946 0.277139 0
M  V30 26 C -2.885397 0.049869 0.956302 0
M  V30 27 C -1.643469 -0.274383 1.462014 0
M  V30 28 H 0.559386 -1.667032 2.158684 0
M  V30 29 H 2.622810 -2.256388 3.098489 0
M  V30 30 H 2.396670 -0.927346 4.231774 0
M  V30 31 H 3.321087 0.706682 2.715372 0
M  V30 32 H 4.484086 -0.584038 2.993566 0
M  V30 33 H 5.490431 1.192160 1.619110 0
M  V30 34 H 7.026845 2.157043 -0.126997 0
M  V30 35 H 6.805183 1.419956 -2.469018 0
M  V30 36 H 5.093085 -0.254260 -3.121939 0
M  V30 37 H 3.626974 -1.161713 -1.398164 0
M  V30 38 H -0.751374 2.745415 2.620750 0
M  V30 39 H -2.914457 3.309380 1.739736 0
M  V30 40 H -5.188094 2.176472 0.391709 0
M  V30 41 H -1.848062 -2.228961 -0.775346 0
M  V30 42 H -1.938398 -4.644361 -1.291501 0
M  V30 43 H -5.875368 -4.792509 0.176723 0
M  V30 44 H -5.860593 -2.439771 0.707418 0
M  V30 45 H -1.285001 -1.290155 1.382444 0
M  V30 END ATOM
M  V30 BEGIN BOND
M  V30 1 2 1 2
M  V30 2 1 2 3
M  V30 3 1 3 4
M  V30 4 1 4 5
M  V30 5 1 5 6
M  V30 6 1 6 7
M  V30 7 2 7 8
M  V30 8 1 8 9
M  V30 9 2 9 10
M  V30 10 1 10 11
M  V30 11 2 11 12
M  V30 12 1 2 13
M  V30 13 2 13 14
M  V30 14 1 14 15
M  V30 15 2 15 16
M  V30 16 1 16 17
M  V30 17 1 17 18
M  V30 18 2 18 19
M  V30 19 1 19 20
M  V30 20 2 20 21
M  V30 21 1 21 22
M  V30 22 2 22 23
M  V30 23 1 23 24
M  V30 24 2 24 25
M  V30 25 1 19 26
M  V30 26 2 26 27
M  V30 27 1 12 7
M  V30 28 1 27 13
M  V30 29 1 26 16
M  V30 30 1 25 20
M  V30 31 1 3 28
M  V30 32 1 4 29
M  V30 33 1 4 30
M  V30 34 1 5 31
M  V30 35 1 5 32
M  V30 36 1 8 33
M  V30 37 1 9 34
M  V30 38 1 10 35
M  V30 39 1 11 36
M  V30 40 1 12 37
M  V30 41 1 14 38
M  V30 42 1 15 39
M  V30 43 1 17 40
M  V30 44 1 21 41
M  V30 45 1 22 42
M  V30 46 1 24 43
M  V30 47 1 25 44
M  V30 48 1 27 45
M  V30 END BOND
M  V30 END CTAB
M  END
>  <Dataset>  (601) 
ChEMBL_Kinases

>  <Ligand_Instance>  (601) 
nan

>  <PDB_ID>  (601) 
nan

>  <Standardized_SMILES>  (601) 
O=C(NCCOc1ccccc1)c1ccc2[nH]nc(-c3ccncc3)c2c1

>  <Name>  (601) 
nan

>  <Pocket>  (601) 
nan

>  <ATP_Site>  (601) 
nan

>  <Peripheral>  (601) 
nan

>  <Num_H_Atoms_ProtBoundConf>  (601) 
nan

>  <Num_Resolved_Atoms>  (601) 
nan

>  <Num_Not_Resolved_Atoms>  (601) 
nan

$$$$
CHEMBL3798597
     RDKit          3D

  0  0  0  0  0  0  0  0  0  0999 V3000
M  V30 BEGIN CTAB
M  V30 COUNTS 39 41 0 0 0
M  V30 BEGIN ATOM
M  V30 1 C -1.368473 -6.212998 3.715739 0
M  V30 2 O -0.479564 -5.168305 4.050983 0
M  V30 3 C 0.110910 -4.299370 3.160285 0
M  V30 4 C -0.066687 -4.306625 1.778602 0
M  V30 5 C 0.566260 -3.389020 0.940783 0
M  V30 6 C 1.377087 -2.488957 1.640149 0
M  V30 7 C 2.039079 -1.487907 0.771238 0
M  V30 8 N 1.899304 -1.426176 -0.495723 0
M  V30 9 N 2.485028 -0.518858 -1.363891 0
M  V30 10 C 1.585976 0.568952 -1.068909 0
M  V30 11 C 0.367056 0.655143 -1.716796 0
M  V30 12 C -0.570588 1.669507 -1.490087 0
M  V30 13 C -1.842629 1.681838 -2.231749 0
M  V30 14 C -0.232681 2.627991 -0.559607 0
M  V30 15 C -1.094705 3.653376 -0.280394 0
M  V30 16 C -0.770491 4.620088 0.647532 0
M  V30 17 C 0.448251 4.543307 1.299737 0
M  V30 18 C 1.361454 3.512806 1.046303 0
M  V30 19 C 0.995308 2.553835 0.101251 0
M  V30 20 N 1.848214 1.536803 -0.176220 0
M  V30 21 C 1.610300 -2.408423 2.990727 0
M  V30 22 C 0.939468 -3.357197 3.733181 0
M  V30 23 H -1.913243 -5.905172 2.777783 0
M  V30 24 H -2.147160 -6.345887 4.506942 0
M  V30 25 H -0.845148 -7.156394 3.484915 0
M  V30 26 H -0.718486 -5.056874 1.366487 0
M  V30 27 H 0.442090 -3.379671 -0.127318 0
M  V30 28 H 2.705398 -0.707822 1.105811 0
M  V30 29 H 3.300442 -0.521742 -2.039922 0
M  V30 30 H 0.162226 -0.142010 -2.446664 0
M  V30 31 H -2.678389 1.385767 -1.556003 0
M  V30 32 H -1.780529 0.958145 -3.093461 0
M  V30 33 H -2.054716 2.701450 -2.579058 0
M  V30 34 H -2.045919 3.700866 -0.798339 0
M  V30 35 H -1.435627 5.457817 0.897974 0
M  V30 36 H 0.686416 5.307073 2.020145 0
M  V30 37 H 2.316434 3.450039 1.556189 0
M  V30 38 H 2.272419 -1.640190 3.358887 0
M  V30 39 H 1.112880 -3.306011 4.818610 0
M  V30 END ATOM
M  V30 BEGIN BOND
M  V30 1 1 1 2
M  V30 2 1 2 3
M  V30 3 2 3 4
M  V30 4 1 4 5
M  V30 5 2 5 6
M  V30 6 1 6 7
M  V30 7 2 7 8
M  V30 8 1 8 9
M  V30 9 1 9 10
M  V30 10 2 10 11
M  V30 11 1 11 12
M  V30 12 1 12 13
M  V30 13 2 12 14
M  V30 14 1 14 15
M  V30 15 2 15 16
M  V30 16 1 16 17
M  V30 17 2 17 18
M  V30 18 1 18 19
M  V30 19 2 19 20
M  V30 20 1 6 21
M  V30 21 2 21 22
M  V30 22 1 22 3
M  V30 23 1 20 10
M  V30 24 1 19 14
M  V30 25 1 1 23
M  V30 26 1 1 24
M  V30 27 1 1 25
M  V30 28 1 4 26
M  V30 29 1 5 27
M  V30 30 1 7 28
M  V30 31 1 9 29
M  V30 32 1 11 30
M  V30 33 1 13 31
M  V30 34 1 13 32
M  V30 35 1 13 33
M  V30 36 1 15 34
M  V30 37 1 16 35
M  V30 38 1 17 36
M  V30 39 1 18 37
M  V30 40 1 21 38
M  V30 41 1 22 39
M  V30 END BOND
M  V30 END CTAB
M  END
>  <Dataset>  (602) 
ChEMBL_Kinases

>  <Ligand_Instance>  (602) 
nan

>  <PDB_ID>  (602) 
nan

>  <Standardized_SMILES>  (602) 
COc1ccc(/C=N/Nc2cc(C)c3ccccc3n2)cc1

>  <Name>  (602) 
nan

>  <Pocket>  (602) 
nan

>  <ATP_Site>  (602) 
nan

>  <Peripheral>  (602) 
nan

>  <Num_H_Atoms_ProtBoundConf>  (602) 
nan

>  <Num_Resolved_Atoms>  (602) 
nan

>  <Num_Not_Resolved_Atoms>  (602) 
nan

$$$$
CHEMBL3798591
     RDKit          3D

  0  0  0  0  0  0  0  0  0  0999 V3000
M  V30 BEGIN CTAB
M  V30 COUNTS 32 35 0 0 0
M  V30 BEGIN ATOM
M  V30 1 C 0.011049 1.559951 4.944013 0
M  V30 2 S 0.727532 2.377939 3.498132 0
M  V30 3 C 0.905877 1.111655 2.137384 0
M  V30 4 S 2.298208 0.061854 1.822868 0
M  V30 5 C 1.609630 -0.712550 0.470767 0
M  V30 6 C 2.326947 -1.784380 -0.310061 0
M  V30 7 C 3.593402 -2.230918 -0.001597 0
M  V30 8 C 3.904846 -3.204986 -0.934690 0
M  V30 9 N 2.838122 -3.325958 -1.774824 0
M  V30 10 N 1.923514 -2.464878 -1.368821 0
M  V30 11 C 0.373176 -0.173226 0.291840 0
M  V30 12 C 0.027443 0.779832 1.177377 0
M  V30 13 C -1.319838 1.382626 1.023528 0
M  V30 14 O -1.752968 2.292423 1.798347 0
M  V30 15 N -2.153104 0.914105 -0.042052 0
M  V30 16 C -1.936859 -0.461322 -0.389592 0
M  V30 17 C -2.409826 -1.454056 0.663484 0
M  V30 18 C -3.011050 -1.392481 -0.723577 0
M  V30 19 C -0.528794 -0.596108 -0.814953 0
M  V30 20 H -0.130986 0.463828 4.782591 0
M  V30 21 H -0.974340 1.960270 5.237484 0
M  V30 22 H 0.697323 1.630645 5.833768 0
M  V30 23 H 4.247296 -1.912438 0.798559 0
M  V30 24 H 4.792790 -3.807959 -1.056824 0
M  V30 25 H 2.647538 -3.932797 -2.608197 0
M  V30 26 H -2.854056 1.569410 -0.499870 0
M  V30 27 H -2.981714 -1.077288 1.537042 0
M  V30 28 H -1.738379 -2.298648 0.927332 0
M  V30 29 H -4.045006 -0.988594 -0.719555 0
M  V30 30 H -2.767941 -2.221701 -1.394463 0
M  V30 31 H -0.352900 0.157315 -1.640368 0
M  V30 32 H -0.269045 -1.565862 -1.257699 0
M  V30 END ATOM
M  V30 BEGIN BOND
M  V30 1 1 1 2
M  V30 2 1 2 3
M  V30 3 1 3 4
M  V30 4 1 4 5
M  V30 5 1 5 6
M  V30 6 1 6 7
M  V30 7 2 7 8
M  V30 8 1 8 9
M  V30 9 1 9 10
M  V30 10 2 5 11
M  V30 11 1 11 12
M  V30 12 1 12 13
M  V30 13 2 13 14
M  V30 14 1 13 15
M  V30 15 1 15 16
M  V30 16 1 16 17
M  V30 17 1 17 18
M  V30 18 1 16 19
M  V30 19 2 12 3
M  V30 20 1 18 16
M  V30 21 2 10 6
M  V30 22 1 19 11
M  V30 23 1 1 20
M  V30 24 1 1 21
M  V30 25 1 1 22
M  V30 26 1 7 23
M  V30 27 1 8 24
M  V30 28 1 9 25
M  V30 29 1 15 26
M  V30 30 1 17 27
M  V30 31 1 17 28
M  V30 32 1 18 29
M  V30 33 1 18 30
M  V30 34 1 19 31
M  V30 35 1 19 32
M  V30 END BOND
M  V30 END CTAB
M  END
>  <Dataset>  (603) 
ChEMBL_Kinases

>  <Ligand_Instance>  (603) 
nan

>  <PDB_ID>  (603) 
nan

>  <Standardized_SMILES>  (603) 
CSc1sc(-c2cc[nH]n2)c2c1C(=O)NC1(CC1)C2

>  <Name>  (603) 
nan

>  <Pocket>  (603) 
nan

>  <ATP_Site>  (603) 
nan

>  <Peripheral>  (603) 
nan

>  <Num_H_Atoms_ProtBoundConf>  (603) 
nan

>  <Num_Resolved_Atoms>  (603) 
nan

>  <Num_Not_Resolved_Atoms>  (603) 
nan

$$$$
CHEMBL3798778
     RDKit          3D

  0  0  0  0  0  0  0  0  0  0999 V3000
M  V30 BEGIN CTAB
M  V30 COUNTS 64 68 0 0 0
M  V30 BEGIN ATOM
M  V30 1 C 4.693824 0.095672 4.176740 0
M  V30 2 O 4.400912 1.062063 3.247409 0
M  V30 3 C 3.661424 0.517397 2.169296 0
M  V30 4 C 3.397325 1.664291 1.216359 0
M  V30 5 N 2.672806 1.372006 0.056045 0
M  V30 6 C 3.423292 0.541396 -0.836372 0
M  V30 7 C 2.582849 -0.669730 -1.130844 0
M  V30 8 C 1.455398 -0.540089 -0.146200 0
M  V30 9 C 1.325077 0.948551 0.110648 0
M  V30 10 C 0.653005 1.574881 -1.099449 0
M  V30 11 C -0.804208 1.352147 -1.205943 0
M  V30 12 N -1.524513 1.554987 0.036158 0
M  V30 13 C -2.899530 1.350285 -0.180754 0
M  V30 14 C -3.678186 2.447549 -0.526868 0
M  V30 15 Cl -2.912710 4.024345 -0.659472 0
M  V30 16 C -5.033562 2.399821 -0.781188 0
M  V30 17 N -5.667708 1.193412 -0.689406 0
M  V30 18 C -4.917855 0.122084 -0.353630 0
M  V30 19 C -3.551702 0.158011 -0.095293 0
M  V30 20 C -2.898468 -1.096676 0.248575 0
M  V30 21 C -2.028796 -1.439982 1.261868 0
M  V30 22 C -1.538263 -2.696628 1.371149 0
M  V30 23 C -1.859928 -3.714533 0.498979 0
M  V30 24 C -2.711459 -3.449833 -0.522969 0
M  V30 25 C -3.217378 -2.145843 -0.632608 0
M  V30 26 C -3.010169 -4.620573 -1.423463 0
M  V30 27 S -1.707528 -5.741322 -0.967883 0
M  V30 28 O -0.550435 -5.648477 -1.906079 0
M  V30 29 O -2.239510 -7.136995 -0.812555 0
M  V30 30 N -1.354918 -5.041237 0.590678 0
M  V30 31 C -0.694317 -5.702027 1.697458 0
M  V30 32 C -0.746604 1.927462 1.194795 0
M  V30 33 C 0.570724 1.269709 1.340608 0
M  V30 34 H 5.278166 0.539184 5.020902 0
M  V30 35 H 5.330902 -0.662673 3.635803 0
M  V30 36 H 3.776473 -0.379316 4.581424 0
M  V30 37 H 4.291245 -0.268142 1.760547 0
M  V30 38 H 2.723276 0.174440 2.651050 0
M  V30 39 H 3.121475 2.530853 1.820250 0
M  V30 40 H 4.443610 1.936091 0.846120 0
M  V30 41 H 3.580848 1.155732 -1.771422 0
M  V30 42 H 4.444453 0.319473 -0.479936 0
M  V30 43 H 3.124436 -1.633385 -1.071391 0
M  V30 44 H 2.213121 -0.596993 -2.194884 0
M  V30 45 H 0.537151 -0.890758 -0.628203 0
M  V30 46 H 1.608305 -1.133937 0.773691 0
M  V30 47 H 1.159824 1.184924 -2.003523 0
M  V30 48 H 0.905419 2.662171 -1.027864 0
M  V30 49 H -1.047697 0.372526 -1.667910 0
M  V30 50 H -1.210023 2.105798 -1.925157 0
M  V30 51 H -5.601265 3.283688 -1.048956 0
M  V30 52 H -5.443113 -0.819293 -0.288003 0
M  V30 53 H -1.819158 -0.611233 1.914254 0
M  V30 54 H -0.869713 -2.821589 2.209943 0
M  V30 55 H -3.907465 -1.968410 -1.476354 0
M  V30 56 H -4.020573 -5.017802 -1.224707 0
M  V30 57 H -2.879071 -4.219764 -2.450498 0
M  V30 58 H -1.376568 -6.460676 2.169415 0
M  V30 59 H 0.122865 -6.324330 1.229122 0
M  V30 60 H -0.285253 -5.001013 2.429439 0
M  V30 61 H -1.379354 1.739460 2.088181 0
M  V30 62 H -0.562590 3.035283 1.065197 0
M  V30 63 H 1.226120 1.914794 1.990652 0
M  V30 64 H 0.435735 0.337393 1.960744 0
M  V30 END ATOM
M  V30 BEGIN BOND
M  V30 1 1 1 2
M  V30 2 1 2 3
M  V30 3 1 3 4
M  V30 4 1 4 5
M  V30 5 1 5 6
M  V30 6 1 6 7
M  V30 7 1 7 8
M  V30 8 1 8 9
M  V30 9 1 9 10
M  V30 10 1 10 11
M  V30 11 1 11 12
M  V30 12 1 12 13
M  V30 13 2 13 14
M  V30 14 1 14 15
M  V30 15 1 14 16
M  V30 16 2 16 17
M  V30 17 1 17 18
M  V30 18 2 18 19
M  V30 19 1 19 20
M  V30 20 2 20 21
M  V30 21 1 21 22
M  V30 22 2 22 23
M  V30 23 1 23 24
M  V30 24 2 24 25
M  V30 25 1 24 26
M  V30 26 1 26 27
M  V30 27 2 27 28
M  V30 28 2 27 29
M  V30 29 1 27 30
M  V30 30 1 30 31
M  V30 31 1 12 32
M  V30 32 1 32 33
M  V30 33 1 9 5
M  V30 34 1 19 13
M  V30 35 1 25 20
M  V30 36 1 33 9
M  V30 37 1 30 23
M  V30 38 1 1 34
M  V30 39 1 1 35
M  V30 40 1 1 36
M  V30 41 1 3 37
M  V30 42 1 3 38
M  V30 43 1 4 39
M  V30 44 1 4 40
M  V30 45 1 6 41
M  V30 46 1 6 42
M  V30 47 1 7 43
M  V30 48 1 7 44
M  V30 49 1 8 45
M  V30 50 1 8 46
M  V30 51 1 10 47
M  V30 52 1 10 48
M  V30 53 1 11 49
M  V30 54 1 11 50
M  V30 55 1 16 51
M  V30 56 1 18 52
M  V30 57 1 21 53
M  V30 58 1 22 54
M  V30 59 1 25 55
M  V30 60 1 26 56
M  V30 61 1 26 57
M  V30 62 1 31 58
M  V30 63 1 31 59
M  V30 64 1 31 60
M  V30 65 1 32 61
M  V30 66 1 32 62
M  V30 67 1 33 63
M  V30 68 1 33 64
M  V30 END BOND
M  V30 END CTAB
M  END
>  <Dataset>  (604) 
ChEMBL_Kinases

>  <Ligand_Instance>  (604) 
nan

>  <PDB_ID>  (604) 
nan

>  <Standardized_SMILES>  (604) 
COCCN1CCCC12CCN(c1c(Cl)cncc1-c1ccc3c(c1)CS(=O)(=O)N3C)CC2

>  <Name>  (604) 
nan

>  <Pocket>  (604) 
nan

>  <ATP_Site>  (604) 
nan

>  <Peripheral>  (604) 
nan

>  <Num_H_Atoms_ProtBoundConf>  (604) 
nan

>  <Num_Resolved_Atoms>  (604) 
nan

>  <Num_Not_Resolved_Atoms>  (604) 
nan

$$$$
CHEMBL5070119
     RDKit          3D

  0  0  0  0  0  0  0  0  0  0999 V3000
M  V30 BEGIN CTAB
M  V30 COUNTS 38 40 0 0 0
M  V30 BEGIN ATOM
M  V30 1 C 0.952068 -6.028612 0.970048 0
M  V30 2 N 2.244718 -5.366101 0.916618 0
M  V30 3 C 2.369699 -4.437190 2.036711 0
M  V30 4 C 1.406810 -3.322714 1.809869 0
M  V30 5 O 0.779006 -3.504364 0.734479 0
M  V30 6 N 1.175022 -2.195061 2.631115 0
M  V30 7 C 0.188474 -1.312782 2.134735 0
M  V30 8 C 0.344507 -0.234477 1.296971 0
M  V30 9 C -0.738973 0.529304 0.905279 0
M  V30 10 C -0.504368 1.664216 0.011178 0
M  V30 11 C -1.456506 2.076811 -0.905196 0
M  V30 12 C -1.177384 3.168206 -1.736302 0
M  V30 13 C 0.040331 3.805540 -1.621412 0
M  V30 14 O 0.466769 4.826429 -2.305118 0
M  V30 15 C 1.673491 5.191083 -1.948895 0
M  V30 16 C 2.049221 4.305890 -0.931900 0
M  V30 17 C 1.000215 3.413527 -0.719635 0
M  V30 18 C 0.718885 2.340515 0.093808 0
M  V30 19 C -2.012066 0.214316 1.357263 0
M  V30 20 C -2.125108 -0.868036 2.190738 0
M  V30 21 N -3.461312 -1.155995 2.631574 0
M  V30 22 N -1.063675 -1.604872 2.565792 0
M  V30 23 H 0.427084 -6.023794 -0.003243 0
M  V30 24 H 1.136907 -7.067845 1.357901 0
M  V30 25 H 0.327895 -5.537140 1.768160 0
M  V30 26 H 2.279286 -4.815814 0.025526 0
M  V30 27 H 3.427803 -4.063090 2.047115 0
M  V30 28 H 2.171832 -4.978567 2.973070 0
M  V30 29 H 1.759517 -2.162552 3.493730 0
M  V30 30 H 1.364080 -0.058523 0.993220 0
M  V30 31 H -2.381686 1.493268 -0.900370 0
M  V30 32 H -1.992882 3.397227 -2.407470 0
M  V30 33 H 2.282363 5.997339 -2.333685 0
M  V30 34 H 2.972504 4.263891 -0.368537 0
M  V30 35 H 1.485480 2.044832 0.797704 0
M  V30 36 H -2.862871 0.806842 1.056453 0
M  V30 37 H -3.726239 -2.026625 2.164496 0
M  V30 38 H -4.066178 -0.596216 3.300388 0
M  V30 END ATOM
M  V30 BEGIN BOND
M  V30 1 1 1 2
M  V30 2 1 2 3
M  V30 3 1 3 4
M  V30 4 2 4 5
M  V30 5 1 4 6
M  V30 6 1 6 7
M  V30 7 2 7 8
M  V30 8 1 8 9
M  V30 9 1 9 10
M  V30 10 2 10 11
M  V30 11 1 11 12
M  V30 12 2 12 13
M  V30 13 1 13 14
M  V30 14 1 14 15
M  V30 15 2 15 16
M  V30 16 1 16 17
M  V30 17 2 17 18
M  V30 18 2 9 19
M  V30 19 1 19 20
M  V30 20 1 20 21
M  V30 21 2 20 22
M  V30 22 1 22 7
M  V30 23 1 18 10
M  V30 24 1 17 13
M  V30 25 1 1 23
M  V30 26 1 1 24
M  V30 27 1 1 25
M  V30 28 1 2 26
M  V30 29 1 3 27
M  V30 30 1 3 28
M  V30 31 1 6 29
M  V30 32 1 8 30
M  V30 33 1 11 31
M  V30 34 1 12 32
M  V30 35 1 15 33
M  V30 36 1 16 34
M  V30 37 1 18 35
M  V30 38 1 19 36
M  V30 39 1 21 37
M  V30 40 1 21 38
M  V30 END BOND
M  V30 END CTAB
M  END
>  <Dataset>  (605) 
ChEMBL_Kinases

>  <Ligand_Instance>  (605) 
nan

>  <PDB_ID>  (605) 
nan

>  <Standardized_SMILES>  (605) 
CNCC(=O)Nc1cc(-c2ccc3occc3c2)cc(N)n1

>  <Name>  (605) 
nan

>  <Pocket>  (605) 
nan

>  <ATP_Site>  (605) 
nan

>  <Peripheral>  (605) 
nan

>  <Num_H_Atoms_ProtBoundConf>  (605) 
nan

>  <Num_Resolved_Atoms>  (605) 
nan

>  <Num_Not_Resolved_Atoms>  (605) 
nan

$$$$
CHEMBL3798568
     RDKit          3D

  0  0  0  0  0  0  0  0  0  0999 V3000
M  V30 BEGIN CTAB
M  V30 COUNTS 57 61 0 0 0
M  V30 BEGIN ATOM
M  V30 1 C -6.247852 -1.942234 3.439173 0
M  V30 2 N -5.288067 -2.566015 2.534551 0
M  V30 3 C -4.131336 -1.946130 2.156951 0
M  V30 4 C -3.436072 -2.783080 1.301628 0
M  V30 5 C -2.150941 -2.463333 0.690369 0
M  V30 6 C -1.232106 -1.670103 1.344805 0
M  V30 7 C -0.011245 -1.351163 0.794577 0
M  V30 8 C 0.365446 -1.807701 -0.447773 0
M  V30 9 C 1.551193 -1.623444 -1.256732 0
M  V30 10 C 2.156837 -2.780147 -1.751298 0
M  V30 11 N 3.269213 -2.684182 -2.505621 0
M  V30 12 C 3.774909 -1.458161 -2.767003 0
M  V30 13 N 4.954674 -1.568701 -3.581628 0
M  V30 14 C 3.186817 -0.283462 -2.283699 0
M  V30 15 C 3.969681 0.872097 -2.750597 0
M  V30 16 F 3.977581 0.855085 -4.158593 0
M  V30 17 F 3.471159 2.091241 -2.411710 0
M  V30 18 F 5.295717 0.707582 -2.399346 0
M  V30 19 C 2.051016 -0.368187 -1.511804 0
M  V30 20 N 1.520388 0.861633 -1.068873 0
M  V30 21 C 0.572959 1.378856 -2.026910 0
M  V30 22 C 0.272919 2.850783 -1.811123 0
M  V30 23 C -0.303784 3.095180 -0.433401 0
M  V30 24 C 0.363494 2.250107 0.612209 0
M  V30 25 C 1.692583 1.712481 0.093144 0
M  V30 26 C -1.793957 2.832403 -0.519201 0
M  V30 27 N -2.312836 4.156124 -0.806789 0
M  V30 28 C -1.271812 5.116162 -0.829280 0
M  V30 29 O -1.523475 6.184252 -1.423887 0
M  V30 30 O -0.264706 4.472317 -0.125253 0
M  V30 31 C -0.577678 -2.613860 -1.103557 0
M  V30 32 C -1.801551 -2.936382 -0.557048 0
M  V30 33 C -4.212696 -3.919285 1.181085 0
M  V30 34 N -5.319268 -3.760713 1.932809 0
M  V30 35 H -6.316113 -0.866251 3.108315 0
M  V30 36 H -5.936406 -1.986607 4.483216 0
M  V30 37 H -7.235680 -2.441432 3.243924 0
M  V30 38 H -3.816760 -0.975794 2.470830 0
M  V30 39 H -1.427947 -1.261931 2.320356 0
M  V30 40 H 0.764858 -0.745468 1.238493 0
M  V30 41 H 1.718521 -3.757706 -1.519168 0
M  V30 42 H 5.039313 -1.901946 -4.579098 0
M  V30 43 H 5.044068 -1.901391 -4.579487 0
M  V30 44 H 0.976449 1.291498 -3.044242 0
M  V30 45 H -0.408905 0.865550 -1.964156 0
M  V30 46 H 1.137634 3.494200 -2.054142 0
M  V30 47 H -0.518380 3.099217 -2.576918 0
M  V30 48 H 0.658311 2.948843 1.443867 0
M  V30 49 H -0.277259 1.497395 1.059440 0
M  V30 50 H 2.187515 1.143340 0.912185 0
M  V30 51 H 2.297584 2.619991 -0.108742 0
M  V30 52 H -1.995933 2.110099 -1.345421 0
M  V30 53 H -2.149158 2.443463 0.458965 0
M  V30 54 H -3.362716 4.096925 -0.934796 0
M  V30 55 H -0.452956 -3.060899 -2.085819 0
M  V30 56 H -2.546770 -3.552406 -1.034913 0
M  V30 57 H -3.906752 -4.737741 0.570693 0
M  V30 END ATOM
M  V30 BEGIN BOND
M  V30 1 1 1 2
M  V30 2 1 2 3
M  V30 3 2 3 4
M  V30 4 1 4 5
M  V30 5 2 5 6
M  V30 6 1 6 7
M  V30 7 2 7 8
M  V30 8 1 8 9
M  V30 9 2 9 10
M  V30 10 1 10 11
M  V30 11 2 11 12
M  V30 12 1 12 13
M  V30 13 1 12 14
M  V30 14 1 14 15
M  V30 15 1 15 16
M  V30 16 1 15 17
M  V30 17 1 15 18
M  V30 18 2 14 19
M  V30 19 1 19 20
M  V30 20 1 20 21
M  V30 21 1 21 22
M  V30 22 1 22 23
M  V30 23 1 23 24
M  V30 24 1 24 25
M  V30 25 1 23 26
M  V30 26 1 26 27
M  V30 27 1 27 28
M  V30 28 2 28 29
M  V30 29 1 28 30
M  V30 30 1 8 31
M  V30 31 2 31 32
M  V30 32 1 4 33
M  V30 33 2 33 34
M  V30 34 1 34 2
M  V30 35 1 32 5
M  V30 36 1 19 9
M  V30 37 1 25 20
M  V30 38 1 30 23
M  V30 39 1 1 35
M  V30 40 1 1 36
M  V30 41 1 1 37
M  V30 42 1 3 38
M  V30 43 1 6 39
M  V30 44 1 7 40
M  V30 45 1 10 41
M  V30 46 1 13 42
M  V30 47 1 13 43
M  V30 48 1 21 44
M  V30 49 1 21 45
M  V30 50 1 22 46
M  V30 51 1 22 47
M  V30 52 1 24 48
M  V30 53 1 24 49
M  V30 54 1 25 50
M  V30 55 1 25 51
M  V30 56 1 26 52
M  V30 57 1 26 53
M  V30 58 1 27 54
M  V30 59 1 31 55
M  V30 60 1 32 56
M  V30 61 1 33 57
M  V30 END BOND
M  V30 END CTAB
M  END
>  <Dataset>  (606) 
ChEMBL_Kinases

>  <Ligand_Instance>  (606) 
nan

>  <PDB_ID>  (606) 
nan

>  <Standardized_SMILES>  (606) 
Cn1cc(-c2ccc(-c3cnc(N)c(C(F)(F)F)c3N3CCC4(CC3)CNC(=O)O4)cc2)cn1

>  <Name>  (606) 
nan

>  <Pocket>  (606) 
nan

>  <ATP_Site>  (606) 
nan

>  <Peripheral>  (606) 
nan

>  <Num_H_Atoms_ProtBoundConf>  (606) 
nan

>  <Num_Resolved_Atoms>  (606) 
nan

>  <Num_Not_Resolved_Atoms>  (606) 
nan

$$$$
CHEMBL5070298
     RDKit          3D

  0  0  0  0  0  0  0  0  0  0999 V3000
M  V30 BEGIN CTAB
M  V30 COUNTS 51 54 0 0 0
M  V30 BEGIN ATOM
M  V30 1 C 1.758248 -1.791065 6.655861 0
M  V30 2 C 2.589300 -2.908790 6.122874 0
M  V30 3 O 2.480621 -3.076552 4.702076 0
M  V30 4 C 2.828493 -2.090704 3.794289 0
M  V30 5 C 3.321085 -0.825472 4.030964 0
M  V30 6 C 3.608823 0.014070 2.976409 0
M  V30 7 N 4.090728 1.244064 3.231145 0
M  V30 8 C 4.397722 2.121045 2.254807 0
M  V30 9 N 4.224873 1.779943 0.943342 0
M  V30 10 C 3.738976 0.542461 0.655958 0
M  V30 11 N 3.503877 0.028551 -0.653416 0
M  V30 12 C 2.220905 0.300837 -1.237501 0
M  V30 13 C 1.316327 1.075002 -0.534237 0
M  V30 14 C 0.072555 1.331404 -1.116853 0
M  V30 15 C -0.249465 0.818858 -2.377639 0
M  V30 16 N -1.566577 1.204646 -2.780216 0
M  V30 17 C -2.598221 0.296736 -2.378151 0
M  V30 18 O -2.188737 -0.716844 -1.722149 0
M  V30 19 N -3.999945 0.446586 -2.653033 0
M  V30 20 C -4.888753 -0.577713 -2.160650 0
M  V30 21 C -5.353446 -0.270367 -0.877547 0
M  V30 22 C -6.216044 -1.160530 -0.271453 0
M  V30 23 C -6.605961 -2.310219 -0.906066 0
M  V30 24 C -6.134512 -2.586892 -2.165077 0
M  V30 25 C -5.271706 -1.716314 -2.795373 0
M  V30 26 C 0.669409 0.051855 -3.054469 0
M  V30 27 C 1.897419 -0.207580 -2.491489 0
M  V30 28 C 3.425420 -0.353354 1.659769 0
M  V30 29 C 2.929632 -1.628440 1.441344 0
M  V30 30 C 2.630090 -2.496779 2.470523 0
M  V30 31 F 2.152206 -3.713799 2.107819 0
M  V30 32 H 0.984692 -2.174977 7.375154 0
M  V30 33 H 2.413044 -1.053317 7.158347 0
M  V30 34 H 1.280805 -1.271484 5.799565 0
M  V30 35 H 2.430749 -3.870105 6.637749 0
M  V30 36 H 3.666197 -2.663846 6.298072 0
M  V30 37 H 3.448465 -0.583274 5.054352 0
M  V30 38 H 4.788486 3.117568 2.475884 0
M  V30 39 H 4.197105 -0.526847 -1.208706 0
M  V30 40 H 1.564647 1.475744 0.448482 0
M  V30 41 H -0.589495 1.951352 -0.500179 0
M  V30 42 H -1.935555 2.040554 -3.324701 0
M  V30 43 H -4.241564 1.322012 -3.206413 0
M  V30 44 H -5.090565 0.617602 -0.313772 0
M  V30 45 H -6.597854 -0.945412 0.736592 0
M  V30 46 H -7.281772 -3.030714 -0.459534 0
M  V30 47 H -6.424377 -3.478915 -2.682557 0
M  V30 48 H -4.851292 -1.851535 -3.782683 0
M  V30 49 H 0.322927 -0.292328 -4.012951 0
M  V30 50 H 2.593883 -0.815849 -3.056449 0
M  V30 51 H 2.785835 -1.917581 0.416546 0
M  V30 END ATOM
M  V30 BEGIN BOND
M  V30 1 1 1 2
M  V30 2 1 2 3
M  V30 3 1 3 4
M  V30 4 2 4 5
M  V30 5 1 5 6
M  V30 6 2 6 7
M  V30 7 1 7 8
M  V30 8 2 8 9
M  V30 9 1 9 10
M  V30 10 1 10 11
M  V30 11 1 11 12
M  V30 12 2 12 13
M  V30 13 1 13 14
M  V30 14 2 14 15
M  V30 15 1 15 16
M  V30 16 1 16 17
M  V30 17 2 17 18
M  V30 18 1 17 19
M  V30 19 1 19 20
M  V30 20 2 20 21
M  V30 21 1 21 22
M  V30 22 2 22 23
M  V30 23 1 23 24
M  V30 24 2 24 25
M  V30 25 1 15 26
M  V30 26 2 26 27
M  V30 27 2 10 28
M  V30 28 1 28 29
M  V30 29 2 29 30
M  V30 30 1 30 31
M  V30 31 1 30 4
M  V30 32 1 28 6
M  V30 33 1 27 12
M  V30 34 1 25 20
M  V30 35 1 1 32
M  V30 36 1 1 33
M  V30 37 1 1 34
M  V30 38 1 2 35
M  V30 39 1 2 36
M  V30 40 1 5 37
M  V30 41 1 8 38
M  V30 42 1 11 39
M  V30 43 1 13 40
M  V30 44 1 14 41
M  V30 45 1 16 42
M  V30 46 1 19 43
M  V30 47 1 21 44
M  V30 48 1 22 45
M  V30 49 1 23 46
M  V30 50 1 24 47
M  V30 51 1 25 48
M  V30 52 1 26 49
M  V30 53 1 27 50
M  V30 54 1 29 51
M  V30 END BOND
M  V30 END CTAB
M  END
>  <Dataset>  (607) 
ChEMBL_Kinases

>  <Ligand_Instance>  (607) 
nan

>  <PDB_ID>  (607) 
nan

>  <Standardized_SMILES>  (607) 
CCOc1cc2ncnc(Nc3ccc(NC(=O)Nc4ccccc4)cc3)c2cc1F

>  <Name>  (607) 
nan

>  <Pocket>  (607) 
nan

>  <ATP_Site>  (607) 
nan

>  <Peripheral>  (607) 
nan

>  <Num_H_Atoms_ProtBoundConf>  (607) 
nan

>  <Num_Resolved_Atoms>  (607) 
nan

>  <Num_Not_Resolved_Atoms>  (607) 
nan

$$$$
CHEMBL3798526
     RDKit          3D

  0  0  0  0  0  0  0  0  0  0999 V3000
M  V30 BEGIN CTAB
M  V30 COUNTS 46 49 0 0 0
M  V30 BEGIN ATOM
M  V30 1 C 1.456442 -6.402006 0.802008 0
M  V30 2 C 0.990655 -5.787473 -0.466495 0
M  V30 3 C 1.349926 -4.479479 -0.719147 0
M  V30 4 C 0.926530 -3.903165 -1.884440 0
M  V30 5 C 1.174371 -2.553263 -2.367941 0
M  V30 6 N 1.540200 -2.217193 -3.619101 0
M  V30 7 N 1.676585 -0.891343 -3.696008 0
M  V30 8 C 1.409298 -0.320028 -2.516832 0
M  V30 9 C 1.385230 0.962431 -2.011235 0
M  V30 10 C 1.058590 1.252975 -0.702479 0
M  V30 11 C 0.736759 0.223135 0.159982 0
M  V30 12 C 0.365256 0.325477 1.574522 0
M  V30 13 O 0.074057 -0.622465 2.349555 0
M  V30 14 N 0.312624 1.604421 2.185349 0
M  V30 15 C -0.013215 2.004147 3.526640 0
M  V30 16 C 1.182816 2.605093 4.189577 0
M  V30 17 C -1.239689 2.813842 3.625815 0
M  V30 18 C -2.211713 2.589324 4.590732 0
M  V30 19 C -3.374560 3.316881 4.725821 0
M  V30 20 N -3.596791 4.326373 3.861002 0
M  V30 21 C -2.671681 4.585874 2.895775 0
M  V30 22 C -1.485107 3.864512 2.736401 0
M  V30 23 C 0.758022 -1.080753 -0.342136 0
M  V30 24 C 1.088575 -1.367873 -1.664326 0
M  V30 25 C 0.152980 -4.663632 -2.760677 0
M  V30 26 C -0.185101 -5.969540 -2.471074 0
M  V30 27 N 0.238628 -6.520603 -1.322622 0
M  V30 28 H 1.613417 -7.497643 0.657732 0
M  V30 29 H 0.680975 -6.336959 1.600753 0
M  V30 30 H 2.357999 -5.880349 1.172057 0
M  V30 31 H 1.936160 -3.850409 -0.091537 0
M  V30 32 H 1.947010 -0.304821 -4.511187 0
M  V30 33 H 1.630940 1.793710 -2.655092 0
M  V30 34 H 1.025827 2.231810 -0.263056 0
M  V30 35 H 0.522747 2.502726 1.695630 0
M  V30 36 H -0.244064 1.043639 4.073366 0
M  V30 37 H 1.107544 2.450142 5.305318 0
M  V30 38 H 1.346568 3.658171 3.931890 0
M  V30 39 H 2.059182 1.981577 3.883569 0
M  V30 40 H -1.999330 1.761202 5.277422 0
M  V30 41 H -4.052436 3.029410 5.532674 0
M  V30 42 H -2.852129 5.403517 2.195642 0
M  V30 43 H -0.794033 4.115174 1.957228 0
M  V30 44 H 0.515848 -1.948844 0.276638 0
M  V30 45 H -0.230587 -4.295506 -3.709983 0
M  V30 46 H -0.783026 -6.598685 -3.119830 0
M  V30 END ATOM
M  V30 BEGIN BOND
M  V30 1 1 1 2
M  V30 2 2 2 3
M  V30 3 1 3 4
M  V30 4 1 4 5
M  V30 5 2 5 6
M  V30 6 1 6 7
M  V30 7 1 7 8
M  V30 8 2 8 9
M  V30 9 1 9 10
M  V30 10 2 10 11
M  V30 11 1 11 12
M  V30 12 2 12 13
M  V30 13 1 12 14
M  V30 14 1 14 15
M  V30 15 1 15 16
M  V30 16 1 15 17
M  V30 17 2 17 18
M  V30 18 1 18 19
M  V30 19 2 19 20
M  V30 20 1 20 21
M  V30 21 2 21 22
M  V30 22 1 11 23
M  V30 23 2 23 24
M  V30 24 2 4 25
M  V30 25 1 25 26
M  V30 26 2 26 27
M  V30 27 1 27 2
M  V30 28 1 24 5
M  V30 29 1 24 8
M  V30 30 1 22 17
M  V30 31 1 1 28
M  V30 32 1 1 29
M  V30 33 1 1 30
M  V30 34 1 3 31
M  V30 35 1 7 32
M  V30 36 1 9 33
M  V30 37 1 10 34
M  V30 38 1 14 35
M  V30 39 1 15 36
M  V30 40 1 16 37
M  V30 41 1 16 38
M  V30 42 1 16 39
M  V30 43 1 18 40
M  V30 44 1 19 41
M  V30 45 1 21 42
M  V30 46 1 22 43
M  V30 47 1 23 44
M  V30 48 1 25 45
M  V30 49 1 26 46
M  V30 END BOND
M  V30 END CTAB
M  END
>  <Dataset>  (608) 
ChEMBL_Kinases

>  <Ligand_Instance>  (608) 
nan

>  <PDB_ID>  (608) 
nan

>  <Standardized_SMILES>  (608) 
Cc1cc(-c2n[nH]c3ccc(C(=O)NC(C)c4ccncc4)cc23)ccn1

>  <Name>  (608) 
nan

>  <Pocket>  (608) 
nan

>  <ATP_Site>  (608) 
nan

>  <Peripheral>  (608) 
nan

>  <Num_H_Atoms_ProtBoundConf>  (608) 
nan

>  <Num_Resolved_Atoms>  (608) 
nan

>  <Num_Not_Resolved_Atoms>  (608) 
nan

$$$$
CHEMBL3798511
     RDKit          3D

  0  0  0  0  0  0  0  0  0  0999 V3000
M  V30 BEGIN CTAB
M  V30 COUNTS 46 49 0 0 0
M  V30 BEGIN ATOM
M  V30 1 C -0.472914 -4.893172 0.492582 0
M  V30 2 C -0.210893 -3.440822 0.914328 0
M  V30 3 C -0.062202 -3.476629 2.431712 0
M  V30 4 C 1.125034 -3.087215 0.350714 0
M  V30 5 C 1.324009 -1.640032 0.736787 0
M  V30 6 O 2.392757 -1.366889 1.310429 0
M  V30 7 C 0.284359 -0.672067 0.425679 0
M  V30 8 C 0.510029 0.654855 0.224087 0
M  V30 9 N 1.630553 1.543101 0.252707 0
M  V30 10 C 3.028546 1.539550 0.530785 0
M  V30 11 C 3.737357 2.814701 0.088507 0
M  V30 12 C 3.962025 3.657923 1.303805 0
M  V30 13 C 2.959987 3.109083 2.289616 0
M  V30 14 C 3.139862 1.612338 2.068229 0
M  V30 15 S -1.138150 1.290740 -0.138705 0
M  V30 16 C -1.982054 -0.285794 0.014380 0
M  V30 17 C -3.415071 -0.291644 -0.201577 0
M  V30 18 C -4.258109 -1.373742 -0.142218 0
M  V30 19 C -5.556254 -0.991004 -0.403854 0
M  V30 20 N -5.477872 0.332984 -0.620195 0
M  V30 21 N -4.227712 0.728188 -0.499840 0
M  V30 22 C -0.992565 -1.124574 0.313397 0
M  V30 23 C -1.342532 -2.554285 0.518692 0
M  V30 24 H 0.349401 -5.480186 0.961966 0
M  V30 25 H -1.413786 -5.286978 0.882577 0
M  V30 26 H -0.368559 -4.994536 -0.590106 0
M  V30 27 H 0.800387 -4.141784 2.665362 0
M  V30 28 H 0.102534 -2.457519 2.839708 0
M  V30 29 H -0.992055 -3.845713 2.918322 0
M  V30 30 H 1.872549 -3.738945 0.800744 0
M  V30 31 H 1.099219 -3.122410 -0.769865 0
M  V30 32 H 1.418166 2.531229 0.002038 0
M  V30 33 H 3.590224 0.689304 0.113170 0
M  V30 34 H 3.108881 3.363782 -0.659657 0
M  V30 35 H 4.700866 2.611009 -0.396144 0
M  V30 36 H 3.799688 4.746635 1.145906 0
M  V30 37 H 4.972062 3.484531 1.732888 0
M  V30 38 H 1.929838 3.388806 1.996817 0
M  V30 39 H 3.229349 3.394622 3.307072 0
M  V30 40 H 2.311794 1.049431 2.528640 0
M  V30 41 H 4.123025 1.311937 2.421662 0
M  V30 42 H -4.066671 -2.397171 0.062382 0
M  V30 43 H -6.461882 -1.561826 -0.441987 0
M  V30 44 H -6.236612 1.019478 -0.852873 0
M  V30 45 H -1.827364 -3.007710 -0.384361 0
M  V30 46 H -2.110952 -2.688050 1.343590 0
M  V30 END ATOM
M  V30 BEGIN BOND
M  V30 1 1 1 2
M  V30 2 1 2 3
M  V30 3 1 2 4
M  V30 4 1 4 5
M  V30 5 2 5 6
M  V30 6 1 5 7
M  V30 7 2 7 8
M  V30 8 1 8 9
M  V30 9 1 9 10
M  V30 10 1 10 11
M  V30 11 1 11 12
M  V30 12 1 12 13
M  V30 13 1 13 14
M  V30 14 1 8 15
M  V30 15 1 15 16
M  V30 16 1 16 17
M  V30 17 1 17 18
M  V30 18 2 18 19
M  V30 19 1 19 20
M  V30 20 1 20 21
M  V30 21 2 16 22
M  V30 22 1 22 23
M  V30 23 1 23 2
M  V30 24 1 22 7
M  V30 25 1 14 10
M  V30 26 2 21 17
M  V30 27 1 1 24
M  V30 28 1 1 25
M  V30 29 1 1 26
M  V30 30 1 3 27
M  V30 31 1 3 28
M  V30 32 1 3 29
M  V30 33 1 4 30
M  V30 34 1 4 31
M  V30 35 1 9 32
M  V30 36 1 10 33
M  V30 37 1 11 34
M  V30 38 1 11 35
M  V30 39 1 12 36
M  V30 40 1 12 37
M  V30 41 1 13 38
M  V30 42 1 13 39
M  V30 43 1 14 40
M  V30 44 1 14 41
M  V30 45 1 18 42
M  V30 46 1 19 43
M  V30 47 1 20 44
M  V30 48 1 23 45
M  V30 49 1 23 46
M  V30 END BOND
M  V30 END CTAB
M  END
>  <Dataset>  (609) 
ChEMBL_Kinases

>  <Ligand_Instance>  (609) 
nan

>  <PDB_ID>  (609) 
nan

>  <Standardized_SMILES>  (609) 
CC1(C)CC(=O)c2c(NC3CCCC3)sc(-c3cc[nH]n3)c2C1

>  <Name>  (609) 
nan

>  <Pocket>  (609) 
nan

>  <ATP_Site>  (609) 
nan

>  <Peripheral>  (609) 
nan

>  <Num_H_Atoms_ProtBoundConf>  (609) 
nan

>  <Num_Resolved_Atoms>  (609) 
nan

>  <Num_Not_Resolved_Atoms>  (609) 
nan

$$$$
CHEMBL507056
     RDKit          3D

  0  0  0  0  0  0  0  0  0  0999 V3000
M  V30 BEGIN CTAB
M  V30 COUNTS 42 45 0 0 0
M  V30 BEGIN ATOM
M  V30 1 C 1.820043 -6.473582 2.712056 0
M  V30 2 O 1.368445 -5.856815 1.520482 0
M  V30 3 C 0.770910 -4.605814 1.556224 0
M  V30 4 C 0.597384 -3.928982 2.743314 0
M  V30 5 C 0.000932 -2.688152 2.740970 0
M  V30 6 C -0.454896 -2.045378 1.585434 0
M  V30 7 C -1.061967 -0.733312 1.756310 0
M  V30 8 C -0.896088 0.404894 1.070732 0
M  V30 9 C -0.108913 0.844626 -0.068704 0
M  V30 10 C 0.075569 0.386881 -1.351543 0
M  V30 11 N 0.948775 1.124182 -2.038396 0
M  V30 12 C 1.366564 0.910035 -3.412716 0
M  V30 13 C 1.393895 2.113601 -1.248620 0
M  V30 14 C 2.302298 3.162228 -1.424744 0
M  V30 15 C 2.568011 4.044288 -0.396390 0
M  V30 16 C 1.927222 3.879312 0.806872 0
M  V30 17 C 1.029768 2.849777 0.992747 0
M  V30 18 C 0.752138 1.952378 -0.038555 0
M  V30 19 C -1.778281 1.416023 1.680575 0
M  V30 20 O -2.048439 2.618809 1.478775 0
M  V30 21 N -2.457554 0.794649 2.755332 0
M  V30 22 C -2.072631 -0.570871 2.861211 0
M  V30 23 C -0.254078 -2.772542 0.434360 0
M  V30 24 C 0.335595 -4.008997 0.397795 0
M  V30 25 H 2.456396 -5.748670 3.289452 0
M  V30 26 H 2.401584 -7.387105 2.455191 0
M  V30 27 H 0.973909 -6.741239 3.368502 0
M  V30 28 H 0.944368 -4.413722 3.642089 0
M  V30 29 H -0.095091 -2.231397 3.718805 0
M  V30 30 H -0.419004 -0.450368 -1.776469 0
M  V30 31 H 0.664251 0.233829 -3.950365 0
M  V30 32 H 2.398571 0.551377 -3.468336 0
M  V30 33 H 1.317891 1.867529 -4.000901 0
M  V30 34 H 2.792620 3.267633 -2.381158 0
M  V30 35 H 3.281367 4.869925 -0.530336 0
M  V30 36 H 2.174923 4.603086 1.586827 0
M  V30 37 H 0.603714 2.829815 1.982677 0
M  V30 38 H -3.145941 1.049716 3.475663 0
M  V30 39 H -2.917464 -1.281517 2.715982 0
M  V30 40 H -1.555078 -0.788927 3.806898 0
M  V30 41 H -0.589852 -2.335190 -0.464074 0
M  V30 42 H 0.453027 -4.504558 -0.552255 0
M  V30 END ATOM
M  V30 BEGIN BOND
M  V30 1 1 1 2
M  V30 2 1 2 3
M  V30 3 2 3 4
M  V30 4 1 4 5
M  V30 5 2 5 6
M  V30 6 1 6 7
M  V30 7 2 7 8
M  V30 8 1 8 9
M  V30 9 2 9 10
M  V30 10 1 10 11
M  V30 11 1 11 12
M  V30 12 1 11 13
M  V30 13 2 13 14
M  V30 14 1 14 15
M  V30 15 2 15 16
M  V30 16 1 16 17
M  V30 17 2 17 18
M  V30 18 1 8 19
M  V30 19 2 19 20
M  V30 20 1 19 21
M  V30 21 1 21 22
M  V30 22 1 6 23
M  V30 23 2 23 24
M  V30 24 1 24 3
M  V30 25 1 22 7
M  V30 26 1 18 9
M  V30 27 1 18 13
M  V30 28 1 1 25
M  V30 29 1 1 26
M  V30 30 1 1 27
M  V30 31 1 4 28
M  V30 32 1 5 29
M  V30 33 1 10 30
M  V30 34 1 12 31
M  V30 35 1 12 32
M  V30 36 1 12 33
M  V30 37 1 14 34
M  V30 38 1 15 35
M  V30 39 1 16 36
M  V30 40 1 17 37
M  V30 41 1 21 38
M  V30 42 1 22 39
M  V30 43 1 22 40
M  V30 44 1 23 41
M  V30 45 1 24 42
M  V30 END BOND
M  V30 END CTAB
M  END
>  <Dataset>  (610) 
ChEMBL_Kinases

>  <Ligand_Instance>  (610) 
nan

>  <PDB_ID>  (610) 
nan

>  <Standardized_SMILES>  (610) 
COc1ccc(C2=C(c3cn(C)c4ccccc34)C(=O)NC2)cc1

>  <Name>  (610) 
nan

>  <Pocket>  (610) 
nan

>  <ATP_Site>  (610) 
nan

>  <Peripheral>  (610) 
nan

>  <Num_H_Atoms_ProtBoundConf>  (610) 
nan

>  <Num_Resolved_Atoms>  (610) 
nan

>  <Num_Not_Resolved_Atoms>  (610) 
nan

$$$$
CHEMBL3798436
     RDKit          3D

  0  0  0  0  0  0  0  0  0  0999 V3000
M  V30 BEGIN CTAB
M  V30 COUNTS 35 38 0 0 0
M  V30 BEGIN ATOM
M  V30 1 C 0.623075 0.579207 5.416596 0
M  V30 2 S 1.888081 1.163374 4.229863 0
M  V30 3 C 1.647090 0.275684 2.641180 0
M  V30 4 S 2.415101 -1.333420 2.139772 0
M  V30 5 C 1.650860 -1.350914 0.611060 0
M  V30 6 C 1.854500 -2.445267 -0.357849 0
M  V30 7 C 2.667528 -3.530630 -0.113605 0
M  V30 8 C 2.622684 -4.360092 -1.241112 0
M  V30 9 N 1.795759 -3.752299 -2.110999 0
M  V30 10 N 1.355920 -2.629271 -1.571866 0
M  V30 11 C 0.867745 -0.212796 0.492316 0
M  V30 12 C 0.863619 0.632740 1.544121 0
M  V30 13 C 0.051198 1.844676 1.496752 0
M  V30 14 O -0.001327 2.680014 2.434829 0
M  V30 15 N -0.709349 2.066080 0.314400 0
M  V30 16 C -1.151384 0.849196 -0.354139 0
M  V30 17 C -2.160495 0.123012 0.483052 0
M  V30 18 C -3.016558 0.016819 -0.785381 0
M  V30 19 C -2.150878 1.091989 -1.455610 0
M  V30 20 C 0.073728 0.096190 -0.724780 0
M  V30 21 H 0.583575 1.278491 6.250392 0
M  V30 22 H 0.878260 -0.463244 5.704779 0
M  V30 23 H -0.367640 0.498302 4.913986 0
M  V30 24 H 3.279184 -3.804495 0.749903 0
M  V30 25 H 3.120944 -5.290668 -1.423894 0
M  V30 26 H 1.475944 -4.011854 -3.066996 0
M  V30 27 H -0.919459 3.037672 -0.023526 0
M  V30 28 H -1.872708 -0.877056 0.859843 0
M  V30 29 H -2.626351 0.704068 1.288749 0
M  V30 30 H -2.909507 -0.978763 -1.275915 0
M  V30 31 H -4.039245 0.318873 -0.560779 0
M  V30 32 H -2.616506 2.104176 -1.310327 0
M  V30 33 H -1.856831 0.837428 -2.471128 0
M  V30 34 H 0.711897 0.761336 -1.355917 0
M  V30 35 H -0.134292 -0.790012 -1.338481 0
M  V30 END ATOM
M  V30 BEGIN BOND
M  V30 1 1 1 2
M  V30 2 1 2 3
M  V30 3 1 3 4
M  V30 4 1 4 5
M  V30 5 1 5 6
M  V30 6 1 6 7
M  V30 7 2 7 8
M  V30 8 1 8 9
M  V30 9 1 9 10
M  V30 10 2 5 11
M  V30 11 1 11 12
M  V30 12 1 12 13
M  V30 13 2 13 14
M  V30 14 1 13 15
M  V30 15 1 15 16
M  V30 16 1 16 17
M  V30 17 1 17 18
M  V30 18 1 18 19
M  V30 19 1 16 20
M  V30 20 2 12 3
M  V30 21 1 19 16
M  V30 22 2 10 6
M  V30 23 1 20 11
M  V30 24 1 1 21
M  V30 25 1 1 22
M  V30 26 1 1 23
M  V30 27 1 7 24
M  V30 28 1 8 25
M  V30 29 1 9 26
M  V30 30 1 15 27
M  V30 31 1 17 28
M  V30 32 1 17 29
M  V30 33 1 18 30
M  V30 34 1 18 31
M  V30 35 1 19 32
M  V30 36 1 19 33
M  V30 37 1 20 34
M  V30 38 1 20 35
M  V30 END BOND
M  V30 END CTAB
M  END
>  <Dataset>  (611) 
ChEMBL_Kinases

>  <Ligand_Instance>  (611) 
nan

>  <PDB_ID>  (611) 
nan

>  <Standardized_SMILES>  (611) 
CSc1sc(-c2cc[nH]n2)c2c1C(=O)NC1(CCC1)C2

>  <Name>  (611) 
nan

>  <Pocket>  (611) 
nan

>  <ATP_Site>  (611) 
nan

>  <Peripheral>  (611) 
nan

>  <Num_H_Atoms_ProtBoundConf>  (611) 
nan

>  <Num_Resolved_Atoms>  (611) 
nan

>  <Num_Not_Resolved_Atoms>  (611) 
nan

$$$$
CHEMBL3798430
     RDKit          3D

  0  0  0  0  0  0  0  0  0  0999 V3000
M  V30 BEGIN CTAB
M  V30 COUNTS 57 61 0 0 0
M  V30 BEGIN ATOM
M  V30 1 C 0.982877 -7.304781 -1.824444 0
M  V30 2 C 1.325190 -5.855314 -2.012911 0
M  V30 3 N 1.260256 -4.878556 -1.067941 0
M  V30 4 C 1.644654 -3.706371 -1.610259 0
M  V30 5 C 1.738903 -2.386255 -0.993053 0
M  V30 6 C 2.155627 -1.275764 -1.697351 0
M  V30 7 C 2.226937 -0.034458 -1.054809 0
M  V30 8 C 1.885141 0.124407 0.299254 0
M  V30 9 C 2.075040 1.505516 0.651923 0
M  V30 10 C 3.231706 2.204365 0.365917 0
M  V30 11 N 3.380387 3.496516 0.712201 0
M  V30 12 C 2.387734 4.165807 1.361962 0
M  V30 13 C 1.206548 3.480751 1.663082 0
M  V30 14 Cl 0.030831 4.483952 2.499732 0
M  V30 15 C 1.050449 2.137141 1.303600 0
M  V30 16 N -0.231351 1.684821 1.719281 0
M  V30 17 C -0.702823 1.074769 2.972010 0
M  V30 18 C -1.647343 -0.022223 2.572230 0
M  V30 19 C -2.894449 0.722906 2.089716 0
M  V30 20 C -3.551587 1.442200 3.237440 0
M  V30 21 C -5.024688 1.098207 3.133270 0
M  V30 22 N -4.952365 -0.278357 2.672492 0
M  V30 23 C -3.889789 -0.310856 1.716203 0
M  V30 24 O -3.706339 -1.039968 0.688173 0
M  V30 25 C -2.592250 1.610741 0.928122 0
M  V30 26 C -1.173650 1.909237 0.655950 0
M  V30 27 C 1.473937 -1.006709 0.969781 0
M  V30 28 C 1.403821 -2.228339 0.336622 0
M  V30 29 C 1.954191 -3.975666 -2.928250 0
M  V30 30 N 1.758908 -5.298422 -3.181028 0
M  V30 31 C 1.955165 -6.030640 -4.424551 0
M  V30 32 H -0.041527 -7.440535 -2.207590 0
M  V30 33 H 0.959161 -7.520586 -0.748655 0
M  V30 34 H 1.730803 -7.927279 -2.358389 0
M  V30 35 H 2.399117 -1.468663 -2.719842 0
M  V30 36 H 2.577502 0.722316 -1.776079 0
M  V30 37 H 4.001834 1.653542 -0.148242 0
M  V30 38 H 2.579306 5.197076 1.606315 0
M  V30 39 H -1.246693 1.799585 3.604437 0
M  V30 40 H 0.150960 0.719750 3.578045 0
M  V30 41 H -1.960466 -0.666533 3.409672 0
M  V30 42 H -1.287626 -0.573985 1.695883 0
M  V30 43 H -3.371612 2.536619 3.210431 0
M  V30 44 H -3.160085 1.001171 4.178830 0
M  V30 45 H -5.501309 1.750945 2.370337 0
M  V30 46 H -5.549723 1.161584 4.089159 0
M  V30 47 H -5.484647 -1.165899 2.891313 0
M  V30 48 H -3.201268 2.544443 1.090173 0
M  V30 49 H -3.038159 1.159921 0.017250 0
M  V30 50 H -1.113356 3.004679 0.384526 0
M  V30 51 H -0.808071 1.366896 -0.239934 0
M  V30 52 H 1.247450 -0.763889 1.991073 0
M  V30 53 H 1.066551 -3.041301 0.969036 0
M  V30 54 H 2.304402 -3.311524 -3.715655 0
M  V30 55 H 1.243504 -6.885432 -4.472242 0
M  V30 56 H 2.966943 -6.505950 -4.456346 0
M  V30 57 H 1.837353 -5.369360 -5.306777 0
M  V30 END ATOM
M  V30 BEGIN BOND
M  V30 1 1 1 2
M  V30 2 2 2 3
M  V30 3 1 3 4
M  V30 4 1 4 5
M  V30 5 2 5 6
M  V30 6 1 6 7
M  V30 7 2 7 8
M  V30 8 1 8 9
M  V30 9 2 9 10
M  V30 10 1 10 11
M  V30 11 2 11 12
M  V30 12 1 12 13
M  V30 13 1 13 14
M  V30 14 2 13 15
M  V30 15 1 15 16
M  V30 16 1 16 17
M  V30 17 1 17 18
M  V30 18 1 18 19
M  V30 19 1 19 20
M  V30 20 1 20 21
M  V30 21 1 21 22
M  V30 22 1 22 23
M  V30 23 2 23 24
M  V30 24 1 19 25
M  V30 25 1 25 26
M  V30 26 1 8 27
M  V30 27 2 27 28
M  V30 28 2 4 29
M  V30 29 1 29 30
M  V30 30 1 30 31
M  V30 31 1 30 2
M  V30 32 1 28 5
M  V30 33 1 15 9
M  V30 34 1 26 16
M  V30 35 1 23 19
M  V30 36 1 1 32
M  V30 37 1 1 33
M  V30 38 1 1 34
M  V30 39 1 6 35
M  V30 40 1 7 36
M  V30 41 1 10 37
M  V30 42 1 12 38
M  V30 43 1 17 39
M  V30 44 1 17 40
M  V30 45 1 18 41
M  V30 46 1 18 42
M  V30 47 1 20 43
M  V30 48 1 20 44
M  V30 49 1 21 45
M  V30 50 1 21 46
M  V30 51 1 22 47
M  V30 52 1 25 48
M  V30 53 1 25 49
M  V30 54 1 26 50
M  V30 55 1 26 51
M  V30 56 1 27 52
M  V30 57 1 28 53
M  V30 58 1 29 54
M  V30 59 1 31 55
M  V30 60 1 31 56
M  V30 61 1 31 57
M  V30 END BOND
M  V30 END CTAB
M  END
>  <Dataset>  (612) 
ChEMBL_Kinases

>  <Ligand_Instance>  (612) 
nan

>  <PDB_ID>  (612) 
nan

>  <Standardized_SMILES>  (612) 
Cc1nc(-c2ccc(-c3cncc(Cl)c3N3CCC4(CCNC4=O)CC3)cc2)cn1C

>  <Name>  (612) 
nan

>  <Pocket>  (612) 
nan

>  <ATP_Site>  (612) 
nan

>  <Peripheral>  (612) 
nan

>  <Num_H_Atoms_ProtBoundConf>  (612) 
nan

>  <Num_Resolved_Atoms>  (612) 
nan

>  <Num_Not_Resolved_Atoms>  (612) 
nan

$$$$
CHEMBL3702237
     RDKit          3D

  0  0  0  0  0  0  0  0  0  0999 V3000
M  V30 BEGIN CTAB
M  V30 COUNTS 54 58 0 0 0
M  V30 BEGIN ATOM
M  V30 1 C 0.030892 -1.395074 2.390546 0
M  V30 2 C 0.989265 -0.958995 3.456493 0
M  V30 3 C 2.428138 -0.976895 3.105536 0 CFG=2
M  V30 4 C 3.225743 -0.520993 4.337274 0
M  V30 5 N 2.833196 -0.095662 2.051766 0
M  V30 6 C 4.127307 -0.061138 1.721258 0
M  V30 7 C 5.300976 -0.679818 2.143209 0
M  V30 8 N 6.518412 -0.463922 1.636686 0
M  V30 9 C 6.682401 0.411656 0.636012 0
M  V30 10 C 5.579580 1.087131 0.136262 0
M  V30 11 C 4.335144 0.831304 0.693384 0
M  V30 12 C 3.121484 1.390693 0.352076 0
M  V30 13 C 2.651856 2.314410 -0.557474 0
M  V30 14 N 1.322511 2.629524 -0.602255 0
M  V30 15 C 0.483197 2.013978 0.266528 0
M  V30 16 N -0.937001 2.255499 0.300447 0
M  V30 17 C -1.775402 1.220888 -0.261245 0
M  V30 18 C -3.158322 1.321728 -0.313282 0
M  V30 19 C -3.931240 0.296497 -0.834781 0
M  V30 20 C -3.329563 -0.845038 -1.313033 0
M  V30 21 N -4.040121 -1.949866 -1.851114 0
M  V30 22 C -5.474154 -2.092751 -2.011335 0
M  V30 23 C -5.725932 -3.512075 -1.558537 0
M  V30 24 C -4.379932 -4.191237 -1.652469 0 CFG=1
M  V30 25 O -4.519917 -5.337414 -2.421114 0
M  V30 26 C -3.469828 -3.186383 -2.345194 0
M  V30 27 N -1.973293 -0.908974 -1.248100 0
M  V30 28 N -1.238647 0.067023 -0.751018 0
M  V30 29 N 0.952783 1.115984 1.147739 0
M  V30 30 C 2.249902 0.778980 1.222160 0
M  V30 31 H -0.801143 -0.661627 2.287540 0
M  V30 32 H 0.576365 -1.621125 1.477248 0
M  V30 33 H -0.496397 -2.365008 2.662750 0
M  V30 34 H 0.825429 -1.650023 4.336975 0
M  V30 35 H 0.726824 0.049056 3.872536 0
M  V30 36 H 2.817262 -1.988688 2.860210 0
M  V30 37 H 2.495955 -0.082911 5.041295 0
M  V30 38 H 3.948514 0.269756 4.103012 0
M  V30 39 H 3.690684 -1.375827 4.856825 0
M  V30 40 H 5.244928 -1.395914 2.950786 0
M  V30 41 H 7.681594 0.568849 0.242857 0
M  V30 42 H 5.678034 1.798959 -0.670408 0
M  V30 43 H 3.352717 2.782132 -1.231093 0
M  V30 44 H -1.445266 3.084453 0.680706 0
M  V30 45 H -3.631538 2.233478 0.069666 0
M  V30 46 H -5.002839 0.387706 -0.870072 0
M  V30 47 H -6.019825 -1.360813 -1.365644 0
M  V30 48 H -5.789294 -1.996571 -3.069712 0
M  V30 49 H -6.098618 -3.534456 -0.496708 0
M  V30 50 H -6.484659 -4.019855 -2.202378 0
M  V30 51 H -3.985393 -4.479105 -0.664486 0
M  V30 52 H -4.242478 -6.112258 -1.875785 0
M  V30 53 H -2.418339 -3.290426 -2.027215 0
M  V30 54 H -3.610993 -3.322292 -3.436628 0
M  V30 END ATOM
M  V30 BEGIN BOND
M  V30 1 1 1 2
M  V30 2 1 2 3
M  V30 3 1 3 4
M  V30 4 1 3 5
M  V30 5 1 5 6
M  V30 6 2 6 7
M  V30 7 1 7 8
M  V30 8 2 8 9
M  V30 9 1 9 10
M  V30 10 2 10 11
M  V30 11 1 11 12
M  V30 12 2 12 13
M  V30 13 1 13 14
M  V30 14 2 14 15
M  V30 15 1 15 16
M  V30 16 1 16 17
M  V30 17 2 17 18
M  V30 18 1 18 19
M  V30 19 2 19 20
M  V30 20 1 20 21
M  V30 21 1 21 22
M  V30 22 1 22 23
M  V30 23 1 23 24
M  V30 24 1 24 25
M  V30 25 1 24 26
M  V30 26 1 20 27
M  V30 27 2 27 28
M  V30 28 1 15 29
M  V30 29 2 29 30
M  V30 30 1 30 5
M  V30 31 1 11 6
M  V30 32 1 30 12
M  V30 33 1 28 17
M  V30 34 1 26 21
M  V30 35 1 1 31
M  V30 36 1 1 32
M  V30 37 1 1 33
M  V30 38 1 2 34
M  V30 39 1 2 35
M  V30 40 1 3 36 CFG=3
M  V30 41 1 4 37
M  V30 42 1 4 38
M  V30 43 1 4 39
M  V30 44 1 7 40
M  V30 45 1 9 41
M  V30 46 1 10 42
M  V30 47 1 13 43
M  V30 48 1 16 44
M  V30 49 1 18 45
M  V30 50 1 19 46
M  V30 51 1 22 47
M  V30 52 1 22 48
M  V30 53 1 23 49
M  V30 54 1 23 50
M  V30 55 1 24 51 CFG=1
M  V30 56 1 25 52
M  V30 57 1 26 53
M  V30 58 1 26 54
M  V30 END BOND
M  V30 END CTAB
M  END
>  <Dataset>  (613) 
ChEMBL_Kinases

>  <Ligand_Instance>  (613) 
nan

>  <PDB_ID>  (613) 
nan

>  <Standardized_SMILES>  (613) 
CC[C@H](C)n1c2cnccc2c2cnc(Nc3ccc(N4CC[C@@H](O)C4)nn3)nc21

>  <Name>  (613) 
nan

>  <Pocket>  (613) 
nan

>  <ATP_Site>  (613) 
nan

>  <Peripheral>  (613) 
nan

>  <Num_H_Atoms_ProtBoundConf>  (613) 
nan

>  <Num_Resolved_Atoms>  (613) 
nan

>  <Num_Not_Resolved_Atoms>  (613) 
nan

$$$$
CHEMBL3702239
     RDKit          3D

  0  0  0  0  0  0  0  0  0  0999 V3000
M  V30 BEGIN CTAB
M  V30 COUNTS 59 64 0 0 0
M  V30 BEGIN ATOM
M  V30 1 C 3.419331 -2.364233 7.159847 0
M  V30 2 C 3.452399 -1.810317 5.752249 0 CFG=1
M  V30 3 C 3.324015 -2.918636 4.728040 0
M  V30 4 N 2.239097 -2.514375 3.825559 0
M  V30 5 C 2.242085 -2.219717 2.413194 0
M  V30 6 C 1.256122 -1.390019 1.934465 0
M  V30 7 C 1.302371 -1.149645 0.552467 0
M  V30 8 C 2.263650 -1.701891 -0.276530 0
M  V30 9 N 2.262166 -1.407473 -1.690942 0
M  V30 10 C 1.246742 -0.479449 -2.041430 0
M  V30 11 N 1.823360 0.739307 -2.234919 0
M  V30 12 C 1.046028 1.796895 -2.548109 0
M  V30 13 C -0.310848 1.564747 -2.652713 0
M  V30 14 C -1.307176 2.463136 -2.946553 0
M  V30 15 C -1.327656 3.810517 -3.226379 0
M  V30 16 C -2.471161 4.532713 -3.494713 0
M  V30 17 N -3.625441 3.835255 -3.472408 0
M  V30 18 C -3.614455 2.519002 -3.200390 0
M  V30 19 C -2.463808 1.765831 -2.924145 0
M  V30 20 N -2.245965 0.469311 -2.630643 0
M  V30 21 C -3.226929 -0.546397 -2.513414 0 CFG=2
M  V30 22 C -2.969006 -1.610894 -1.507413 0
M  V30 23 C -3.650087 -2.810436 -2.129884 0
M  V30 24 N -4.430481 -2.339742 -3.250075 0
M  V30 25 C -3.560694 -1.281193 -3.788363 0
M  V30 26 C -0.919852 0.339286 -2.462175 0
M  V30 27 N -0.090473 -0.654376 -2.157561 0
M  V30 28 N 3.183372 -2.500431 0.293096 0
M  V30 29 C 3.232215 -2.797300 1.605659 0
M  V30 30 C 0.994356 -2.448363 4.609573 0
M  V30 31 C 1.111286 -1.211258 5.452819 0
M  V30 32 N 2.463954 -0.780304 5.645302 0
M  V30 33 H 2.439514 -2.853160 7.357258 0
M  V30 34 H 4.183501 -3.155981 7.334476 0
M  V30 35 H 3.510862 -1.534501 7.889535 0
M  V30 36 H 4.455050 -1.339838 5.586994 0
M  V30 37 H 4.269548 -3.116859 4.181790 0
M  V30 38 H 2.988289 -3.830411 5.260477 0
M  V30 39 H 0.482457 -0.932078 2.531711 0
M  V30 40 H 0.514742 -0.487569 0.185862 0
M  V30 41 H 2.949044 -1.858526 -2.310879 0
M  V30 42 H 1.444789 2.798318 -2.715910 0
M  V30 43 H -0.371210 4.327173 -3.230989 0
M  V30 44 H -2.346682 5.591130 -3.700101 0
M  V30 45 H -4.583789 2.042687 -3.204085 0
M  V30 46 H -4.195045 -0.058207 -2.182525 0
M  V30 47 H -3.478882 -1.426742 -0.528405 0
M  V30 48 H -1.942191 -1.877197 -1.300061 0
M  V30 49 H -4.244566 -3.405201 -1.393946 0
M  V30 50 H -2.877810 -3.518911 -2.545612 0
M  V30 51 H -5.306723 -1.883982 -2.904446 0
M  V30 52 H -2.680998 -1.725226 -4.284064 0
M  V30 53 H -4.157997 -0.602525 -4.443687 0
M  V30 54 H 3.976273 -3.439688 2.047871 0
M  V30 55 H 0.865617 -3.389613 5.204668 0
M  V30 56 H 0.170672 -2.412570 3.873840 0
M  V30 57 H 0.548043 -0.394263 4.959599 0
M  V30 58 H 0.674448 -1.468452 6.451673 0
M  V30 59 H 2.733396 0.037705 5.064992 0
M  V30 END ATOM
M  V30 BEGIN BOND
M  V30 1 1 1 2
M  V30 2 1 2 3
M  V30 3 1 3 4
M  V30 4 1 4 5
M  V30 5 2 5 6
M  V30 6 1 6 7
M  V30 7 2 7 8
M  V30 8 1 8 9
M  V30 9 1 9 10
M  V30 10 2 10 11
M  V30 11 1 11 12
M  V30 12 2 12 13
M  V30 13 1 13 14
M  V30 14 2 14 15
M  V30 15 1 15 16
M  V30 16 2 16 17
M  V30 17 1 17 18
M  V30 18 2 18 19
M  V30 19 1 19 20
M  V30 20 1 20 21
M  V30 21 1 21 22
M  V30 22 1 22 23
M  V30 23 1 23 24
M  V30 24 1 24 25
M  V30 25 1 20 26
M  V30 26 2 26 27
M  V30 27 1 8 28
M  V30 28 2 28 29
M  V30 29 1 4 30
M  V30 30 1 30 31
M  V30 31 1 31 32
M  V30 32 1 32 2
M  V30 33 1 29 5
M  V30 34 1 27 10
M  V30 35 1 26 13
M  V30 36 1 19 14
M  V30 37 1 25 21
M  V30 38 1 1 33
M  V30 39 1 1 34
M  V30 40 1 1 35
M  V30 41 1 2 36 CFG=3
M  V30 42 1 3 37
M  V30 43 1 3 38
M  V30 44 1 6 39
M  V30 45 1 7 40
M  V30 46 1 9 41
M  V30 47 1 12 42
M  V30 48 1 15 43
M  V30 49 1 16 44
M  V30 50 1 18 45
M  V30 51 1 21 46 CFG=1
M  V30 52 1 22 47
M  V30 53 1 22 48
M  V30 54 1 23 49
M  V30 55 1 23 50
M  V30 56 1 24 51
M  V30 57 1 25 52
M  V30 58 1 25 53
M  V30 59 1 29 54
M  V30 60 1 30 55
M  V30 61 1 30 56
M  V30 62 1 31 57
M  V30 63 1 31 58
M  V30 64 1 32 59
M  V30 END BOND
M  V30 END CTAB
M  END
>  <Dataset>  (614) 
ChEMBL_Kinases

>  <Ligand_Instance>  (614) 
nan

>  <PDB_ID>  (614) 
nan

>  <Standardized_SMILES>  (614) 
C[C@H]1CN(c2ccc(Nc3ncc4c5ccncc5n([C@@H]5CCNC5)c4n3)nc2)CCN1

>  <Name>  (614) 
nan

>  <Pocket>  (614) 
nan

>  <ATP_Site>  (614) 
nan

>  <Peripheral>  (614) 
nan

>  <Num_H_Atoms_ProtBoundConf>  (614) 
nan

>  <Num_Resolved_Atoms>  (614) 
nan

>  <Num_Not_Resolved_Atoms>  (614) 
nan

$$$$
CHEMBL3798587
     RDKit          3D

  0  0  0  0  0  0  0  0  0  0999 V3000
M  V30 BEGIN CTAB
M  V30 COUNTS 57 61 0 0 0
M  V30 BEGIN ATOM
M  V30 1 C 1.222077 -2.537963 2.102872 0
M  V30 2 N 2.092536 -1.429191 2.377580 0
M  V30 3 C 3.223302 -1.740689 3.193620 0
M  V30 4 C 4.438543 -1.757245 2.304211 0
M  V30 5 C 4.018063 -1.067938 1.038271 0
M  V30 6 C 2.549107 -0.737350 1.210684 0
M  V30 7 C 2.334218 0.740375 1.465878 0
M  V30 8 C 0.930805 1.067192 1.009057 0
M  V30 9 N 0.858195 0.950324 -0.456780 0
M  V30 10 C -0.113729 1.808498 -0.985557 0
M  V30 11 C 0.447134 3.051102 -1.304311 0
M  V30 12 Cl 2.141837 3.492642 -1.092895 0
M  V30 13 C -0.327279 4.086962 -1.839546 0
M  V30 14 N -1.650093 3.877704 -2.052434 0
M  V30 15 C -2.207734 2.691509 -1.753016 0
M  V30 16 C -1.459191 1.662688 -1.225953 0
M  V30 17 C -2.028257 0.368165 -0.894310 0
M  V30 18 C -3.189699 0.564787 -0.127735 0
M  V30 19 C -3.912074 -0.558187 0.299903 0
M  V30 20 C -3.543750 -1.854983 0.008049 0
M  V30 21 C -2.418820 -2.012190 -0.733305 0
M  V30 22 C -1.680544 -0.935910 -1.173347 0
M  V30 23 C -1.962927 -3.397400 -1.084993 0
M  V30 24 S -3.406019 -4.319776 -0.602464 0
M  V30 25 O -3.025991 -5.487585 0.265731 0
M  V30 26 O -4.248463 -4.732821 -1.770355 0
M  V30 27 N -4.153597 -3.090910 0.357534 0
M  V30 28 C -5.190800 -3.354873 1.307936 0
M  V30 29 C 1.809544 -0.008056 -1.004535 0
M  V30 30 C 1.850081 -1.181796 -0.054910 0
M  V30 31 H 1.541648 -3.168520 1.268343 0
M  V30 32 H 0.186794 -2.118767 1.990662 0
M  V30 33 H 1.189702 -3.170736 3.014310 0
M  V30 34 H 3.379211 -0.876792 3.902242 0
M  V30 35 H 3.112487 -2.643882 3.795137 0
M  V30 36 H 5.298374 -1.182326 2.727248 0
M  V30 37 H 4.740853 -2.829360 2.142292 0
M  V30 38 H 4.171225 -1.808383 0.212530 0
M  V30 39 H 4.632748 -0.173908 0.814935 0
M  V30 40 H 3.094512 1.388755 0.995055 0
M  V30 41 H 2.391488 0.910415 2.557095 0
M  V30 42 H 0.679140 2.057894 1.381360 0
M  V30 43 H 0.278603 0.245112 1.396022 0
M  V30 44 H 0.052585 5.050777 -2.098752 0
M  V30 45 H -3.259302 2.475133 -1.904500 0
M  V30 46 H -3.628395 1.506416 0.196023 0
M  V30 47 H -4.823488 -0.440113 0.900221 0
M  V30 48 H -0.780897 -0.938061 -1.768996 0
M  V30 49 H -1.061950 -3.671871 -0.512469 0
M  V30 50 H -1.823480 -3.523208 -2.180847 0
M  V30 51 H -6.061164 -3.801829 0.753170 0
M  V30 52 H -4.822098 -4.141404 2.006241 0
M  V30 53 H -5.545450 -2.462746 1.839851 0
M  V30 54 H 2.844760 0.434493 -0.988108 0
M  V30 55 H 1.621825 -0.262625 -2.044187 0
M  V30 56 H 0.839997 -1.542308 0.106946 0
M  V30 57 H 2.415810 -1.982989 -0.595611 0
M  V30 END ATOM
M  V30 BEGIN BOND
M  V30 1 1 1 2
M  V30 2 1 2 3
M  V30 3 1 3 4
M  V30 4 1 4 5
M  V30 5 1 5 6
M  V30 6 1 6 7
M  V30 7 1 7 8
M  V30 8 1 8 9
M  V30 9 1 9 10
M  V30 10 2 10 11
M  V30 11 1 11 12
M  V30 12 1 11 13
M  V30 13 2 13 14
M  V30 14 1 14 15
M  V30 15 2 15 16
M  V30 16 1 16 17
M  V30 17 2 17 18
M  V30 18 1 18 19
M  V30 19 2 19 20
M  V30 20 1 20 21
M  V30 21 2 21 22
M  V30 22 1 21 23
M  V30 23 1 23 24
M  V30 24 2 24 25
M  V30 25 2 24 26
M  V30 26 1 24 27
M  V30 27 1 27 28
M  V30 28 1 9 29
M  V30 29 1 29 30
M  V30 30 1 6 2
M  V30 31 1 16 10
M  V30 32 1 22 17
M  V30 33 1 30 6
M  V30 34 1 27 20
M  V30 35 1 1 31
M  V30 36 1 1 32
M  V30 37 1 1 33
M  V30 38 1 3 34
M  V30 39 1 3 35
M  V30 40 1 4 36
M  V30 41 1 4 37
M  V30 42 1 5 38
M  V30 43 1 5 39
M  V30 44 1 7 40
M  V30 45 1 7 41
M  V30 46 1 8 42
M  V30 47 1 8 43
M  V30 48 1 13 44
M  V30 49 1 15 45
M  V30 50 1 18 46
M  V30 51 1 19 47
M  V30 52 1 22 48
M  V30 53 1 23 49
M  V30 54 1 23 50
M  V30 55 1 28 51
M  V30 56 1 28 52
M  V30 57 1 28 53
M  V30 58 1 29 54
M  V30 59 1 29 55
M  V30 60 1 30 56
M  V30 61 1 30 57
M  V30 END BOND
M  V30 END CTAB
M  END
>  <Dataset>  (615) 
ChEMBL_Kinases

>  <Ligand_Instance>  (615) 
nan

>  <PDB_ID>  (615) 
nan

>  <Standardized_SMILES>  (615) 
CN1CCCC12CCN(c1c(Cl)cncc1-c1ccc3c(c1)CS(=O)(=O)N3C)CC2

>  <Name>  (615) 
nan

>  <Pocket>  (615) 
nan

>  <ATP_Site>  (615) 
nan

>  <Peripheral>  (615) 
nan

>  <Num_H_Atoms_ProtBoundConf>  (615) 
nan

>  <Num_Resolved_Atoms>  (615) 
nan

>  <Num_Not_Resolved_Atoms>  (615) 
nan

$$$$
CHEMBL590961
     RDKit          3D

  0  0  0  0  0  0  0  0  0  0999 V3000
M  V30 BEGIN CTAB
M  V30 COUNTS 73 78 0 0 0
M  V30 BEGIN ATOM
M  V30 1 C 1.688809 -3.589394 5.826127 0
M  V30 2 C 2.570663 -2.930099 4.799287 0
M  V30 3 C 2.231027 -3.438315 3.414077 0
M  V30 4 N 2.651946 -1.522781 4.925745 0
M  V30 5 C 1.470909 -0.760196 4.836709 0
M  V30 6 C 1.387265 0.098891 3.609774 0
M  V30 7 N 2.690599 0.605777 3.252441 0
M  V30 8 C 3.052146 1.076958 1.962602 0
M  V30 9 C 2.166306 0.970184 0.903929 0
M  V30 10 C 2.543453 1.440933 -0.357154 0
M  V30 11 C 1.508412 1.269138 -1.403135 0
M  V30 12 O 1.466313 0.000777 -1.608858 0
M  V30 13 N 0.626401 2.084878 -2.169164 0
M  V30 14 C -0.034719 1.102998 -2.950679 0
M  V30 15 C 0.527527 0.829787 -4.177719 0
M  V30 16 C -0.055547 -0.131167 -4.977807 0
M  V30 17 C -1.179242 -0.763220 -4.487318 0
M  V30 18 C -1.717610 -0.471436 -3.262092 0
M  V30 19 C -1.156780 0.483703 -2.442895 0
M  V30 20 C -2.871585 -1.188959 -2.823224 0
M  V30 21 C -3.455458 -2.160712 -3.591508 0
M  V30 22 C -4.540709 -2.682674 -2.918250 0
M  V30 23 C -5.505948 -3.727464 -3.252603 0
M  V30 24 N -5.394878 -4.434488 -4.488019 0
M  V30 25 O -6.442390 -4.002555 -2.437049 0
M  V30 26 N -4.549749 -1.975612 -1.749201 0
M  V30 27 N -3.578828 -1.111093 -1.701852 0
M  V30 28 C -3.485575 -0.314720 -0.532096 0
M  V30 29 C -2.790754 -0.576143 0.655642 0
M  V30 30 C -2.847645 0.337865 1.687601 0
M  V30 31 C -3.557611 1.518482 1.630157 0
M  V30 32 F -3.574366 2.371965 2.676013 0
M  V30 33 C -4.234119 1.757116 0.451993 0
M  V30 34 C -4.212953 0.880366 -0.611099 0
M  V30 35 C -2.932198 -2.512346 -4.912433 0
M  V30 36 C -1.751281 -1.778049 -5.391978 0
M  V30 37 C 3.801001 2.012568 -0.543000 0
M  V30 38 Cl 4.119429 2.550258 -2.171836 0
M  V30 39 C 4.627307 2.084903 0.555804 0
M  V30 40 N 4.252124 1.631439 1.749497 0
M  V30 41 C 3.632659 0.581429 4.353369 0
M  V30 42 C 3.887175 -0.897780 4.643778 0
M  V30 43 H 2.311174 -3.809757 6.720721 0
M  V30 44 H 0.799447 -3.004249 6.089364 0
M  V30 45 H 1.334426 -4.549610 5.388126 0
M  V30 46 H 3.618321 -3.322435 4.986170 0
M  V30 47 H 1.779565 -2.701520 2.752527 0
M  V30 48 H 1.535943 -4.315428 3.514103 0
M  V30 49 H 3.107520 -3.853081 2.869889 0
M  V30 50 H 1.454744 -0.046468 5.715868 0
M  V30 51 H 0.533738 -1.344430 4.960600 0
M  V30 52 H 0.899754 -0.492439 2.794143 0
M  V30 53 H 0.670939 0.942634 3.803708 0
M  V30 54 H 1.205753 0.528499 1.067788 0
M  V30 55 H 0.809371 3.060140 -1.860510 0
M  V30 56 H 1.409255 1.352406 -4.518565 0
M  V30 57 H 0.380805 -0.352822 -5.944851 0
M  V30 58 H -1.485309 0.788696 -1.489084 0
M  V30 59 H -4.576997 -5.078885 -4.492624 0
M  V30 60 H -6.232969 -4.039060 -5.004839 0
M  V30 61 H -2.257394 -1.510867 0.639456 0
M  V30 62 H -2.293146 0.088462 2.585984 0
M  V30 63 H -4.807026 2.693506 0.386830 0
M  V30 64 H -4.793404 1.187675 -1.490477 0
M  V30 65 H -2.748842 -3.613014 -4.893320 0
M  V30 66 H -3.805756 -2.393056 -5.625593 0
M  V30 67 H -0.953129 -2.517463 -5.699598 0
M  V30 68 H -1.998812 -1.261256 -6.354927 0
M  V30 69 H 5.581249 2.544535 0.313284 0
M  V30 70 H 4.564588 1.141872 4.158971 0
M  V30 71 H 3.146568 1.004868 5.245135 0
M  V30 72 H 4.467793 -1.368109 3.822398 0
M  V30 73 H 4.551037 -0.986183 5.548871 0
M  V30 END ATOM
M  V30 BEGIN BOND
M  V30 1 1 1 2
M  V30 2 1 2 3
M  V30 3 1 2 4
M  V30 4 1 4 5
M  V30 5 1 5 6
M  V30 6 1 6 7
M  V30 7 1 7 8
M  V30 8 2 8 9
M  V30 9 1 9 10
M  V30 10 1 10 11
M  V30 11 2 11 12
M  V30 12 1 11 13
M  V30 13 1 13 14
M  V30 14 2 14 15
M  V30 15 1 15 16
M  V30 16 2 16 17
M  V30 17 1 17 18
M  V30 18 2 18 19
M  V30 19 1 18 20
M  V30 20 2 20 21
M  V30 21 1 21 22
M  V30 22 1 22 23
M  V30 23 1 23 24
M  V30 24 2 23 25
M  V30 25 2 22 26
M  V30 26 1 26 27
M  V30 27 1 27 28
M  V30 28 2 28 29
M  V30 29 1 29 30
M  V30 30 2 30 31
M  V30 31 1 31 32
M  V30 32 1 31 33
M  V30 33 2 33 34
M  V30 34 1 21 35
M  V30 35 1 35 36
M  V30 36 2 10 37
M  V30 37 1 37 38
M  V30 38 1 37 39
M  V30 39 2 39 40
M  V30 40 1 7 41
M  V30 41 1 41 42
M  V30 42 1 42 4
M  V30 43 1 40 8
M  V30 44 1 19 14
M  V30 45 1 27 20
M  V30 46 1 34 28
M  V30 47 1 36 17
M  V30 48 1 1 43
M  V30 49 1 1 44
M  V30 50 1 1 45
M  V30 51 1 2 46
M  V30 52 1 3 47
M  V30 53 1 3 48
M  V30 54 1 3 49
M  V30 55 1 5 50
M  V30 56 1 5 51
M  V30 57 1 6 52
M  V30 58 1 6 53
M  V30 59 1 9 54
M  V30 60 1 13 55
M  V30 61 1 15 56
M  V30 62 1 16 57
M  V30 63 1 19 58
M  V30 64 1 24 59
M  V30 65 1 24 60
M  V30 66 1 29 61
M  V30 67 1 30 62
M  V30 68 1 33 63
M  V30 69 1 34 64
M  V30 70 1 35 65
M  V30 71 1 35 66
M  V30 72 1 36 67
M  V30 73 1 36 68
M  V30 74 1 39 69
M  V30 75 1 41 70
M  V30 76 1 41 71
M  V30 77 1 42 72
M  V30 78 1 42 73
M  V30 END BOND
M  V30 END CTAB
M  END
>  <Dataset>  (616) 
ChEMBL_Kinases

>  <Ligand_Instance>  (616) 
nan

>  <PDB_ID>  (616) 
nan

>  <Standardized_SMILES>  (616) 
CC(C)N1CCN(c2cc(C(=O)Nc3ccc4c(c3)-c3c(c(C(N)=O)nn3-c3ccc(F)cc3)CC4)c(Cl)cn2)CC1

>  <Name>  (616) 
nan

>  <Pocket>  (616) 
nan

>  <ATP_Site>  (616) 
nan

>  <Peripheral>  (616) 
nan

>  <Num_H_Atoms_ProtBoundConf>  (616) 
nan

>  <Num_Resolved_Atoms>  (616) 
nan

>  <Num_Not_Resolved_Atoms>  (616) 
nan

$$$$
CHEMBL590921
     RDKit          3D

  0  0  0  0  0  0  0  0  0  0999 V3000
M  V30 BEGIN CTAB
M  V30 COUNTS 73 78 0 0 0
M  V30 BEGIN ATOM
M  V30 1 C 2.059497 -3.738616 7.121086 0
M  V30 2 C 2.318271 -3.398899 5.658711 0
M  V30 3 C 2.914432 -2.014507 5.534078 0
M  V30 4 N 2.113728 -1.287440 4.556836 0
M  V30 5 C 2.651049 -0.690637 3.370696 0
M  V30 6 C 1.956940 -0.006015 2.417976 0
M  V30 7 C 2.564171 0.534092 1.310578 0
M  V30 8 C 1.725613 1.248742 0.354402 0
M  V30 9 O 0.986291 2.266056 0.463270 0
M  V30 10 N 1.791398 0.640793 -0.927154 0
M  V30 11 C 1.069452 1.128639 -2.061495 0
M  V30 12 C 1.664074 2.086074 -2.892424 0
M  V30 13 C 1.016043 2.590110 -3.998027 0
M  V30 14 C -0.262807 2.154908 -4.321872 0
M  V30 15 C -0.857130 1.219394 -3.518914 0
M  V30 16 C -0.219823 0.709709 -2.413344 0
M  V30 17 C -2.177814 0.777440 -3.863600 0
M  V30 18 C -2.786043 1.296401 -4.962021 0
M  V30 19 C -4.016630 0.705140 -5.051130 0
M  V30 20 C -5.106997 0.874217 -6.030097 0
M  V30 21 N -4.946258 1.781447 -7.098625 0
M  V30 22 O -6.194486 0.236722 -5.957522 0
M  V30 23 N -4.100079 -0.142155 -4.008007 0
M  V30 24 N -2.981520 -0.105898 -3.275647 0
M  V30 25 C -2.875173 -0.933784 -2.128113 0
M  V30 26 C -2.337619 -2.191790 -2.431027 0
M  V30 27 C -2.150058 -3.169318 -1.460344 0
M  V30 28 C -2.523913 -2.835239 -0.168613 0
M  V30 29 F -2.355218 -3.768210 0.812223 0
M  V30 30 C -3.052731 -1.614734 0.163214 0
M  V30 31 C -3.238783 -0.640835 -0.808081 0
M  V30 32 C -2.220114 2.303400 -5.875011 0
M  V30 33 C -0.843928 2.768131 -5.523011 0
M  V30 34 C 3.939142 0.373333 1.160648 0
M  V30 35 Cl 4.698250 1.067003 -0.255199 0
M  V30 36 C 4.615327 -0.323789 2.139776 0
M  V30 37 N 3.979044 -0.835827 3.208616 0
M  V30 38 C 0.723668 -1.262796 4.964895 0
M  V30 39 C 0.116224 -2.662430 5.036634 0
M  V30 40 C -0.889949 -2.748519 3.913094 0
M  V30 41 N 1.178673 -3.589382 4.819224 0
M  V30 42 C 0.776640 -4.959460 4.796061 0
M  V30 43 H 2.660030 -3.062689 7.768844 0
M  V30 44 H 1.016759 -3.628773 7.419486 0
M  V30 45 H 2.351237 -4.787820 7.320554 0
M  V30 46 H 3.108712 -4.120668 5.299332 0
M  V30 47 H 3.982470 -2.034324 5.232693 0
M  V30 48 H 2.762055 -1.474117 6.491952 0
M  V30 49 H 0.910144 0.100538 2.559403 0
M  V30 50 H 2.335070 -0.198749 -1.232821 0
M  V30 51 H 2.663713 2.439110 -2.657071 0
M  V30 52 H 1.555535 3.338236 -4.595383 0
M  V30 53 H -0.603921 -0.014877 -1.737693 0
M  V30 54 H -4.829600 2.504295 -7.841481 0
M  V30 55 H -4.835938 1.761663 -8.152340 0
M  V30 56 H -2.029058 -2.504879 -3.422834 0
M  V30 57 H -1.735856 -4.140352 -1.689097 0
M  V30 58 H -3.351135 -1.333212 1.165334 0
M  V30 59 H -3.639529 0.349493 -0.688656 0
M  V30 60 H -2.231437 1.832812 -6.898354 0
M  V30 61 H -2.956814 3.152293 -5.979787 0
M  V30 62 H -0.198441 2.666232 -6.420532 0
M  V30 63 H -0.915698 3.885005 -5.368663 0
M  V30 64 H 5.670387 -0.433390 2.000903 0
M  V30 65 H 0.677323 -0.878790 6.007158 0
M  V30 66 H 0.155096 -0.599734 4.314179 0
M  V30 67 H -0.434819 -2.842495 5.973997 0
M  V30 68 H -1.223361 -3.769269 3.709316 0
M  V30 69 H -1.797621 -2.201721 4.270488 0
M  V30 70 H -0.573245 -2.265523 2.986631 0
M  V30 71 H 0.021926 -5.219439 5.566405 0
M  V30 72 H 0.331245 -5.275292 3.830358 0
M  V30 73 H 1.674655 -5.590660 4.958068 0
M  V30 END ATOM
M  V30 BEGIN BOND
M  V30 1 1 1 2
M  V30 2 1 2 3
M  V30 3 1 3 4
M  V30 4 1 4 5
M  V30 5 2 5 6
M  V30 6 1 6 7
M  V30 7 1 7 8
M  V30 8 2 8 9
M  V30 9 1 8 10
M  V30 10 1 10 11
M  V30 11 2 11 12
M  V30 12 1 12 13
M  V30 13 2 13 14
M  V30 14 1 14 15
M  V30 15 2 15 16
M  V30 16 1 15 17
M  V30 17 2 17 18
M  V30 18 1 18 19
M  V30 19 1 19 20
M  V30 20 1 20 21
M  V30 21 2 20 22
M  V30 22 2 19 23
M  V30 23 1 23 24
M  V30 24 1 24 25
M  V30 25 2 25 26
M  V30 26 1 26 27
M  V30 27 2 27 28
M  V30 28 1 28 29
M  V30 29 1 28 30
M  V30 30 2 30 31
M  V30 31 1 18 32
M  V30 32 1 32 33
M  V30 33 2 7 34
M  V30 34 1 34 35
M  V30 35 1 34 36
M  V30 36 2 36 37
M  V30 37 1 4 38
M  V30 38 1 38 39
M  V30 39 1 39 40
M  V30 40 1 39 41
M  V30 41 1 41 42
M  V30 42 1 41 2
M  V30 43 1 37 5
M  V30 44 1 16 11
M  V30 45 1 24 17
M  V30 46 1 31 25
M  V30 47 1 33 14
M  V30 48 1 1 43
M  V30 49 1 1 44
M  V30 50 1 1 45
M  V30 51 1 2 46
M  V30 52 1 3 47
M  V30 53 1 3 48
M  V30 54 1 6 49
M  V30 55 1 10 50
M  V30 56 1 12 51
M  V30 57 1 13 52
M  V30 58 1 16 53
M  V30 59 1 21 54
M  V30 60 1 21 55
M  V30 61 1 26 56
M  V30 62 1 27 57
M  V30 63 1 30 58
M  V30 64 1 31 59
M  V30 65 1 32 60
M  V30 66 1 32 61
M  V30 67 1 33 62
M  V30 68 1 33 63
M  V30 69 1 36 64
M  V30 70 1 38 65
M  V30 71 1 38 66
M  V30 72 1 39 67
M  V30 73 1 40 68
M  V30 74 1 40 69
M  V30 75 1 40 70
M  V30 76 1 42 71
M  V30 77 1 42 72
M  V30 78 1 42 73
M  V30 END BOND
M  V30 END CTAB
M  END
>  <Dataset>  (617) 
ChEMBL_Kinases

>  <Ligand_Instance>  (617) 
nan

>  <PDB_ID>  (617) 
nan

>  <Standardized_SMILES>  (617) 
CC1CN(c2cc(C(=O)Nc3ccc4c(c3)-c3c(c(C(N)=O)nn3-c3ccc(F)cc3)CC4)c(Cl)cn2)CC(C)N1C

>  <Name>  (617) 
nan

>  <Pocket>  (617) 
nan

>  <ATP_Site>  (617) 
nan

>  <Peripheral>  (617) 
nan

>  <Num_H_Atoms_ProtBoundConf>  (617) 
nan

>  <Num_Resolved_Atoms>  (617) 
nan

>  <Num_Not_Resolved_Atoms>  (617) 
nan

$$$$
CHEMBL590901
     RDKit          3D

  0  0  0  0  0  0  0  0  0  0999 V3000
M  V30 BEGIN CTAB
M  V30 COUNTS 67 73 0 0 0
M  V30 BEGIN ATOM
M  V30 1 N 6.505556 -3.916111 -2.878550 0
M  V30 2 C 5.459853 -4.681981 -2.298259 0
M  V30 3 O 5.629922 -5.917848 -2.138352 0
M  V30 4 C 4.211084 -4.006543 -1.902459 0
M  V30 5 N 3.963256 -2.672476 -2.049058 0
M  V30 6 N 2.755929 -2.393009 -1.595800 0
M  V30 7 C 2.268905 -1.064483 -1.641216 0
M  V30 8 C 2.483675 -0.185972 -0.573308 0
M  V30 9 C 1.996026 1.100636 -0.681552 0
M  V30 10 C 1.308151 1.584134 -1.774155 0
M  V30 11 C 1.100637 0.707077 -2.825900 0
M  V30 12 C 1.575065 -0.588656 -2.751670 0
M  V30 13 O 0.397483 1.407827 -3.796906 0
M  V30 14 C -0.059586 2.630587 -3.286964 0
M  V30 15 O 0.729433 2.796075 -2.124941 0
M  V30 16 C 2.217239 -3.521315 -1.158371 0
M  V30 17 C 3.076166 -4.581951 -1.319141 0
M  V30 18 C 2.929258 -6.019040 -0.989960 0
M  V30 19 C 1.598224 -6.318074 -0.364572 0
M  V30 20 C 0.721488 -5.136960 -0.224213 0
M  V30 21 C -0.506462 -5.468034 0.351827 0
M  V30 22 C -1.462492 -4.468622 0.562170 0
M  V30 23 C -1.226177 -3.155398 0.214633 0
M  V30 24 N -2.248168 -2.194635 0.459654 0
M  V30 25 C -2.116810 -1.625156 1.743270 0
M  V30 26 O -1.190173 -1.951404 2.555040 0
M  V30 27 C -2.962319 -0.614692 2.355574 0
M  V30 28 C -2.472653 0.614125 2.751567 0
M  V30 29 C -3.233209 1.597047 3.333903 0
M  V30 30 N -2.702893 2.849358 3.731066 0
M  V30 31 C -1.316376 3.240640 3.581645 0
M  V30 32 C -1.215369 4.339491 2.537959 0
M  V30 33 N -2.536883 4.951753 2.421818 0
M  V30 34 C -3.073777 5.184373 3.769137 0
M  V30 35 C -3.562229 3.849272 4.335059 0
M  V30 36 N -4.530529 1.336162 3.524869 0
M  V30 37 C -5.093230 0.166653 3.170262 0
M  V30 38 C -4.323912 -0.836903 2.577378 0
M  V30 39 Cl -5.033062 -2.359059 2.110383 0
M  V30 40 C -0.007389 -2.846508 -0.353423 0
M  V30 41 C 0.931039 -3.822111 -0.560974 0
M  V30 42 H 6.959540 -2.997189 -2.680138 0
M  V30 43 H 6.722280 -2.993762 -2.412331 0
M  V30 44 H 3.023951 -0.506056 0.326745 0
M  V30 45 H 2.145017 1.810927 0.130419 0
M  V30 46 H 1.419202 -1.287205 -3.569709 0
M  V30 47 H -1.127387 2.578020 -2.951460 0
M  V30 48 H 0.111234 3.498718 -3.950961 0
M  V30 49 H 3.764616 -6.339663 -0.298421 0
M  V30 50 H 3.027314 -6.594016 -1.939649 0
M  V30 51 H 1.793370 -6.759544 0.656618 0
M  V30 52 H 1.107275 -7.130684 -0.950232 0
M  V30 53 H -0.811019 -6.465483 0.668097 0
M  V30 54 H -2.419103 -4.716689 1.009082 0
M  V30 55 H -3.047047 -1.845609 -0.111896 0
M  V30 56 H -1.417582 0.761957 2.569441 0
M  V30 57 H -0.616511 2.423652 3.428074 0
M  V30 58 H -1.022627 3.744516 4.549186 0
M  V30 59 H -0.940208 3.905367 1.549819 0
M  V30 60 H -0.449855 5.077293 2.793012 0
M  V30 61 H -3.168819 4.226996 1.981065 0
M  V30 62 H -3.866800 5.942192 3.773005 0
M  V30 63 H -2.198810 5.482714 4.384098 0
M  V30 64 H -3.316551 3.805042 5.436489 0
M  V30 65 H -4.628362 3.689499 4.181950 0
M  V30 66 H -6.159726 -0.002127 3.346148 0
M  V30 67 H 0.142677 -1.817355 -0.611148 0
M  V30 END ATOM
M  V30 BEGIN BOND
M  V30 1 1 1 2
M  V30 2 2 2 3
M  V30 3 1 2 4
M  V30 4 2 4 5
M  V30 5 1 5 6
M  V30 6 1 6 7
M  V30 7 2 7 8
M  V30 8 1 8 9
M  V30 9 2 9 10
M  V30 10 1 10 11
M  V30 11 2 11 12
M  V30 12 1 11 13
M  V30 13 1 13 14
M  V30 14 1 14 15
M  V30 15 1 6 16
M  V30 16 2 16 17
M  V30 17 1 17 18
M  V30 18 1 18 19
M  V30 19 1 19 20
M  V30 20 2 20 21
M  V30 21 1 21 22
M  V30 22 2 22 23
M  V30 23 1 23 24
M  V30 24 1 24 25
M  V30 25 2 25 26
M  V30 26 1 25 27
M  V30 27 2 27 28
M  V30 28 1 28 29
M  V30 29 1 29 30
M  V30 30 1 30 31
M  V30 31 1 31 32
M  V30 32 1 32 33
M  V30 33 1 33 34
M  V30 34 1 34 35
M  V30 35 2 29 36
M  V30 36 1 36 37
M  V30 37 2 37 38
M  V30 38 1 38 39
M  V30 39 1 23 40
M  V30 40 2 40 41
M  V30 41 1 17 4
M  V30 42 1 41 20
M  V30 43 1 12 7
M  V30 44 1 41 16
M  V30 45 1 15 10
M  V30 46 1 38 27
M  V30 47 1 35 30
M  V30 48 1 1 42
M  V30 49 1 1 43
M  V30 50 1 8 44
M  V30 51 1 9 45
M  V30 52 1 12 46
M  V30 53 1 14 47
M  V30 54 1 14 48
M  V30 55 1 18 49
M  V30 56 1 18 50
M  V30 57 1 19 51
M  V30 58 1 19 52
M  V30 59 1 21 53
M  V30 60 1 22 54
M  V30 61 1 24 55
M  V30 62 1 28 56
M  V30 63 1 31 57
M  V30 64 1 31 58
M  V30 65 1 32 59
M  V30 66 1 32 60
M  V30 67 1 33 61
M  V30 68 1 34 62
M  V30 69 1 34 63
M  V30 70 1 35 64
M  V30 71 1 35 65
M  V30 72 1 37 66
M  V30 73 1 40 67
M  V30 END BOND
M  V30 END CTAB
M  END
>  <Dataset>  (618) 
ChEMBL_Kinases

>  <Ligand_Instance>  (618) 
nan

>  <PDB_ID>  (618) 
nan

>  <Standardized_SMILES>  (618) 
NC(=O)c1nn(-c2ccc3c(c2)OCO3)c2c1CCc1ccc(NC(=O)c3cc(N4CCNCC4)ncc3Cl)cc1-2

>  <Name>  (618) 
nan

>  <Pocket>  (618) 
nan

>  <ATP_Site>  (618) 
nan

>  <Peripheral>  (618) 
nan

>  <Num_H_Atoms_ProtBoundConf>  (618) 
nan

>  <Num_Resolved_Atoms>  (618) 
nan

>  <Num_Not_Resolved_Atoms>  (618) 
nan

$$$$
CHEMBL590871
     RDKit          3D

  0  0  0  0  0  0  0  0  0  0999 V3000
M  V30 BEGIN CTAB
M  V30 COUNTS 59 63 0 0 0
M  V30 BEGIN ATOM
M  V30 1 C 0.333256 -4.178389 5.190894 0
M  V30 2 C -0.143145 -3.067860 4.333045 0
M  V30 3 C -0.842595 -2.052827 4.944101 0
M  V30 4 C -1.324777 -0.979179 4.228109 0
M  V30 5 C -1.092939 -0.934905 2.866445 0
M  V30 6 N -1.576093 0.156441 2.094448 0
M  V30 7 C -0.780799 1.307977 1.902573 0
M  V30 8 O 0.271004 1.006428 2.575090 0
M  V30 9 C -0.875363 2.566256 1.226234 0
M  V30 10 N -0.115419 3.497141 1.876876 0
M  V30 11 C -0.243575 4.689822 1.229241 0
M  V30 12 C 0.359927 6.027920 1.509333 0
M  V30 13 F 0.550122 6.711692 0.307848 0
M  V30 14 F 1.644699 5.766243 2.001996 0
M  V30 15 F -0.382019 6.787152 2.366343 0
M  V30 16 N -1.065794 4.501808 0.194954 0
M  V30 17 C -1.453877 3.217436 0.180302 0
M  V30 18 C -2.337488 2.550643 -0.721818 0
M  V30 19 C -2.608145 1.247491 -1.040510 0
M  V30 20 C -3.567658 0.786699 -1.899400 0
M  V30 21 C -4.370325 1.702982 -2.535382 0
M  V30 22 F -5.325345 1.273945 -3.387618 0
M  V30 23 C -4.161153 3.021676 -2.271339 0
M  V30 24 C -3.188612 3.429518 -1.403864 0
M  V30 25 C -0.389981 -1.976904 2.317689 0
M  V30 26 C 0.103713 -3.051895 2.979615 0
M  V30 27 N 0.844156 -4.128483 2.440040 0
M  V30 28 C 1.339753 -4.432268 1.151363 0
M  V30 29 C 1.399519 -5.721840 0.637737 0
M  V30 30 C 1.886734 -6.052899 -0.590580 0
M  V30 31 C 2.363747 -5.054866 -1.408720 0
M  V30 32 N 2.835893 -5.404892 -2.608195 0
M  V30 33 C 3.307468 -4.421535 -3.417489 0
M  V30 34 N 3.300839 -3.146687 -3.030325 0
M  V30 35 C 3.823011 -2.128151 -3.944686 0
M  V30 36 C 2.830406 -2.769803 -1.827408 0
M  V30 37 O 2.811012 -1.567884 -1.432140 0
M  V30 38 C 2.343674 -3.742776 -0.979826 0
M  V30 39 C 1.835195 -3.498947 0.273066 0
M  V30 40 H 0.173998 -3.967693 6.265952 0
M  V30 41 H -0.213428 -5.104060 4.955925 0
M  V30 42 H 1.411648 -4.398419 5.036468 0
M  V30 43 H -1.028056 -2.081922 6.012194 0
M  V30 44 H -1.879524 -0.169186 4.699498 0
M  V30 45 H -2.523988 0.253906 1.625050 0
M  V30 46 H -1.381998 5.198919 -0.507537 0
M  V30 47 H -1.937044 0.559527 -0.556167 0
M  V30 48 H -3.639400 -0.273131 -2.028572 0
M  V30 49 H -4.805829 3.715707 -2.783360 0
M  V30 50 H -3.138057 4.524582 -1.291751 0
M  V30 51 H -0.245890 -1.903084 1.251719 0
M  V30 52 H 1.128198 -4.917480 3.085793 0
M  V30 53 H 1.029888 -6.555813 1.254240 0
M  V30 54 H 1.896843 -7.100232 -0.917549 0
M  V30 55 H 3.684778 -4.740410 -4.386282 0
M  V30 56 H 3.911440 -1.144641 -3.434703 0
M  V30 57 H 3.157207 -1.986340 -4.817871 0
M  V30 58 H 4.853185 -2.412227 -4.304674 0
M  V30 59 H 1.875872 -2.449219 0.523136 0
M  V30 END ATOM
M  V30 BEGIN BOND
M  V30 1 1 1 2
M  V30 2 2 2 3
M  V30 3 1 3 4
M  V30 4 2 4 5
M  V30 5 1 5 6
M  V30 6 1 6 7
M  V30 7 2 7 8
M  V30 8 1 7 9
M  V30 9 1 9 10
M  V30 10 2 10 11
M  V30 11 1 11 12
M  V30 12 1 12 13
M  V30 13 1 12 14
M  V30 14 1 12 15
M  V30 15 1 11 16
M  V30 16 1 16 17
M  V30 17 1 17 18
M  V30 18 2 18 19
M  V30 19 1 19 20
M  V30 20 2 20 21
M  V30 21 1 21 22
M  V30 22 1 21 23
M  V30 23 2 23 24
M  V30 24 1 5 25
M  V30 25 2 25 26
M  V30 26 1 26 27
M  V30 27 1 27 28
M  V30 28 2 28 29
M  V30 29 1 29 30
M  V30 30 2 30 31
M  V30 31 1 31 32
M  V30 32 2 32 33
M  V30 33 1 33 34
M  V30 34 1 34 35
M  V30 35 1 34 36
M  V30 36 2 36 37
M  V30 37 1 36 38
M  V30 38 2 38 39
M  V30 39 1 26 2
M  V30 40 1 39 28
M  V30 41 2 17 9
M  V30 42 1 24 18
M  V30 43 1 38 31
M  V30 44 1 1 40
M  V30 45 1 1 41
M  V30 46 1 1 42
M  V30 47 1 3 43
M  V30 48 1 4 44
M  V30 49 1 6 45
M  V30 50 1 16 46
M  V30 51 1 19 47
M  V30 52 1 20 48
M  V30 53 1 23 49
M  V30 54 1 24 50
M  V30 55 1 25 51
M  V30 56 1 27 52
M  V30 57 1 29 53
M  V30 58 1 30 54
M  V30 59 1 33 55
M  V30 60 1 35 56
M  V30 61 1 35 57
M  V30 62 1 35 58
M  V30 63 1 39 59
M  V30 END BOND
M  V30 END CTAB
M  END
>  <Dataset>  (619) 
ChEMBL_Kinases

>  <Ligand_Instance>  (619) 
nan

>  <PDB_ID>  (619) 
nan

>  <Standardized_SMILES>  (619) 
Cc1ccc(NC(=O)c2nc(C(F)(F)F)[nH]c2-c2ccc(F)cc2)cc1Nc1ccc2ncn(C)c(=O)c2c1

>  <Name>  (619) 
nan

>  <Pocket>  (619) 
nan

>  <ATP_Site>  (619) 
nan

>  <Peripheral>  (619) 
nan

>  <Num_H_Atoms_ProtBoundConf>  (619) 
nan

>  <Num_Resolved_Atoms>  (619) 
nan

>  <Num_Not_Resolved_Atoms>  (619) 
nan

$$$$
CHEMBL590826
     RDKit          3D

  0  0  0  0  0  0  0  0  0  0999 V3000
M  V30 BEGIN CTAB
M  V30 COUNTS 51 53 0 0 0
M  V30 BEGIN ATOM
M  V30 1 N 0.880928 -7.400864 -1.277786 0
M  V30 2 C 1.412807 -6.361616 -1.425454 0
M  V30 3 C 2.068681 -5.095159 -1.584235 0
M  V30 4 C 2.098839 -4.489222 -2.838424 0
M  V30 5 C 2.737086 -3.270122 -2.963903 0
M  V30 6 C 3.325522 -2.680304 -1.863228 0
M  V30 7 N 4.021020 -1.435550 -1.813469 0
M  V30 8 C 3.169379 -0.346864 -1.529020 0
M  V30 9 O 1.949085 -0.599476 -1.362370 0
M  V30 10 N 3.627686 0.992240 -1.425971 0
M  V30 11 C 2.860829 2.174335 -1.143187 0
M  V30 12 C 2.485395 2.315924 0.287536 0
M  V30 13 C 3.331857 2.984532 1.173856 0
M  V30 14 C 2.978098 3.120371 2.516952 0
M  V30 15 C 1.774529 2.592551 3.001715 0
M  V30 16 C 0.940123 1.932955 2.126125 0
M  V30 17 C -0.294668 1.409005 2.691119 0
M  V30 18 O -0.527631 1.594005 3.911292 0
M  V30 19 N -1.181998 0.709771 1.830770 0
M  V30 20 C -2.439774 0.069547 1.986958 0
M  V30 21 C -3.542834 0.891732 1.768767 0
M  V30 22 C -4.843308 0.391566 1.887089 0
M  V30 23 C -4.973033 -0.944946 2.227635 0
M  V30 24 C -6.351007 -1.496222 2.357741 0
M  V30 25 N -6.865776 -1.365158 3.698738 0
M  V30 26 C -3.904076 -1.797777 2.453418 0
M  V30 27 C -2.661523 -1.247576 2.321988 0
M  V30 28 C 1.322727 1.819016 0.809094 0
M  V30 29 C 3.292282 -3.291586 -0.609397 0
M  V30 30 C 2.649624 -4.518115 -0.485664 0
M  V30 31 H 1.645678 -4.931209 -3.714713 0
M  V30 32 H 2.823985 -2.708101 -3.883293 0
M  V30 33 H 5.034684 -1.227726 -1.952991 0
M  V30 34 H 4.665943 1.100292 -1.581680 0
M  V30 35 H 1.891027 2.116870 -1.722462 0
M  V30 36 H 3.402637 3.078204 -1.482770 0
M  V30 37 H 4.265878 3.404031 0.837260 0
M  V30 38 H 3.655815 3.647493 3.193304 0
M  V30 39 H 1.563234 2.733873 4.053164 0
M  V30 40 H -1.053149 0.520280 0.816301 0
M  V30 41 H -3.480292 1.953616 1.497365 0
M  V30 42 H -5.710036 1.014093 1.721537 0
M  V30 43 H -6.302512 -2.596256 2.136620 0
M  V30 44 H -7.057174 -1.077646 1.616117 0
M  V30 45 H -7.515881 -2.138940 3.972063 0
M  V30 46 H -6.085746 -1.355766 4.390468 0
M  V30 47 H -4.037949 -2.838027 2.718013 0
M  V30 48 H -1.790294 -1.840408 2.480223 0
M  V30 49 H 0.678082 1.311754 0.133335 0
M  V30 50 H 3.717707 -2.910414 0.290305 0
M  V30 51 H 2.595199 -5.039715 0.477805 0
M  V30 END ATOM
M  V30 BEGIN BOND
M  V30 1 3 1 2
M  V30 2 1 2 3
M  V30 3 2 3 4
M  V30 4 1 4 5
M  V30 5 2 5 6
M  V30 6 1 6 7
M  V30 7 1 7 8
M  V30 8 2 8 9
M  V30 9 1 8 10
M  V30 10 1 10 11
M  V30 11 1 11 12
M  V30 12 2 12 13
M  V30 13 1 13 14
M  V30 14 2 14 15
M  V30 15 1 15 16
M  V30 16 1 16 17
M  V30 17 2 17 18
M  V30 18 1 17 19
M  V30 19 1 19 20
M  V30 20 2 20 21
M  V30 21 1 21 22
M  V30 22 2 22 23
M  V30 23 1 23 24
M  V30 24 1 24 25
M  V30 25 1 23 26
M  V30 26 2 26 27
M  V30 27 2 16 28
M  V30 28 1 6 29
M  V30 29 2 29 30
M  V30 30 1 30 3
M  V30 31 1 28 12
M  V30 32 1 27 20
M  V30 33 1 4 31
M  V30 34 1 5 32
M  V30 35 1 7 33
M  V30 36 1 10 34
M  V30 37 1 11 35
M  V30 38 1 11 36
M  V30 39 1 13 37
M  V30 40 1 14 38
M  V30 41 1 15 39
M  V30 42 1 19 40
M  V30 43 1 21 41
M  V30 44 1 22 42
M  V30 45 1 24 43
M  V30 46 1 24 44
M  V30 47 1 25 45
M  V30 48 1 25 46
M  V30 49 1 26 47
M  V30 50 1 27 48
M  V30 51 1 28 49
M  V30 52 1 29 50
M  V30 53 1 30 51
M  V30 END BOND
M  V30 END CTAB
M  END
>  <Dataset>  (620) 
ChEMBL_Kinases

>  <Ligand_Instance>  (620) 
nan

>  <PDB_ID>  (620) 
nan

>  <Standardized_SMILES>  (620) 
N#Cc1ccc(NC(=O)NCc2cccc(C(=O)Nc3ccc(CN)cc3)c2)cc1

>  <Name>  (620) 
nan

>  <Pocket>  (620) 
nan

>  <ATP_Site>  (620) 
nan

>  <Peripheral>  (620) 
nan

>  <Num_H_Atoms_ProtBoundConf>  (620) 
nan

>  <Num_Resolved_Atoms>  (620) 
nan

>  <Num_Not_Resolved_Atoms>  (620) 
nan

$$$$
CHEMBL506586
     RDKit          3D

  0  0  0  0  0  0  0  0  0  0999 V3000
M  V30 BEGIN CTAB
M  V30 COUNTS 62 62 0 0 0
M  V30 BEGIN ATOM
M  V30 1 C 3.613171 -5.471355 5.586753 0
M  V30 2 C 2.272488 -4.917775 5.155602 0
M  V30 3 C 2.454298 -3.857267 4.066573 0
M  V30 4 C 3.291152 -2.750734 4.606725 0
M  V30 5 C 3.564038 -1.627763 3.640703 0
M  V30 6 C 2.270549 -1.014217 3.220824 0
M  V30 7 C 2.450903 0.110206 2.268154 0
M  V30 8 C 2.033507 0.260451 1.031366 0
M  V30 9 C 2.143964 1.321414 -0.015006 0
M  V30 10 C 0.775732 1.193459 -0.652156 0
M  V30 11 C -0.256410 1.980456 0.131962 0
M  V30 12 O 0.121040 3.342672 0.054698 0
M  V30 13 C 0.753141 1.671789 -2.073945 0
M  V30 14 O -0.496096 1.415951 -2.640797 0
M  V30 15 C -1.104912 0.253100 -2.917170 0
M  V30 16 O -0.667184 -0.899646 -2.727146 0
M  V30 17 C -2.442650 0.043039 -3.515678 0
M  V30 18 C -2.595312 -1.473880 -3.647722 0
M  V30 19 C -3.908556 -1.879913 -4.243811 0
M  V30 20 C -3.572026 0.620763 -2.696992 0
M  V30 21 C -3.637440 0.013073 -1.337869 0
M  V30 22 C -4.757098 0.580581 -0.504690 0
M  V30 23 C -4.652094 2.057143 -0.280032 0
M  V30 24 O 0.539111 -0.186806 -0.662527 0
M  V30 25 C 1.262119 -0.786168 0.371061 0
M  V30 26 O 1.247502 -2.007001 0.673226 0
M  V30 27 H 4.309053 -5.462675 4.708532 0
M  V30 28 H 4.052327 -4.779506 6.324670 0
M  V30 29 H 3.535523 -6.491779 5.992995 0
M  V30 30 H 1.719968 -4.487755 6.021935 0
M  V30 31 H 1.667818 -5.775851 4.795570 0
M  V30 32 H 2.972201 -4.336558 3.217238 0
M  V30 33 H 1.448035 -3.600951 3.740036 0
M  V30 34 H 2.754618 -2.268377 5.470336 0
M  V30 35 H 4.227587 -3.191766 5.003030 0
M  V30 36 H 4.191150 -1.952224 2.785450 0
M  V30 37 H 4.156033 -0.857613 4.185355 0
M  V30 38 H 1.806695 -0.592212 4.165258 0
M  V30 39 H 1.548527 -1.779660 2.899047 0
M  V30 40 H 3.020855 0.951361 2.648220 0
M  V30 41 H 2.234885 2.337643 0.406302 0
M  V30 42 H 2.944537 1.079624 -0.724766 0
M  V30 43 H -0.319484 1.632797 1.166320 0
M  V30 44 H -1.213518 1.939427 -0.430569 0
M  V30 45 H 0.466608 3.622265 0.953568 0
M  V30 46 H 1.519605 1.043478 -2.618506 0
M  V30 47 H 1.017743 2.742719 -2.171479 0
M  V30 48 H -2.419667 0.442189 -4.546841 0
M  V30 49 H -2.369653 -1.997473 -2.692836 0
M  V30 50 H -1.810193 -1.812331 -4.369960 0
M  V30 51 H -4.570289 -2.208704 -3.395507 0
M  V30 52 H -3.805083 -2.806190 -4.871025 0
M  V30 53 H -4.409421 -1.097213 -4.810674 0
M  V30 54 H -4.503467 0.359400 -3.244557 0
M  V30 55 H -3.544742 1.704929 -2.625857 0
M  V30 56 H -2.704656 0.110914 -0.758066 0
M  V30 57 H -3.845005 -1.096083 -1.391211 0
M  V30 58 H -4.836899 0.084404 0.483354 0
M  V30 59 H -5.755424 0.400247 -0.991251 0
M  V30 60 H -5.149435 2.641908 -1.085034 0
M  V30 61 H -5.231351 2.301195 0.639114 0
M  V30 62 H -3.609601 2.386608 -0.086589 0
M  V30 END ATOM
M  V30 BEGIN BOND
M  V30 1 1 1 2
M  V30 2 1 2 3
M  V30 3 1 3 4
M  V30 4 1 4 5
M  V30 5 1 5 6
M  V30 6 1 6 7
M  V30 7 2 7 8
M  V30 8 1 8 9
M  V30 9 1 9 10
M  V30 10 1 10 11
M  V30 11 1 11 12
M  V30 12 1 10 13
M  V30 13 1 13 14
M  V30 14 1 14 15
M  V30 15 2 15 16
M  V30 16 1 15 17
M  V30 17 1 17 18
M  V30 18 1 18 19
M  V30 19 1 17 20
M  V30 20 1 20 21
M  V30 21 1 21 22
M  V30 22 1 22 23
M  V30 23 1 10 24
M  V30 24 1 24 25
M  V30 25 2 25 26
M  V30 26 1 25 8
M  V30 27 1 1 27
M  V30 28 1 1 28
M  V30 29 1 1 29
M  V30 30 1 2 30
M  V30 31 1 2 31
M  V30 32 1 3 32
M  V30 33 1 3 33
M  V30 34 1 4 34
M  V30 35 1 4 35
M  V30 36 1 5 36
M  V30 37 1 5 37
M  V30 38 1 6 38
M  V30 39 1 6 39
M  V30 40 1 7 40
M  V30 41 1 9 41
M  V30 42 1 9 42
M  V30 43 1 11 43
M  V30 44 1 11 44
M  V30 45 1 12 45
M  V30 46 1 13 46
M  V30 47 1 13 47
M  V30 48 1 17 48
M  V30 49 1 18 49
M  V30 50 1 18 50
M  V30 51 1 19 51
M  V30 52 1 19 52
M  V30 53 1 19 53
M  V30 54 1 20 54
M  V30 55 1 20 55
M  V30 56 1 21 56
M  V30 57 1 21 57
M  V30 58 1 22 58
M  V30 59 1 22 59
M  V30 60 1 23 60
M  V30 61 1 23 61
M  V30 62 1 23 62
M  V30 END BOND
M  V30 END CTAB
M  END
>  <Dataset>  (621) 
ChEMBL_Kinases

>  <Ligand_Instance>  (621) 
nan

>  <PDB_ID>  (621) 
nan

>  <Standardized_SMILES>  (621) 
CCCCCC/C=C1/CC(CO)(COC(=O)C(CC)CCCC)OC1=O

>  <Name>  (621) 
nan

>  <Pocket>  (621) 
nan

>  <ATP_Site>  (621) 
nan

>  <Peripheral>  (621) 
nan

>  <Num_H_Atoms_ProtBoundConf>  (621) 
nan

>  <Num_Resolved_Atoms>  (621) 
nan

>  <Num_Not_Resolved_Atoms>  (621) 
nan

$$$$
CHEMBL590811
     RDKit          3D

  0  0  0  0  0  0  0  0  0  0999 V3000
M  V30 BEGIN CTAB
M  V30 COUNTS 57 59 0 0 0
M  V30 BEGIN ATOM
M  V30 1 C 3.855086 -4.589635 0.401980 0
M  V30 2 N 4.915196 -4.414616 -0.574820 0
M  V30 3 C 5.964010 -5.330418 -0.231895 0
M  V30 4 C 5.413899 -3.029725 -0.525788 0
M  V30 5 C 4.318794 -2.075947 -0.820655 0
M  V30 6 C 3.587797 -1.613141 0.280984 0
M  V30 7 C 2.555280 -0.715941 -0.004374 0
M  V30 8 C 2.247585 -0.289243 -1.293447 0
M  V30 9 N 1.166154 0.614243 -1.334590 0
M  V30 10 C 0.940773 2.006209 -1.271063 0
M  V30 11 O 1.938056 2.796977 -1.136595 0
M  V30 12 C -0.394300 2.581205 -1.352821 0
M  V30 13 C -0.451158 3.951556 -1.279739 0
M  V30 14 C -1.722787 4.535927 -1.351957 0
M  V30 15 C -2.833026 3.706975 -1.490764 0
M  V30 16 C -2.745520 2.310075 -1.562674 0
M  V30 17 C -4.056417 1.626105 -1.713907 0
M  V30 18 N -4.581390 1.392194 -0.387154 0
M  V30 19 C -4.179748 0.388258 0.501195 0
M  V30 20 O -3.290497 -0.382291 0.114369 0
M  V30 21 N -4.702481 0.190383 1.783870 0
M  V30 22 C -4.395414 -0.761097 2.757886 0
M  V30 23 C -5.053427 -0.738430 3.973393 0
M  V30 24 C -4.814070 -1.635640 4.984199 0
M  V30 25 C -3.875693 -2.629844 4.823069 0
M  V30 26 C -3.609408 -3.576691 5.865448 0
M  V30 27 N -3.374187 -4.343342 6.718503 0
M  V30 28 C -3.170000 -2.721331 3.629799 0
M  V30 29 C -3.476598 -1.779358 2.673637 0
M  V30 30 C -1.499574 1.774297 -1.490250 0
M  V30 31 C 3.005169 -0.781695 -2.337924 0
M  V30 32 C 4.038079 -1.672014 -2.107288 0
M  V30 33 H 2.976417 -3.998743 0.100251 0
M  V30 34 H 4.184950 -4.292978 1.424085 0
M  V30 35 H 3.575152 -5.661824 0.392957 0
M  V30 36 H 5.511276 -6.346281 -0.145120 0
M  V30 37 H 6.428339 -5.124703 0.750648 0
M  V30 38 H 6.769849 -5.372029 -1.016864 0
M  V30 39 H 6.256992 -2.896820 -1.213969 0
M  V30 40 H 5.823388 -2.922151 0.491785 0
M  V30 41 H 3.806136 -1.928206 1.292316 0
M  V30 42 H 2.015133 -0.384523 0.890278 0
M  V30 43 H 0.395842 -0.080442 -1.444407 0
M  V30 44 H 0.395493 4.610549 -1.172457 0
M  V30 45 H -1.835472 5.609620 -1.300428 0
M  V30 46 H -3.784385 4.230556 -1.539736 0
M  V30 47 H -4.766631 2.266873 -2.290865 0
M  V30 48 H -3.934155 0.655021 -2.248933 0
M  V30 49 H -5.349646 2.047824 -0.051129 0
M  V30 50 H -5.456375 0.903562 2.016814 0
M  V30 51 H -5.816577 0.033330 4.165013 0
M  V30 52 H -5.369475 -1.552391 5.906413 0
M  V30 53 H -2.441454 -3.486708 3.493828 0
M  V30 54 H -2.906708 -1.888507 1.765566 0
M  V30 55 H -1.453140 0.713045 -1.551751 0
M  V30 56 H 2.710831 -0.408355 -3.310740 0
M  V30 57 H 4.606051 -2.033473 -2.953093 0
M  V30 END ATOM
M  V30 BEGIN BOND
M  V30 1 1 1 2
M  V30 2 1 2 3
M  V30 3 1 2 4
M  V30 4 1 4 5
M  V30 5 2 5 6
M  V30 6 1 6 7
M  V30 7 2 7 8
M  V30 8 1 8 9
M  V30 9 1 9 10
M  V30 10 2 10 11
M  V30 11 1 10 12
M  V30 12 2 12 13
M  V30 13 1 13 14
M  V30 14 2 14 15
M  V30 15 1 15 16
M  V30 16 1 16 17
M  V30 17 1 17 18
M  V30 18 1 18 19
M  V30 19 2 19 20
M  V30 20 1 19 21
M  V30 21 1 21 22
M  V30 22 2 22 23
M  V30 23 1 23 24
M  V30 24 2 24 25
M  V30 25 1 25 26
M  V30 26 3 26 27
M  V30 27 1 25 28
M  V30 28 2 28 29
M  V30 29 2 16 30
M  V30 30 1 8 31
M  V30 31 2 31 32
M  V30 32 1 32 5
M  V30 33 1 30 12
M  V30 34 1 29 22
M  V30 35 1 1 33
M  V30 36 1 1 34
M  V30 37 1 1 35
M  V30 38 1 3 36
M  V30 39 1 3 37
M  V30 40 1 3 38
M  V30 41 1 4 39
M  V30 42 1 4 40
M  V30 43 1 6 41
M  V30 44 1 7 42
M  V30 45 1 9 43
M  V30 46 1 13 44
M  V30 47 1 14 45
M  V30 48 1 15 46
M  V30 49 1 17 47
M  V30 50 1 17 48
M  V30 51 1 18 49
M  V30 52 1 21 50
M  V30 53 1 23 51
M  V30 54 1 24 52
M  V30 55 1 28 53
M  V30 56 1 29 54
M  V30 57 1 30 55
M  V30 58 1 31 56
M  V30 59 1 32 57
M  V30 END BOND
M  V30 END CTAB
M  END
>  <Dataset>  (622) 
ChEMBL_Kinases

>  <Ligand_Instance>  (622) 
nan

>  <PDB_ID>  (622) 
nan

>  <Standardized_SMILES>  (622) 
CN(C)Cc1ccc(NC(=O)c2cccc(CNC(=O)Nc3ccc(C#N)cc3)c2)cc1

>  <Name>  (622) 
nan

>  <Pocket>  (622) 
nan

>  <ATP_Site>  (622) 
nan

>  <Peripheral>  (622) 
nan

>  <Num_H_Atoms_ProtBoundConf>  (622) 
nan

>  <Num_Resolved_Atoms>  (622) 
nan

>  <Num_Not_Resolved_Atoms>  (622) 
nan

$$$$
CHEMBL590810
     RDKit          3D

  0  0  0  0  0  0  0  0  0  0999 V3000
M  V30 BEGIN CTAB
M  V30 COUNTS 55 58 0 0 0
M  V30 BEGIN ATOM
M  V30 1 N 9.054254 -6.122948 2.405827 0
M  V30 2 C 8.341488 -5.295209 2.065557 0
M  V30 3 C 7.438836 -4.264282 1.615323 0
M  V30 4 C 7.967686 -3.145553 0.975344 0
M  V30 5 C 7.143645 -2.134674 0.526867 0
M  V30 6 C 5.763020 -2.229379 0.714233 0
M  V30 7 N 4.830516 -1.245726 0.288233 0
M  V30 8 C 4.300814 -0.098743 0.939032 0
M  V30 9 O 4.671992 0.168667 2.109124 0
M  V30 10 N 3.386700 0.628207 0.159080 0
M  V30 11 C 2.737857 1.822506 0.636450 0
M  V30 12 C 1.628671 1.562424 1.590198 0
M  V30 13 C 1.788182 1.505594 2.966861 0
M  V30 14 C 0.699601 1.258398 3.777304 0
M  V30 15 C -0.559156 1.063608 3.250099 0
M  V30 16 C -0.724015 1.118418 1.891175 0
M  V30 17 C -2.005812 0.932643 1.210150 0
M  V30 18 O -2.141729 0.952606 -0.062224 0
M  V30 19 N -3.259981 0.708452 1.846998 0
M  V30 20 C -4.233357 0.584874 0.785672 0
M  V30 21 C -4.927355 1.651411 0.245040 0
M  V30 22 C -5.829736 1.396944 -0.766992 0
M  V30 23 C -6.013337 0.102070 -1.206817 0
M  V30 24 C -5.334506 -0.977433 -0.684417 0
M  V30 25 C -4.420782 -0.726274 0.338807 0
M  V30 26 C -5.500798 -2.388088 -1.124087 0
M  V30 27 N -6.556922 -2.449969 -2.096326 0
M  V30 28 C -6.539683 -1.348476 -3.042166 0
M  V30 29 C -7.016420 -0.084377 -2.316691 0
M  V30 30 C 0.362271 1.366540 1.059540 0
M  V30 31 C 5.276434 -3.352494 1.352409 0
M  V30 32 C 6.060372 -4.402321 1.825438 0
M  V30 33 H 9.034090 -3.030337 0.808839 0
M  V30 34 H 7.453820 -1.230109 0.021200 0
M  V30 35 H 4.605050 -1.585745 -0.694427 0
M  V30 36 H 3.110917 0.356292 -0.821542 0
M  V30 37 H 3.491121 2.431476 1.223179 0
M  V30 38 H 2.444692 2.502139 -0.193383 0
M  V30 39 H 2.762640 1.657470 3.385450 0
M  V30 40 H 0.864511 1.221455 4.846779 0
M  V30 41 H -1.435271 0.866033 3.874912 0
M  V30 42 H -3.257844 0.674654 2.899803 0
M  V30 43 H -4.726492 2.643643 0.646982 0
M  V30 44 H -6.385750 2.225285 -1.205656 0
M  V30 45 H -3.874704 -1.559373 0.764773 0
M  V30 46 H -4.541981 -2.830885 -1.450780 0
M  V30 47 H -5.861298 -2.996981 -0.244675 0
M  V30 48 H -6.631058 -3.379838 -2.556362 0
M  V30 49 H -5.487286 -1.160268 -3.330893 0
M  V30 50 H -7.154540 -1.575992 -3.911762 0
M  V30 51 H -6.894566 0.725001 -3.082662 0
M  V30 52 H -8.044056 -0.150278 -1.962393 0
M  V30 53 H 0.237293 1.410589 -0.014246 0
M  V30 54 H 4.211487 -3.450616 1.510148 0
M  V30 55 H 5.635556 -5.261961 2.318924 0
M  V30 END ATOM
M  V30 BEGIN BOND
M  V30 1 3 1 2
M  V30 2 1 2 3
M  V30 3 2 3 4
M  V30 4 1 4 5
M  V30 5 2 5 6
M  V30 6 1 6 7
M  V30 7 1 7 8
M  V30 8 2 8 9
M  V30 9 1 8 10
M  V30 10 1 10 11
M  V30 11 1 11 12
M  V30 12 2 12 13
M  V30 13 1 13 14
M  V30 14 2 14 15
M  V30 15 1 15 16
M  V30 16 1 16 17
M  V30 17 2 17 18
M  V30 18 1 17 19
M  V30 19 1 19 20
M  V30 20 2 20 21
M  V30 21 1 21 22
M  V30 22 2 22 23
M  V30 23 1 23 24
M  V30 24 2 24 25
M  V30 25 1 24 26
M  V30 26 1 26 27
M  V30 27 1 27 28
M  V30 28 1 28 29
M  V30 29 2 16 30
M  V30 30 1 6 31
M  V30 31 2 31 32
M  V30 32 1 32 3
M  V30 33 1 30 12
M  V30 34 1 25 20
M  V30 35 1 29 23
M  V30 36 1 4 33
M  V30 37 1 5 34
M  V30 38 1 7 35
M  V30 39 1 10 36
M  V30 40 1 11 37
M  V30 41 1 11 38
M  V30 42 1 13 39
M  V30 43 1 14 40
M  V30 44 1 15 41
M  V30 45 1 19 42
M  V30 46 1 21 43
M  V30 47 1 22 44
M  V30 48 1 25 45
M  V30 49 1 26 46
M  V30 50 1 26 47
M  V30 51 1 27 48
M  V30 52 1 28 49
M  V30 53 1 28 50
M  V30 54 1 29 51
M  V30 55 1 29 52
M  V30 56 1 30 53
M  V30 57 1 31 54
M  V30 58 1 32 55
M  V30 END BOND
M  V30 END CTAB
M  END
>  <Dataset>  (623) 
ChEMBL_Kinases

>  <Ligand_Instance>  (623) 
nan

>  <PDB_ID>  (623) 
nan

>  <Standardized_SMILES>  (623) 
N#Cc1ccc(NC(=O)NCc2cccc(C(=O)Nc3ccc4c(c3)CNCC4)c2)cc1

>  <Name>  (623) 
nan

>  <Pocket>  (623) 
nan

>  <ATP_Site>  (623) 
nan

>  <Peripheral>  (623) 
nan

>  <Num_H_Atoms_ProtBoundConf>  (623) 
nan

>  <Num_Resolved_Atoms>  (623) 
nan

>  <Num_Not_Resolved_Atoms>  (623) 
nan

$$$$
CHEMBL3702230
     RDKit          3D

  0  0  0  0  0  0  0  0  0  0999 V3000
M  V30 BEGIN CTAB
M  V30 COUNTS 56 60 0 0 0
M  V30 BEGIN ATOM
M  V30 1 C 1.055246 -1.940450 2.076041 0
M  V30 2 C 1.544870 -1.149268 3.247192 0
M  V30 3 C 3.020744 -0.819373 3.171234 0 CFG=2
M  V30 4 C 3.431603 -0.010467 4.409010 0
M  V30 5 N 3.314704 0.042866 2.042145 0
M  V30 6 C 4.530423 0.242797 1.521293 0
M  V30 7 C 5.792523 -0.260048 1.854036 0
M  V30 8 N 6.887875 0.104271 1.158041 0
M  V30 9 C 6.773757 0.966176 0.123814 0
M  V30 10 C 5.579177 1.517970 -0.284322 0
M  V30 11 C 4.485235 1.118350 0.454906 0
M  V30 12 C 3.142255 1.435360 0.368956 0
M  V30 13 C 2.422208 2.255939 -0.475740 0
M  V30 14 N 1.083685 2.428366 -0.384075 0
M  V30 15 C 0.403083 1.766921 0.582569 0
M  V30 16 N -0.985114 1.775184 0.891847 0
M  V30 17 C -1.869174 0.873642 0.232999 0
M  V30 18 C -3.226732 0.800020 0.469117 0
M  V30 19 C -4.001133 -0.095325 -0.216344 0
M  V30 20 C -3.509812 -0.962969 -1.161495 0
M  V30 21 N -4.322941 -1.882683 -1.863529 0
M  V30 22 C -5.750409 -2.017635 -1.677187 0
M  V30 23 C -5.987019 -3.322512 -0.970730 0
M  V30 24 N -4.983771 -4.281509 -1.274168 0
M  V30 25 C -4.405879 -4.191014 -2.597076 0
M  V30 26 C -3.829101 -2.812110 -2.862693 0
M  V30 27 C -2.155622 -0.850185 -1.359104 0
M  V30 28 N -1.364367 0.016947 -0.704571 0
M  V30 29 N 1.084619 0.958009 1.421831 0
M  V30 30 C 2.415548 0.774284 1.346061 0
M  V30 31 H 0.025192 -1.638353 1.795669 0
M  V30 32 H 1.751184 -1.861661 1.190282 0
M  V30 33 H 1.006279 -3.047984 2.275369 0
M  V30 34 H 0.934327 -0.250458 3.483746 0
M  V30 35 H 1.438494 -1.813797 4.154871 0
M  V30 36 H 3.590443 -1.763099 3.168775 0
M  V30 37 H 2.583384 0.718149 4.540823 0
M  V30 38 H 4.326437 0.578014 4.177916 0
M  V30 39 H 3.522813 -0.632049 5.308789 0
M  V30 40 H 5.834745 -0.954312 2.698608 0
M  V30 41 H 7.677588 1.233251 -0.410031 0
M  V30 42 H 5.499678 2.206916 -1.114029 0
M  V30 43 H 2.891797 2.821017 -1.276547 0
M  V30 44 H -1.381533 2.430964 1.596943 0
M  V30 45 H -3.625652 1.481162 1.214064 0
M  V30 46 H -5.043162 -0.069228 0.045969 0
M  V30 47 H -6.235208 -2.123888 -2.692873 0
M  V30 48 H -6.225521 -1.158295 -1.162008 0
M  V30 49 H -5.891323 -3.089197 0.130182 0
M  V30 50 H -7.023590 -3.697498 -1.104247 0
M  V30 51 H -4.294749 -4.488549 -0.547382 0
M  V30 52 H -3.546728 -4.899042 -2.602132 0
M  V30 53 H -5.084498 -4.522754 -3.409085 0
M  V30 54 H -4.301218 -2.462294 -3.828780 0
M  V30 55 H -2.752998 -2.831422 -2.994099 0
M  V30 56 H -1.629161 -1.453012 -2.058007 0
M  V30 END ATOM
M  V30 BEGIN BOND
M  V30 1 1 1 2
M  V30 2 1 2 3
M  V30 3 1 3 4
M  V30 4 1 3 5
M  V30 5 1 5 6
M  V30 6 2 6 7
M  V30 7 1 7 8
M  V30 8 2 8 9
M  V30 9 1 9 10
M  V30 10 2 10 11
M  V30 11 1 11 12
M  V30 12 2 12 13
M  V30 13 1 13 14
M  V30 14 2 14 15
M  V30 15 1 15 16
M  V30 16 1 16 17
M  V30 17 2 17 18
M  V30 18 1 18 19
M  V30 19 2 19 20
M  V30 20 1 20 21
M  V30 21 1 21 22
M  V30 22 1 22 23
M  V30 23 1 23 24
M  V30 24 1 24 25
M  V30 25 1 25 26
M  V30 26 1 20 27
M  V30 27 2 27 28
M  V30 28 1 15 29
M  V30 29 2 29 30
M  V30 30 1 30 5
M  V30 31 1 11 6
M  V30 32 1 30 12
M  V30 33 1 28 17
M  V30 34 1 26 21
M  V30 35 1 1 31
M  V30 36 1 1 32
M  V30 37 1 1 33
M  V30 38 1 2 34
M  V30 39 1 2 35
M  V30 40 1 3 36 CFG=3
M  V30 41 1 4 37
M  V30 42 1 4 38
M  V30 43 1 4 39
M  V30 44 1 7 40
M  V30 45 1 9 41
M  V30 46 1 10 42
M  V30 47 1 13 43
M  V30 48 1 16 44
M  V30 49 1 18 45
M  V30 50 1 19 46
M  V30 51 1 22 47
M  V30 52 1 22 48
M  V30 53 1 23 49
M  V30 54 1 23 50
M  V30 55 1 24 51
M  V30 56 1 25 52
M  V30 57 1 25 53
M  V30 58 1 26 54
M  V30 59 1 26 55
M  V30 60 1 27 56
M  V30 END BOND
M  V30 END CTAB
M  END
>  <Dataset>  (624) 
ChEMBL_Kinases

>  <Ligand_Instance>  (624) 
nan

>  <PDB_ID>  (624) 
nan

>  <Standardized_SMILES>  (624) 
CC[C@H](C)n1c2cnccc2c2cnc(Nc3ccc(N4CCNCC4)cn3)nc21

>  <Name>  (624) 
nan

>  <Pocket>  (624) 
nan

>  <ATP_Site>  (624) 
nan

>  <Peripheral>  (624) 
nan

>  <Num_H_Atoms_ProtBoundConf>  (624) 
nan

>  <Num_Resolved_Atoms>  (624) 
nan

>  <Num_Not_Resolved_Atoms>  (624) 
nan

$$$$
CHEMBL506696
     RDKit          3D

  0  0  0  0  0  0  0  0  0  0999 V3000
M  V30 BEGIN CTAB
M  V30 COUNTS 31 32 0 0 0
M  V30 BEGIN ATOM
M  V30 1 C -3.203306 -4.717345 3.568423 0
M  V30 2 O -1.848621 -4.938028 3.281119 0
M  V30 3 C -1.037423 -4.029963 2.616816 0
M  V30 4 C 0.268964 -4.381276 2.405296 0
M  V30 5 C 1.108521 -3.482694 1.737284 0
M  V30 6 C 0.643395 -2.266062 1.296039 0
M  V30 7 C 1.596893 -1.416100 0.618095 0
M  V30 8 O 2.760727 -1.947563 0.533045 0
M  V30 9 C 1.635880 -0.121144 -0.005973 0
M  V30 10 C 0.795441 0.865277 -0.229726 0
M  V30 11 C 1.023112 2.138197 -0.897928 0
M  V30 12 C 2.198642 2.560793 -1.437860 0
M  V30 13 C 2.376893 3.776370 -2.064619 0
M  V30 14 C 1.288991 4.618062 -2.148288 0
M  V30 15 C 0.101965 4.182594 -1.598942 0
M  V30 16 N -0.012858 2.986627 -0.999806 0
M  V30 17 C -0.679770 -2.017310 1.560944 0
M  V30 18 C -1.573861 -2.831646 2.204858 0
M  V30 19 H -3.796830 -4.868746 2.639251 0
M  V30 20 H -3.511046 -5.441284 4.374255 0
M  V30 21 H -3.411719 -3.696648 3.934591 0
M  V30 22 H 0.629912 -5.334422 2.751980 0
M  V30 23 H 2.108492 -3.845186 1.619660 0
M  V30 24 H 2.584160 0.229008 -0.445894 0
M  V30 25 H -0.189819 0.653218 0.155536 0
M  V30 26 H 3.059194 1.936457 -1.391288 0
M  V30 27 H 3.331171 4.072678 -2.480804 0
M  V30 28 H 1.373125 5.588842 -2.631990 0
M  V30 29 H -0.759400 4.837149 -1.659569 0
M  V30 30 H -1.101893 -1.081813 1.240301 0
M  V30 31 H -2.604297 -2.552356 2.370660 0
M  V30 END ATOM
M  V30 BEGIN BOND
M  V30 1 1 1 2
M  V30 2 1 2 3
M  V30 3 2 3 4
M  V30 4 1 4 5
M  V30 5 2 5 6
M  V30 6 1 6 7
M  V30 7 2 7 8
M  V30 8 1 7 9
M  V30 9 2 9 10
M  V30 10 1 10 11
M  V30 11 2 11 12
M  V30 12 1 12 13
M  V30 13 2 13 14
M  V30 14 1 14 15
M  V30 15 2 15 16
M  V30 16 1 6 17
M  V30 17 2 17 18
M  V30 18 1 18 3
M  V30 19 1 16 11
M  V30 20 1 1 19
M  V30 21 1 1 20
M  V30 22 1 1 21
M  V30 23 1 4 22
M  V30 24 1 5 23
M  V30 25 1 9 24
M  V30 26 1 10 25
M  V30 27 1 12 26
M  V30 28 1 13 27
M  V30 29 1 14 28
M  V30 30 1 15 29
M  V30 31 1 17 30
M  V30 32 1 18 31
M  V30 END BOND
M  V30 END CTAB
M  END
>  <Dataset>  (625) 
ChEMBL_Kinases

>  <Ligand_Instance>  (625) 
nan

>  <PDB_ID>  (625) 
nan

>  <Standardized_SMILES>  (625) 
COc1ccc(C(=O)/C=C/c2ccccn2)cc1

>  <Name>  (625) 
nan

>  <Pocket>  (625) 
nan

>  <ATP_Site>  (625) 
nan

>  <Peripheral>  (625) 
nan

>  <Num_H_Atoms_ProtBoundConf>  (625) 
nan

>  <Num_Resolved_Atoms>  (625) 
nan

>  <Num_Not_Resolved_Atoms>  (625) 
nan

$$$$
CHEMBL3798663
     RDKit          3D

  0  0  0  0  0  0  0  0  0  0999 V3000
M  V30 BEGIN CTAB
M  V30 COUNTS 58 62 0 0 0
M  V30 BEGIN ATOM
M  V30 1 O 1.295622 -1.061506 3.637238 0
M  V30 2 C 2.448372 -1.299102 3.186365 0
M  V30 3 N 3.450337 -2.292346 3.403032 0
M  V30 4 C 4.482954 -2.202700 2.411064 0
M  V30 5 C 4.496983 -0.708719 2.090165 0
M  V30 6 C 3.019722 -0.384487 2.164284 0
M  V30 7 C 2.755863 1.071686 2.482701 0
M  V30 8 C 1.480514 1.554799 1.792215 0
M  V30 9 N 1.753719 1.576336 0.347229 0
M  V30 10 C 0.985996 2.546130 -0.308517 0
M  V30 11 C 1.626951 3.766857 -0.377864 0
M  V30 12 Cl 3.238558 4.094169 0.266388 0
M  V30 13 C 1.038018 4.873445 -0.979273 0
M  V30 14 N -0.190645 4.775234 -1.515564 0
M  V30 15 C -0.823951 3.591635 -1.453821 0
M  V30 16 C -0.268965 2.475310 -0.865212 0
M  V30 17 C -0.952431 1.203094 -0.805967 0
M  V30 18 C -0.602365 -0.093552 -1.109650 0
M  V30 19 C -1.473354 -1.126726 -0.940487 0
M  V30 20 C -2.756481 -0.922772 -0.454049 0
M  V30 21 C -3.591013 -2.112774 -0.320189 0
M  V30 22 C -4.601817 -2.377604 0.605415 0
M  V30 23 N -5.097464 -3.613974 0.339767 0
M  V30 24 N -4.454158 -4.141177 -0.701777 0
M  V30 25 C -4.604154 -5.421043 -1.370136 0
M  V30 26 C -3.677912 -6.445733 -0.703339 0
M  V30 27 O -3.979162 -6.605651 0.626515 0
M  V30 28 C -3.539740 -3.242282 -1.110357 0
M  V30 29 C -3.147274 0.362011 -0.137798 0
M  V30 30 C -2.247736 1.420577 -0.313461 0
M  V30 31 C 2.764191 0.586309 -0.030041 0
M  V30 32 C 2.447891 -0.659982 0.769017 0
M  V30 33 H 3.317526 -2.944811 4.230033 0
M  V30 34 H 4.120296 -2.734974 1.510212 0
M  V30 35 H 5.467359 -2.554710 2.772064 0
M  V30 36 H 4.888967 -0.595353 1.050411 0
M  V30 37 H 5.100458 -0.149330 2.833152 0
M  V30 38 H 2.542589 1.145120 3.579514 0
M  V30 39 H 3.636725 1.649062 2.209449 0
M  V30 40 H 1.291386 2.554752 2.189161 0
M  V30 41 H 0.695553 0.820971 2.010794 0
M  V30 42 H 1.491454 5.843069 -1.059985 0
M  V30 43 H -1.814951 3.524956 -1.890041 0
M  V30 44 H 0.402267 -0.127406 -1.479072 0
M  V30 45 H -1.043246 -2.094775 -1.227314 0
M  V30 46 H -4.920999 -1.705755 1.388855 0
M  V30 47 H -5.654618 -5.778852 -1.209061 0
M  V30 48 H -4.351567 -5.342086 -2.432058 0
M  V30 49 H -3.602685 -7.363276 -1.282315 0
M  V30 50 H -2.662062 -5.957140 -0.777160 0
M  V30 51 H -3.466357 -5.959364 1.159698 0
M  V30 52 H -2.840483 -3.333855 -1.929306 0
M  V30 53 H -4.146692 0.447502 0.230929 0
M  V30 54 H -2.727720 2.363765 -0.012346 0
M  V30 55 H 2.745420 0.395549 -1.121914 0
M  V30 56 H 3.748133 1.006315 0.278018 0
M  V30 57 H 2.895658 -1.570057 0.326727 0
M  V30 58 H 1.355127 -0.762632 0.914926 0
M  V30 END ATOM
M  V30 BEGIN BOND
M  V30 1 2 1 2
M  V30 2 1 2 3
M  V30 3 1 3 4
M  V30 4 1 4 5
M  V30 5 1 5 6
M  V30 6 1 6 7
M  V30 7 1 7 8
M  V30 8 1 8 9
M  V30 9 1 9 10
M  V30 10 2 10 11
M  V30 11 1 11 12
M  V30 12 1 11 13
M  V30 13 2 13 14
M  V30 14 1 14 15
M  V30 15 2 15 16
M  V30 16 1 16 17
M  V30 17 2 17 18
M  V30 18 1 18 19
M  V30 19 2 19 20
M  V30 20 1 20 21
M  V30 21 1 21 22
M  V30 22 2 22 23
M  V30 23 1 23 24
M  V30 24 1 24 25
M  V30 25 1 25 26
M  V30 26 1 26 27
M  V30 27 1 24 28
M  V30 28 1 20 29
M  V30 29 2 29 30
M  V30 30 1 9 31
M  V30 31 1 31 32
M  V30 32 1 6 2
M  V30 33 1 16 10
M  V30 34 1 30 17
M  V30 35 1 32 6
M  V30 36 2 28 21
M  V30 37 1 3 33
M  V30 38 1 4 34
M  V30 39 1 4 35
M  V30 40 1 5 36
M  V30 41 1 5 37
M  V30 42 1 7 38
M  V30 43 1 7 39
M  V30 44 1 8 40
M  V30 45 1 8 41
M  V30 46 1 13 42
M  V30 47 1 15 43
M  V30 48 1 18 44
M  V30 49 1 19 45
M  V30 50 1 22 46
M  V30 51 1 25 47
M  V30 52 1 25 48
M  V30 53 1 26 49
M  V30 54 1 26 50
M  V30 55 1 27 51
M  V30 56 1 28 52
M  V30 57 1 29 53
M  V30 58 1 30 54
M  V30 59 1 31 55
M  V30 60 1 31 56
M  V30 61 1 32 57
M  V30 62 1 32 58
M  V30 END BOND
M  V30 END CTAB
M  END
>  <Dataset>  (626) 
ChEMBL_Kinases

>  <Ligand_Instance>  (626) 
nan

>  <PDB_ID>  (626) 
nan

>  <Standardized_SMILES>  (626) 
O=C1NCCC12CCN(c1c(Cl)cncc1-c1ccc(-c3cnn(CCO)c3)cc1)CC2

>  <Name>  (626) 
nan

>  <Pocket>  (626) 
nan

>  <ATP_Site>  (626) 
nan

>  <Peripheral>  (626) 
nan

>  <Num_H_Atoms_ProtBoundConf>  (626) 
nan

>  <Num_Resolved_Atoms>  (626) 
nan

>  <Num_Not_Resolved_Atoms>  (626) 
nan

$$$$
CHEMBL3798726
     RDKit          3D

  0  0  0  0  0  0  0  0  0  0999 V3000
M  V30 BEGIN CTAB
M  V30 COUNTS 56 60 0 0 0
M  V30 BEGIN ATOM
M  V30 1 C 1.191152 0.824319 6.186412 0
M  V30 2 N 0.476276 0.611459 4.942989 0
M  V30 3 C 0.936284 0.413590 3.604062 0
M  V30 4 C 2.211204 0.014840 3.267716 0
M  V30 5 C 2.520570 -0.140849 1.913675 0
M  V30 6 C 1.589878 0.090689 0.879056 0
M  V30 7 C 1.971187 -0.013862 -0.508223 0
M  V30 8 C 2.868819 1.055509 -0.625909 0
M  V30 9 N 3.412863 1.381429 -1.828694 0
M  V30 10 C 3.046935 0.630388 -2.881762 0
M  V30 11 C 2.147822 -0.443658 -2.759586 0
M  V30 12 C 1.971574 -1.132031 -4.017387 0
M  V30 13 F 2.602982 -0.470820 -5.097134 0
M  V30 14 F 0.669531 -1.046798 -4.416762 0
M  V30 15 F 2.304218 -2.462039 -4.087475 0
M  V30 16 C 1.587839 -0.789470 -1.559902 0
M  V30 17 N 0.750115 -1.856232 -1.322947 0
M  V30 18 C 0.338474 -2.386974 -0.036187 0
M  V30 19 C -1.117348 -2.369816 0.214990 0
M  V30 20 C -2.037628 -2.004423 -0.899715 0
M  V30 21 C -2.612108 -0.634314 -0.661352 0
M  V30 22 C -4.097606 -0.731846 -0.916100 0
M  V30 23 N -4.379715 -2.101638 -0.478296 0
M  V30 24 C -3.239558 -2.875576 -0.829093 0
M  V30 25 O -3.079542 -4.099432 -1.076218 0
M  V30 26 C -1.439974 -2.132259 -2.264715 0
M  V30 27 C -0.030989 -2.731233 -2.159122 0
M  V30 28 C 0.354200 0.485552 1.372965 0
M  V30 29 C -0.004780 0.654018 2.679062 0
M  V30 30 C -1.347129 1.084606 3.138158 0
M  V30 31 S -1.261132 0.548874 4.831593 0
M  V30 32 O -1.762452 -0.860897 4.932498 0
M  V30 33 O -1.930937 1.470934 5.770318 0
M  V30 34 H 1.128582 1.909446 6.481484 0
M  V30 35 H 2.249004 0.575300 6.127469 0
M  V30 36 H 0.716566 0.274375 7.015373 0
M  V30 37 H 2.982579 -0.182952 3.994310 0
M  V30 38 H 3.537351 -0.456939 1.670422 0
M  V30 39 H 3.261902 1.748552 0.117416 0
M  V30 40 H 3.520438 0.945651 -3.824444 0
M  V30 41 H 0.911934 -2.150894 0.836092 0
M  V30 42 H 0.602771 -3.542129 -0.044940 0
M  V30 43 H -1.421289 -3.396647 0.616143 0
M  V30 44 H -1.320195 -1.734507 1.104164 0
M  V30 45 H -2.505138 -0.323806 0.401408 0
M  V30 46 H -2.147368 0.118646 -1.319776 0
M  V30 47 H -4.642084 -0.032063 -0.264590 0
M  V30 48 H -4.349356 -0.590940 -1.974432 0
M  V30 49 H -5.176950 -2.570287 -0.005880 0
M  V30 50 H -1.438531 -1.149361 -2.757123 0
M  V30 51 H -2.011064 -2.813117 -2.915750 0
M  V30 52 H 0.323774 -3.108094 -3.063958 0
M  V30 53 H -0.272826 -3.740738 -1.644890 0
M  V30 54 H -0.326918 0.655436 0.522276 0
M  V30 55 H -1.447667 2.188863 3.157145 0
M  V30 56 H -2.163035 0.588304 2.588010 0
M  V30 END ATOM
M  V30 BEGIN BOND
M  V30 1 1 1 2
M  V30 2 1 2 3
M  V30 3 2 3 4
M  V30 4 1 4 5
M  V30 5 2 5 6
M  V30 6 1 6 7
M  V30 7 2 7 8
M  V30 8 1 8 9
M  V30 9 2 9 10
M  V30 10 1 10 11
M  V30 11 1 11 12
M  V30 12 1 12 13
M  V30 13 1 12 14
M  V30 14 1 12 15
M  V30 15 2 11 16
M  V30 16 1 16 17
M  V30 17 1 17 18
M  V30 18 1 18 19
M  V30 19 1 19 20
M  V30 20 1 20 21
M  V30 21 1 21 22
M  V30 22 1 22 23
M  V30 23 1 23 24
M  V30 24 2 24 25
M  V30 25 1 20 26
M  V30 26 1 26 27
M  V30 27 1 6 28
M  V30 28 2 28 29
M  V30 29 1 29 30
M  V30 30 1 30 31
M  V30 31 2 31 32
M  V30 32 2 31 33
M  V30 33 1 31 2
M  V30 34 1 29 3
M  V30 35 1 16 7
M  V30 36 1 27 17
M  V30 37 1 24 20
M  V30 38 1 1 34
M  V30 39 1 1 35
M  V30 40 1 1 36
M  V30 41 1 4 37
M  V30 42 1 5 38
M  V30 43 1 8 39
M  V30 44 1 10 40
M  V30 45 1 18 41
M  V30 46 1 18 42
M  V30 47 1 19 43
M  V30 48 1 19 44
M  V30 49 1 21 45
M  V30 50 1 21 46
M  V30 51 1 22 47
M  V30 52 1 22 48
M  V30 53 1 23 49
M  V30 54 1 26 50
M  V30 55 1 26 51
M  V30 56 1 27 52
M  V30 57 1 27 53
M  V30 58 1 28 54
M  V30 59 1 30 55
M  V30 60 1 30 56
M  V30 END BOND
M  V30 END CTAB
M  END
>  <Dataset>  (627) 
ChEMBL_Kinases

>  <Ligand_Instance>  (627) 
nan

>  <PDB_ID>  (627) 
nan

>  <Standardized_SMILES>  (627) 
CN1c2ccc(-c3cncc(C(F)(F)F)c3N3CCC4(CCNC4=O)CC3)cc2CS1(=O)=O

>  <Name>  (627) 
nan

>  <Pocket>  (627) 
nan

>  <ATP_Site>  (627) 
nan

>  <Peripheral>  (627) 
nan

>  <Num_H_Atoms_ProtBoundConf>  (627) 
nan

>  <Num_Resolved_Atoms>  (627) 
nan

>  <Num_Not_Resolved_Atoms>  (627) 
nan

$$$$
CHEMBL3702231
     RDKit          3D

  0  0  0  0  0  0  0  0  0  0999 V3000
M  V30 BEGIN CTAB
M  V30 COUNTS 55 59 0 0 0
M  V30 BEGIN ATOM
M  V30 1 C 1.118254 -1.912319 2.049650 0
M  V30 2 C 1.613406 -1.136493 3.233635 0
M  V30 3 C 3.063148 -0.734448 3.100859 0 CFG=2
M  V30 4 C 3.470219 0.046728 4.350208 0
M  V30 5 N 3.290353 0.158715 1.990200 0
M  V30 6 C 4.489955 0.401794 1.433024 0
M  V30 7 C 5.752544 -0.108703 1.752919 0
M  V30 8 N 6.804263 0.319877 1.010048 0
M  V30 9 C 6.646831 1.187795 0.019432 0
M  V30 10 C 5.443830 1.729803 -0.350942 0
M  V30 11 C 4.364021 1.304920 0.393909 0
M  V30 12 C 3.012454 1.580225 0.372360 0
M  V30 13 C 2.242017 2.409960 -0.434198 0
M  V30 14 N 0.890571 2.553574 -0.299217 0
M  V30 15 C 0.273281 1.837154 0.686447 0
M  V30 16 N -1.106290 1.810711 1.032598 0
M  V30 17 C -1.955165 0.875751 0.361573 0
M  V30 18 C -3.302427 0.766988 0.627968 0
M  V30 19 C -4.137711 -0.135323 -0.020098 0
M  V30 20 C -3.548917 -0.930130 -0.956915 0
M  V30 21 N -4.303173 -1.886514 -1.679691 0
M  V30 22 C -5.716294 -2.163856 -1.522881 0
M  V30 23 C -5.831825 -3.486902 -0.821187 0
M  V30 24 N -4.835915 -4.378110 -1.318939 0
M  V30 25 C -4.352261 -4.081501 -2.647007 0
M  V30 26 C -3.675507 -2.726289 -2.711626 0
M  V30 27 N -2.243349 -0.824937 -1.215076 0
M  V30 28 N -1.457533 0.039251 -0.590546 0
M  V30 29 N 0.990467 1.024490 1.484792 0
M  V30 30 C 2.335398 0.876446 1.356449 0
M  V30 31 H 0.076706 -1.661720 1.813904 0
M  V30 32 H 1.812780 -1.769962 1.183708 0
M  V30 33 H 1.139746 -3.023669 2.240240 0
M  V30 34 H 0.966237 -0.271134 3.496596 0
M  V30 35 H 1.575055 -1.824689 4.121441 0
M  V30 36 H 3.676403 -1.629880 3.004569 0
M  V30 37 H 2.610710 0.605624 4.767691 0
M  V30 38 H 4.288423 0.740666 4.102426 0
M  V30 39 H 3.793224 -0.679225 5.108423 0
M  V30 40 H 5.925898 -0.820957 2.555836 0
M  V30 41 H 7.532783 1.490311 -0.537402 0
M  V30 42 H 5.285022 2.446916 -1.163111 0
M  V30 43 H 2.694655 2.991881 -1.223843 0
M  V30 44 H -1.560623 2.422125 1.743727 0
M  V30 45 H -3.742874 1.409445 1.375250 0
M  V30 46 H -5.187615 -0.179728 0.227457 0
M  V30 47 H -6.170219 -2.246681 -2.541318 0
M  V30 48 H -6.281828 -1.356078 -1.021297 0
M  V30 49 H -5.606937 -3.292266 0.267377 0
M  V30 50 H -6.858364 -3.901954 -0.845534 0
M  V30 51 H -4.073110 -4.627757 -0.674274 0
M  V30 52 H -3.578796 -4.839748 -2.887478 0
M  V30 53 H -5.140950 -4.213093 -3.419779 0
M  V30 54 H -3.965917 -2.289634 -3.705780 0
M  V30 55 H -2.599973 -2.838384 -2.569327 0
M  V30 END ATOM
M  V30 BEGIN BOND
M  V30 1 1 1 2
M  V30 2 1 2 3
M  V30 3 1 3 4
M  V30 4 1 3 5
M  V30 5 1 5 6
M  V30 6 2 6 7
M  V30 7 1 7 8
M  V30 8 2 8 9
M  V30 9 1 9 10
M  V30 10 2 10 11
M  V30 11 1 11 12
M  V30 12 2 12 13
M  V30 13 1 13 14
M  V30 14 2 14 15
M  V30 15 1 15 16
M  V30 16 1 16 17
M  V30 17 2 17 18
M  V30 18 1 18 19
M  V30 19 2 19 20
M  V30 20 1 20 21
M  V30 21 1 21 22
M  V30 22 1 22 23
M  V30 23 1 23 24
M  V30 24 1 24 25
M  V30 25 1 25 26
M  V30 26 1 20 27
M  V30 27 2 27 28
M  V30 28 1 15 29
M  V30 29 2 29 30
M  V30 30 1 30 5
M  V30 31 1 11 6
M  V30 32 1 30 12
M  V30 33 1 28 17
M  V30 34 1 26 21
M  V30 35 1 1 31
M  V30 36 1 1 32
M  V30 37 1 1 33
M  V30 38 1 2 34
M  V30 39 1 2 35
M  V30 40 1 3 36 CFG=3
M  V30 41 1 4 37
M  V30 42 1 4 38
M  V30 43 1 4 39
M  V30 44 1 7 40
M  V30 45 1 9 41
M  V30 46 1 10 42
M  V30 47 1 13 43
M  V30 48 1 16 44
M  V30 49 1 18 45
M  V30 50 1 19 46
M  V30 51 1 22 47
M  V30 52 1 22 48
M  V30 53 1 23 49
M  V30 54 1 23 50
M  V30 55 1 24 51
M  V30 56 1 25 52
M  V30 57 1 25 53
M  V30 58 1 26 54
M  V30 59 1 26 55
M  V30 END BOND
M  V30 END CTAB
M  END
>  <Dataset>  (628) 
ChEMBL_Kinases

>  <Ligand_Instance>  (628) 
nan

>  <PDB_ID>  (628) 
nan

>  <Standardized_SMILES>  (628) 
CC[C@H](C)n1c2cnccc2c2cnc(Nc3ccc(N4CCNCC4)nn3)nc21

>  <Name>  (628) 
nan

>  <Pocket>  (628) 
nan

>  <ATP_Site>  (628) 
nan

>  <Peripheral>  (628) 
nan

>  <Num_H_Atoms_ProtBoundConf>  (628) 
nan

>  <Num_Resolved_Atoms>  (628) 
nan

>  <Num_Not_Resolved_Atoms>  (628) 
nan

$$$$
CHEMBL3798713
     RDKit          3D

  0  0  0  0  0  0  0  0  0  0999 V3000
M  V30 BEGIN CTAB
M  V30 COUNTS 44 47 0 0 0
M  V30 BEGIN ATOM
M  V30 1 C 0.974938 -3.702525 2.623088 0
M  V30 2 C 0.471686 -3.174567 1.297541 0
M  V30 3 N -0.624968 -2.268496 1.400888 0
M  V30 4 C -0.546395 -0.869047 1.105628 0
M  V30 5 C 0.473831 -0.408703 0.302813 0
M  V30 6 C 0.681567 0.910323 -0.067791 0
M  V30 7 C 1.806433 1.302195 -0.931733 0
M  V30 8 C 2.133163 0.602547 -2.098177 0
M  V30 9 N 3.196501 1.171285 -2.689920 0
M  V30 10 C 3.596655 2.242197 -1.947919 0
M  V30 11 N 4.567746 3.170878 -2.024628 0
M  V30 12 C 4.678432 4.131602 -1.068221 0
M  V30 13 C 3.818855 4.210397 0.016531 0
M  V30 14 C 2.822570 3.280827 0.121367 0
M  V30 15 C 2.738198 2.314496 -0.871694 0
M  V30 16 C -0.229231 1.857654 0.418974 0
M  V30 17 C -1.271042 1.431740 1.230560 0
M  V30 18 C -1.410082 0.109128 1.553154 0
M  V30 19 C -2.515574 -0.306936 2.409892 0
M  V30 20 O -3.381103 0.500600 2.888394 0
M  V30 21 N -2.591749 -1.718715 2.703654 0
M  V30 22 C -1.940218 -2.695937 1.829982 0
M  V30 23 C -1.932925 -3.982392 2.624581 0
M  V30 24 C -2.848321 -2.820127 0.608662 0
M  V30 25 H 0.658986 -4.744977 2.835500 0
M  V30 26 H 0.790253 -2.995373 3.463257 0
M  V30 27 H 2.081913 -3.757797 2.553993 0
M  V30 28 H 1.335603 -2.767100 0.763059 0
M  V30 29 H 0.106923 -4.073519 0.739954 0
M  V30 30 H 1.206157 -1.077552 -0.111063 0
M  V30 31 H 1.654689 -0.275004 -2.532955 0
M  V30 32 H 3.732053 0.957071 -3.550767 0
M  V30 33 H 5.506114 4.820924 -1.247816 0
M  V30 34 H 3.982137 5.006178 0.724083 0
M  V30 35 H 2.161339 3.349473 0.964747 0
M  V30 36 H -0.110781 2.901624 0.159191 0
M  V30 37 H -1.986776 2.158548 1.616720 0
M  V30 38 H -3.133955 -1.970661 3.563517 0
M  V30 39 H -2.983881 -4.296110 2.880469 0
M  V30 40 H -1.433960 -3.884418 3.591474 0
M  V30 41 H -1.567469 -4.802728 1.976854 0
M  V30 42 H -2.743854 -3.794031 0.115993 0
M  V30 43 H -3.902220 -2.751379 0.976520 0
M  V30 44 H -2.624351 -1.962415 -0.040765 0
M  V30 END ATOM
M  V30 BEGIN BOND
M  V30 1 1 1 2
M  V30 2 1 2 3
M  V30 3 1 3 4
M  V30 4 2 4 5
M  V30 5 1 5 6
M  V30 6 1 6 7
M  V30 7 2 7 8
M  V30 8 1 8 9
M  V30 9 1 9 10
M  V30 10 2 10 11
M  V30 11 1 11 12
M  V30 12 2 12 13
M  V30 13 1 13 14
M  V30 14 2 14 15
M  V30 15 2 6 16
M  V30 16 1 16 17
M  V30 17 2 17 18
M  V30 18 1 18 19
M  V30 19 2 19 20
M  V30 20 1 19 21
M  V30 21 1 21 22
M  V30 22 1 22 23
M  V30 23 1 22 24
M  V30 24 1 22 3
M  V30 25 1 18 4
M  V30 26 1 15 7
M  V30 27 1 15 10
M  V30 28 1 1 25
M  V30 29 1 1 26
M  V30 30 1 1 27
M  V30 31 1 2 28
M  V30 32 1 2 29
M  V30 33 1 5 30
M  V30 34 1 8 31
M  V30 35 1 9 32
M  V30 36 1 12 33
M  V30 37 1 13 34
M  V30 38 1 14 35
M  V30 39 1 16 36
M  V30 40 1 17 37
M  V30 41 1 21 38
M  V30 42 1 23 39
M  V30 43 1 23 40
M  V30 44 1 23 41
M  V30 45 1 24 42
M  V30 46 1 24 43
M  V30 47 1 24 44
M  V30 END BOND
M  V30 END CTAB
M  END
>  <Dataset>  (629) 
ChEMBL_Kinases

>  <Ligand_Instance>  (629) 
nan

>  <PDB_ID>  (629) 
nan

>  <Standardized_SMILES>  (629) 
CCN1c2cc(-c3c[nH]c4ncccc34)ccc2C(=O)NC1(C)C

>  <Name>  (629) 
nan

>  <Pocket>  (629) 
nan

>  <ATP_Site>  (629) 
nan

>  <Peripheral>  (629) 
nan

>  <Num_H_Atoms_ProtBoundConf>  (629) 
nan

>  <Num_Resolved_Atoms>  (629) 
nan

>  <Num_Not_Resolved_Atoms>  (629) 
nan

$$$$
CHEMBL3798712
     RDKit          3D

  0  0  0  0  0  0  0  0  0  0999 V3000
M  V30 BEGIN CTAB
M  V30 COUNTS 52 56 0 0 0
M  V30 BEGIN ATOM
M  V30 1 C 2.134932 -6.766376 2.746713 0
M  V30 2 N 2.731372 -5.602636 2.091043 0
M  V30 3 C 2.091307 -4.418194 1.954601 0
M  V30 4 C 2.933024 -3.534509 1.290819 0
M  V30 5 C 2.567534 -2.157636 0.970828 0
M  V30 6 C 3.047791 -1.504845 -0.146074 0
M  V30 7 C 2.665447 -0.182081 -0.407365 0
M  V30 8 C 1.792785 0.501650 0.454538 0
M  V30 9 C 1.599712 1.839447 -0.077873 0
M  V30 10 C 2.648670 2.651140 -0.453715 0
M  V30 11 N 2.462719 3.882527 -0.940303 0
M  V30 12 C 1.202869 4.336316 -1.063553 0
M  V30 13 C 0.106321 3.548068 -0.694904 0
M  V30 14 Cl -1.434068 4.336400 -0.939480 0
M  V30 15 C 0.294137 2.256711 -0.184344 0
M  V30 16 N -0.937049 1.659649 0.110944 0
M  V30 17 C -1.791968 1.617744 1.272229 0
M  V30 18 C -2.280620 0.224769 1.461786 0
M  V30 19 C -3.202542 -0.107452 0.323411 0
M  V30 20 C -2.738784 0.370981 -0.998548 0
M  V30 21 C -1.373716 0.947419 -1.076003 0
M  V30 22 C -4.623099 0.292784 0.652939 0
M  V30 23 O -5.014142 -0.790183 1.491479 0
M  V30 24 C -4.490805 -1.977728 0.995521 0
M  V30 25 O -4.822887 -3.188834 1.071333 0
M  V30 26 N -3.335503 -1.551859 0.271223 0
M  V30 27 C 1.327818 -0.172986 1.563274 0
M  V30 28 C 1.712151 -1.472937 1.807144 0
M  V30 29 C 4.085783 -4.239867 1.043377 0
M  V30 30 N 3.936153 -5.483677 1.536742 0
M  V30 31 H 2.871438 -7.505964 3.066821 0
M  V30 32 H 1.548256 -6.367066 3.602774 0
M  V30 33 H 1.396591 -7.230098 2.041673 0
M  V30 34 H 1.104741 -4.187145 2.295209 0
M  V30 35 H 3.710316 -2.098939 -0.753968 0
M  V30 36 H 3.141605 0.155576 -1.321530 0
M  V30 37 H 3.633371 2.193842 -0.316293 0
M  V30 38 H 1.120765 5.337338 -1.462249 0
M  V30 39 H -1.363130 2.083978 2.162222 0
M  V30 40 H -2.687174 2.239363 1.009376 0
M  V30 41 H -2.890568 0.145314 2.393999 0
M  V30 42 H -1.531583 -0.562197 1.509551 0
M  V30 43 H -3.473670 1.149520 -1.342762 0
M  V30 44 H -2.824872 -0.424550 -1.793314 0
M  V30 45 H -0.665941 0.114399 -1.316166 0
M  V30 46 H -1.379930 1.661397 -1.945597 0
M  V30 47 H -5.219003 0.231824 -0.275581 0
M  V30 48 H -4.670022 1.254775 1.168129 0
M  V30 49 H -2.646211 -2.153977 -0.243872 0
M  V30 50 H 0.677737 0.471284 2.132707 0
M  V30 51 H 1.281829 -1.895798 2.706793 0
M  V30 52 H 4.934455 -3.823226 0.537987 0
M  V30 END ATOM
M  V30 BEGIN BOND
M  V30 1 1 1 2
M  V30 2 1 2 3
M  V30 3 2 3 4
M  V30 4 1 4 5
M  V30 5 2 5 6
M  V30 6 1 6 7
M  V30 7 2 7 8
M  V30 8 1 8 9
M  V30 9 2 9 10
M  V30 10 1 10 11
M  V30 11 2 11 12
M  V30 12 1 12 13
M  V30 13 1 13 14
M  V30 14 2 13 15
M  V30 15 1 15 16
M  V30 16 1 16 17
M  V30 17 1 17 18
M  V30 18 1 18 19
M  V30 19 1 19 20
M  V30 20 1 20 21
M  V30 21 1 19 22
M  V30 22 1 22 23
M  V30 23 1 23 24
M  V30 24 2 24 25
M  V30 25 1 24 26
M  V30 26 1 8 27
M  V30 27 2 27 28
M  V30 28 1 4 29
M  V30 29 2 29 30
M  V30 30 1 30 2
M  V30 31 1 28 5
M  V30 32 1 15 9
M  V30 33 1 21 16
M  V30 34 1 26 19
M  V30 35 1 1 31
M  V30 36 1 1 32
M  V30 37 1 1 33
M  V30 38 1 3 34
M  V30 39 1 6 35
M  V30 40 1 7 36
M  V30 41 1 10 37
M  V30 42 1 12 38
M  V30 43 1 17 39
M  V30 44 1 17 40
M  V30 45 1 18 41
M  V30 46 1 18 42
M  V30 47 1 20 43
M  V30 48 1 20 44
M  V30 49 1 21 45
M  V30 50 1 21 46
M  V30 51 1 22 47
M  V30 52 1 22 48
M  V30 53 1 26 49
M  V30 54 1 27 50
M  V30 55 1 28 51
M  V30 56 1 29 52
M  V30 END BOND
M  V30 END CTAB
M  END
>  <Dataset>  (630) 
ChEMBL_Kinases

>  <Ligand_Instance>  (630) 
nan

>  <PDB_ID>  (630) 
nan

>  <Standardized_SMILES>  (630) 
Cn1cc(-c2ccc(-c3cncc(Cl)c3N3CCC4(CC3)COC(=O)N4)cc2)cn1

>  <Name>  (630) 
nan

>  <Pocket>  (630) 
nan

>  <ATP_Site>  (630) 
nan

>  <Peripheral>  (630) 
nan

>  <Num_H_Atoms_ProtBoundConf>  (630) 
nan

>  <Num_Resolved_Atoms>  (630) 
nan

>  <Num_Not_Resolved_Atoms>  (630) 
nan

$$$$
CHEMBL3798700
     RDKit          3D

  0  0  0  0  0  0  0  0  0  0999 V3000
M  V30 BEGIN CTAB
M  V30 COUNTS 50 53 0 0 0
M  V30 BEGIN ATOM
M  V30 1 O -0.002649 1.375505 1.462620 0
M  V30 2 C 0.999836 0.674761 1.181661 0
M  V30 3 N 2.194578 1.415321 0.977195 0
M  V30 4 C 2.297132 2.864886 1.074338 0
M  V30 5 C 3.261437 3.325762 2.124181 0
M  V30 6 O 3.289751 4.696477 2.166018 0
M  V30 7 C 2.634601 3.364357 -0.281242 0
M  V30 8 C 3.577786 4.254850 -0.746876 0
M  V30 9 C 3.668246 4.545915 -2.077363 0
M  V30 10 C 2.851131 3.992962 -3.041430 0
M  V30 11 C 1.903891 3.101712 -2.594313 0
M  V30 12 Cl 0.866166 2.399503 -3.819683 0
M  V30 13 C 1.797903 2.795470 -1.252327 0
M  V30 14 C 0.956216 -0.779378 1.071042 0
M  V30 15 C 2.038004 -1.579058 0.764537 0
M  V30 16 C 1.947400 -2.952572 0.671031 0
M  V30 17 C 0.706937 -3.510417 0.900473 0
M  V30 18 N 0.374530 -4.816658 0.866227 0
M  V30 19 N -0.895866 -4.907834 1.140908 0
M  V30 20 C -1.411998 -3.671380 1.357892 0
M  V30 21 C -2.814878 -3.356325 1.695606 0
M  V30 22 C -3.674070 -3.119355 0.500267 0
M  V30 23 C -4.293250 -4.376662 -0.055785 0
M  V30 24 O -5.005887 -5.100847 0.855253 0
M  V30 25 C -4.822161 -4.764331 2.170516 0
M  V30 26 C -3.347277 -4.548462 2.469723 0
M  V30 27 C -0.397395 -2.748029 1.208902 0
M  V30 28 C -0.273644 -1.385877 1.294109 0
M  V30 29 H 3.089711 0.935116 0.738354 0
M  V30 30 H 1.299250 3.309268 1.333544 0
M  V30 31 H 2.874150 2.978992 3.103239 0
M  V30 32 H 4.258664 2.882156 1.925853 0
M  V30 33 H 2.418846 5.053614 1.804633 0
M  V30 34 H 4.182837 4.646983 0.050144 0
M  V30 35 H 4.450391 5.258875 -2.303063 0
M  V30 36 H 3.010457 4.293905 -4.061155 0
M  V30 37 H 0.994265 2.068247 -1.053822 0
M  V30 38 H 2.990506 -1.097026 0.592810 0
M  V30 39 H 2.836509 -3.519587 0.426591 0
M  V30 40 H 0.924967 -5.685215 0.672059 0
M  V30 41 H -2.907139 -2.475607 2.376337 0
M  V30 42 H -3.143370 -2.638954 -0.353359 0
M  V30 43 H -4.510385 -2.434019 0.784008 0
M  V30 44 H -5.031801 -4.021711 -0.829506 0
M  V30 45 H -3.520399 -4.930125 -0.612297 0
M  V30 46 H -5.095843 -5.675987 2.769528 0
M  V30 47 H -5.467556 -3.943655 2.531743 0
M  V30 48 H -3.155248 -4.501586 3.547408 0
M  V30 49 H -2.842865 -5.485153 2.102730 0
M  V30 50 H -1.180894 -0.850263 1.540008 0
M  V30 END ATOM
M  V30 BEGIN BOND
M  V30 1 2 1 2
M  V30 2 1 2 3
M  V30 3 1 3 4
M  V30 4 1 4 5
M  V30 5 1 5 6
M  V30 6 1 4 7
M  V30 7 2 7 8
M  V30 8 1 8 9
M  V30 9 2 9 10
M  V30 10 1 10 11
M  V30 11 1 11 12
M  V30 12 2 11 13
M  V30 13 1 2 14
M  V30 14 2 14 15
M  V30 15 1 15 16
M  V30 16 2 16 17
M  V30 17 1 17 18
M  V30 18 1 18 19
M  V30 19 2 19 20
M  V30 20 1 20 21
M  V30 21 1 21 22
M  V30 22 1 22 23
M  V30 23 1 23 24
M  V30 24 1 24 25
M  V30 25 1 25 26
M  V30 26 1 20 27
M  V30 27 2 27 28
M  V30 28 1 13 7
M  V30 29 1 28 14
M  V30 30 1 27 17
M  V30 31 1 26 21
M  V30 32 1 3 29
M  V30 33 1 4 30
M  V30 34 1 5 31
M  V30 35 1 5 32
M  V30 36 1 6 33
M  V30 37 1 8 34
M  V30 38 1 9 35
M  V30 39 1 10 36
M  V30 40 1 13 37
M  V30 41 1 15 38
M  V30 42 1 16 39
M  V30 43 1 18 40
M  V30 44 1 21 41
M  V30 45 1 22 42
M  V30 46 1 22 43
M  V30 47 1 23 44
M  V30 48 1 23 45
M  V30 49 1 25 46
M  V30 50 1 25 47
M  V30 51 1 26 48
M  V30 52 1 26 49
M  V30 53 1 28 50
M  V30 END BOND
M  V30 END CTAB
M  END
>  <Dataset>  (631) 
ChEMBL_Kinases

>  <Ligand_Instance>  (631) 
nan

>  <PDB_ID>  (631) 
nan

>  <Standardized_SMILES>  (631) 
O=C(NC(CO)c1cccc(Cl)c1)c1ccc2[nH]nc(C3CCOCC3)c2c1

>  <Name>  (631) 
nan

>  <Pocket>  (631) 
nan

>  <ATP_Site>  (631) 
nan

>  <Peripheral>  (631) 
nan

>  <Num_H_Atoms_ProtBoundConf>  (631) 
nan

>  <Num_Resolved_Atoms>  (631) 
nan

>  <Num_Not_Resolved_Atoms>  (631) 
nan

$$$$
CHEMBL3702232
     RDKit          3D

  0  0  0  0  0  0  0  0  0  0999 V3000
M  V30 BEGIN CTAB
M  V30 COUNTS 61 65 0 0 0
M  V30 BEGIN ATOM
M  V30 1 C -1.695133 2.412573 2.159734 0
M  V30 2 C -0.374275 1.719842 2.189726 0
M  V30 3 C 0.738645 2.743652 2.373243 0 CFG=2
M  V30 4 C 0.690823 3.728684 1.195897 0
M  V30 5 N 2.033553 2.131646 2.361100 0
M  V30 6 C 2.990626 2.019670 3.298229 0
M  V30 7 C 3.020863 2.475185 4.598577 0
M  V30 8 N 4.109249 2.228915 5.344236 0
M  V30 9 C 5.189931 1.559846 4.914577 0
M  V30 10 C 5.208743 1.081006 3.614533 0
M  V30 11 C 4.094191 1.331083 2.843278 0
M  V30 12 C 3.790991 0.998141 1.535760 0
M  V30 13 C 4.510745 0.303944 0.582842 0
M  V30 14 N 3.991200 0.096108 -0.646868 0
M  V30 15 C 2.750575 0.587992 -0.911931 0
M  V30 16 N 1.953730 0.507335 -2.101389 0
M  V30 17 C 0.816687 -0.351694 -1.995484 0
M  V30 18 C 0.567109 -1.017608 -0.789466 0
M  V30 19 C -0.553981 -1.846673 -0.663411 0
M  V30 20 C -1.435511 -2.018113 -1.744994 0
M  V30 21 N -2.596154 -2.822482 -1.705335 0
M  V30 22 C -3.375639 -3.020003 -2.917271 0
M  V30 23 C -3.577645 -4.481189 -3.152656 0
M  V30 24 N -2.857129 -5.263509 -2.203186 0
M  V30 25 C -3.108461 -4.987329 -0.828545 0
M  V30 26 C -4.402650 -5.565942 -0.295868 0
M  V30 27 C -1.977220 -5.608155 -0.028640 0
M  V30 28 C -3.103195 -3.493018 -0.531415 0
M  V30 29 N -1.136673 -1.344216 -2.887043 0
M  V30 30 N -0.071056 -0.575068 -2.957897 0
M  V30 31 N 2.032823 1.268770 0.007758 0
M  V30 32 C 2.514836 1.502745 1.261769 0
M  V30 33 H -2.271828 2.051467 1.268644 0
M  V30 34 H -2.315934 2.179633 3.052661 0
M  V30 35 H -1.603954 3.519277 2.132992 0
M  V30 36 H -0.350056 1.078207 3.096705 0
M  V30 37 H -0.227917 1.078124 1.300156 0
M  V30 38 H 0.534055 3.299809 3.290678 0
M  V30 39 H 0.011753 4.549608 1.443627 0
M  V30 40 H 0.267936 3.182184 0.323324 0
M  V30 41 H 1.697224 4.153532 0.995655 0
M  V30 42 H 2.146846 3.022871 4.964289 0
M  V30 43 H 6.057624 1.370427 5.529578 0
M  V30 44 H 6.057943 0.546486 3.250847 0
M  V30 45 H 5.495985 -0.103135 0.748344 0
M  V30 46 H 2.044537 0.957492 -3.032189 0
M  V30 47 H 1.201186 -0.939981 0.083449 0
M  V30 48 H -0.754418 -2.358007 0.260800 0
M  V30 49 H -4.336485 -2.446710 -2.862422 0
M  V30 50 H -2.836306 -2.538543 -3.780356 0
M  V30 51 H -4.651115 -4.744650 -3.218389 0
M  V30 52 H -3.124283 -4.727886 -4.160520 0
M  V30 53 H -2.943196 -6.286126 -2.352897 0
M  V30 54 H -4.532916 -6.606969 -0.600666 0
M  V30 55 H -5.292699 -4.995501 -0.638307 0
M  V30 56 H -4.327752 -5.530834 0.805557 0
M  V30 57 H -1.247758 -6.138429 -0.680116 0
M  V30 58 H -1.396207 -4.819533 0.526111 0
M  V30 59 H -2.359530 -6.320337 0.750533 0
M  V30 60 H -4.156315 -3.130558 -0.370711 0
M  V30 61 H -2.554833 -3.264671 0.388195 0
M  V30 END ATOM
M  V30 BEGIN BOND
M  V30 1 1 1 2
M  V30 2 1 2 3
M  V30 3 1 3 4
M  V30 4 1 3 5
M  V30 5 1 5 6
M  V30 6 2 6 7
M  V30 7 1 7 8
M  V30 8 2 8 9
M  V30 9 1 9 10
M  V30 10 2 10 11
M  V30 11 1 11 12
M  V30 12 2 12 13
M  V30 13 1 13 14
M  V30 14 2 14 15
M  V30 15 1 15 16
M  V30 16 1 16 17
M  V30 17 2 17 18
M  V30 18 1 18 19
M  V30 19 2 19 20
M  V30 20 1 20 21
M  V30 21 1 21 22
M  V30 22 1 22 23
M  V30 23 1 23 24
M  V30 24 1 24 25
M  V30 25 1 25 26
M  V30 26 1 25 27
M  V30 27 1 25 28
M  V30 28 1 20 29
M  V30 29 2 29 30
M  V30 30 1 15 31
M  V30 31 2 31 32
M  V30 32 1 32 5
M  V30 33 1 11 6
M  V30 34 1 32 12
M  V30 35 1 30 17
M  V30 36 1 28 21
M  V30 37 1 1 33
M  V30 38 1 1 34
M  V30 39 1 1 35
M  V30 40 1 2 36
M  V30 41 1 2 37
M  V30 42 1 3 38 CFG=1
M  V30 43 1 4 39
M  V30 44 1 4 40
M  V30 45 1 4 41
M  V30 46 1 7 42
M  V30 47 1 9 43
M  V30 48 1 10 44
M  V30 49 1 13 45
M  V30 50 1 16 46
M  V30 51 1 18 47
M  V30 52 1 19 48
M  V30 53 1 22 49
M  V30 54 1 22 50
M  V30 55 1 23 51
M  V30 56 1 23 52
M  V30 57 1 24 53
M  V30 58 1 26 54
M  V30 59 1 26 55
M  V30 60 1 26 56
M  V30 61 1 27 57
M  V30 62 1 27 58
M  V30 63 1 27 59
M  V30 64 1 28 60
M  V30 65 1 28 61
M  V30 END BOND
M  V30 END CTAB
M  END
>  <Dataset>  (632) 
ChEMBL_Kinases

>  <Ligand_Instance>  (632) 
nan

>  <PDB_ID>  (632) 
nan

>  <Standardized_SMILES>  (632) 
CC[C@H](C)n1c2cnccc2c2cnc(Nc3ccc(N4CCNC(C)(C)C4)nn3)nc21

>  <Name>  (632) 
nan

>  <Pocket>  (632) 
nan

>  <ATP_Site>  (632) 
nan

>  <Peripheral>  (632) 
nan

>  <Num_H_Atoms_ProtBoundConf>  (632) 
nan

>  <Num_Resolved_Atoms>  (632) 
nan

>  <Num_Not_Resolved_Atoms>  (632) 
nan

$$$$
CHEMBL3702233
     RDKit          3D

  0  0  0  0  0  0  0  0  0  0999 V3000
M  V30 BEGIN CTAB
M  V30 COUNTS 58 62 0 0 0
M  V30 BEGIN ATOM
M  V30 1 C 2.200629 -2.018641 1.146447 0
M  V30 2 C 3.458689 -1.619105 1.864687 0
M  V30 3 C 3.303273 -0.425507 2.756085 0 CFG=2
M  V30 4 C 2.262760 -0.701832 3.822402 0
M  V30 5 N 3.049173 0.795841 2.041234 0
M  V30 6 C 4.005219 1.556998 1.455180 0
M  V30 7 C 5.374036 1.426098 1.363439 0
M  V30 8 N 6.124405 2.337849 0.712081 0
M  V30 9 C 5.568095 3.426484 0.116699 0
M  V30 10 C 4.187230 3.581583 0.194900 0
M  V30 11 C 3.405344 2.651032 0.861627 0
M  V30 12 C 2.030402 2.549676 1.096876 0
M  V30 13 C 0.954218 3.334729 0.750949 0
M  V30 14 N -0.304854 2.981237 1.124711 0
M  V30 15 C -0.478781 1.846396 1.841006 0
M  V30 16 N -1.687318 1.281988 2.332973 0
M  V30 17 C -2.344104 0.321508 1.517071 0
M  V30 18 C -3.522358 -0.264449 1.935690 0
M  V30 19 C -4.184944 -1.205674 1.173125 0
M  V30 20 C -3.625714 -1.552997 -0.046741 0
M  V30 21 N -4.072719 -2.487330 -1.035423 0
M  V30 22 C -4.879837 -2.278767 -2.236738 0
M  V30 23 C -3.936433 -2.311687 -3.390740 0
M  V30 24 N -2.753459 -3.057968 -3.093973 0
M  V30 25 C -2.967441 -4.213696 -2.280304 0 CFG=1
M  V30 26 C -1.612512 -4.803613 -1.944870 0
M  V30 27 C -3.773270 -3.931240 -1.026209 0
M  V30 28 N -2.469473 -0.968738 -0.443149 0
M  V30 29 N -1.863793 -0.067315 0.321169 0
M  V30 30 N 0.599368 1.099787 2.163250 0
M  V30 31 C 1.855002 1.390327 1.828287 0
M  V30 32 H 1.552761 -2.585989 1.873131 0
M  V30 33 H 1.664224 -1.118959 0.846846 0
M  V30 34 H 2.409072 -2.607778 0.224134 0
M  V30 35 H 4.200271 -1.344466 1.063236 0
M  V30 36 H 3.922781 -2.460745 2.448037 0
M  V30 37 H 4.273267 -0.339666 3.329238 0
M  V30 38 H 1.285652 -1.023740 3.406220 0
M  V30 39 H 2.656447 -1.527182 4.449800 0
M  V30 40 H 2.192158 0.167481 4.511629 0
M  V30 41 H 5.881379 0.583427 1.814737 0
M  V30 42 H 6.218044 4.124972 -0.391626 0
M  V30 43 H 3.717822 4.435652 -0.268139 0
M  V30 44 H 1.103477 4.228884 0.184871 0
M  V30 45 H -2.087834 1.543282 3.238523 0
M  V30 46 H -4.000848 -0.024321 2.882252 0
M  V30 47 H -5.086382 -1.730414 1.367385 0
M  V30 48 H -5.741094 -2.969708 -2.305663 0
M  V30 49 H -5.320558 -1.249731 -2.166619 0
M  V30 50 H -3.601753 -1.249476 -3.589175 0
M  V30 51 H -4.409042 -2.610221 -4.360273 0
M  V30 52 H -1.937892 -2.472754 -2.826432 0
M  V30 53 H -3.489612 -4.985800 -2.879846 0
M  V30 54 H -1.156724 -4.298342 -1.047075 0
M  V30 55 H -0.948740 -4.597472 -2.822176 0
M  V30 56 H -1.639529 -5.892649 -1.807596 0
M  V30 57 H -3.115989 -4.179604 -0.167805 0
M  V30 58 H -4.697581 -4.525507 -1.042089 0
M  V30 END ATOM
M  V30 BEGIN BOND
M  V30 1 1 1 2
M  V30 2 1 2 3
M  V30 3 1 3 4
M  V30 4 1 3 5
M  V30 5 1 5 6
M  V30 6 2 6 7
M  V30 7 1 7 8
M  V30 8 2 8 9
M  V30 9 1 9 10
M  V30 10 2 10 11
M  V30 11 1 11 12
M  V30 12 2 12 13
M  V30 13 1 13 14
M  V30 14 2 14 15
M  V30 15 1 15 16
M  V30 16 1 16 17
M  V30 17 2 17 18
M  V30 18 1 18 19
M  V30 19 2 19 20
M  V30 20 1 20 21
M  V30 21 1 21 22
M  V30 22 1 22 23
M  V30 23 1 23 24
M  V30 24 1 24 25
M  V30 25 1 25 26
M  V30 26 1 25 27
M  V30 27 1 20 28
M  V30 28 2 28 29
M  V30 29 1 15 30
M  V30 30 2 30 31
M  V30 31 1 31 5
M  V30 32 1 11 6
M  V30 33 1 31 12
M  V30 34 1 29 17
M  V30 35 1 27 21
M  V30 36 1 1 32
M  V30 37 1 1 33
M  V30 38 1 1 34
M  V30 39 1 2 35
M  V30 40 1 2 36
M  V30 41 1 3 37 CFG=1
M  V30 42 1 4 38
M  V30 43 1 4 39
M  V30 44 1 4 40
M  V30 45 1 7 41
M  V30 46 1 9 42
M  V30 47 1 10 43
M  V30 48 1 13 44
M  V30 49 1 16 45
M  V30 50 1 18 46
M  V30 51 1 19 47
M  V30 52 1 22 48
M  V30 53 1 22 49
M  V30 54 1 23 50
M  V30 55 1 23 51
M  V30 56 1 24 52
M  V30 57 1 25 53 CFG=3
M  V30 58 1 26 54
M  V30 59 1 26 55
M  V30 60 1 26 56
M  V30 61 1 27 57
M  V30 62 1 27 58
M  V30 END BOND
M  V30 END CTAB
M  END
>  <Dataset>  (633) 
ChEMBL_Kinases

>  <Ligand_Instance>  (633) 
nan

>  <PDB_ID>  (633) 
nan

>  <Standardized_SMILES>  (633) 
CC[C@H](C)n1c2cnccc2c2cnc(Nc3ccc(N4CCN[C@@H](C)C4)nn3)nc21

>  <Name>  (633) 
nan

>  <Pocket>  (633) 
nan

>  <ATP_Site>  (633) 
nan

>  <Peripheral>  (633) 
nan

>  <Num_H_Atoms_ProtBoundConf>  (633) 
nan

>  <Num_Resolved_Atoms>  (633) 
nan

>  <Num_Not_Resolved_Atoms>  (633) 
nan

$$$$
CHEMBL3702234
     RDKit          3D

  0  0  0  0  0  0  0  0  0  0999 V3000
M  V30 BEGIN CTAB
M  V30 COUNTS 61 65 0 0 0
M  V30 BEGIN ATOM
M  V30 1 C -1.253406 0.545640 3.731560 0
M  V30 2 C 0.242810 0.432577 3.428203 0
M  V30 3 C 0.659723 1.737523 2.830638 0 CFG=2
M  V30 4 C -0.140328 1.984040 1.551225 0
M  V30 5 N 2.068196 1.874273 2.611519 0
M  V30 6 C 2.962703 2.571690 3.359205 0
M  V30 7 C 2.822026 3.323373 4.492907 0
M  V30 8 N 3.857976 3.945406 5.089173 0
M  V30 9 C 5.099985 3.836533 4.562541 0
M  V30 10 C 5.303539 3.090528 3.418406 0
M  V30 11 C 4.231770 2.460355 2.820904 0
M  V30 12 C 4.067089 1.657984 1.704181 0
M  V30 13 C 5.041253 1.243763 0.813280 0
M  V30 14 N 4.645252 0.460840 -0.206561 0
M  V30 15 C 3.345432 0.103250 -0.340212 0
M  V30 16 N 2.961711 -0.733578 -1.441944 0
M  V30 17 C 1.615138 -1.152987 -1.649503 0
M  V30 18 C 1.249888 -1.949914 -2.698639 0
M  V30 19 C -0.055298 -2.351714 -2.892244 0
M  V30 20 C -1.039022 -1.951830 -2.016716 0
M  V30 21 N -2.401433 -2.329210 -2.156548 0
M  V30 22 C -2.937772 -3.162102 -3.185430 0
M  V30 23 C -4.109566 -3.994862 -2.779486 0
M  V30 24 C -4.279482 -4.191213 -1.316356 0
M  V30 25 N -3.557727 -5.376448 -0.887077 0
M  V30 26 C -3.980551 -6.588602 -1.512775 0
M  V30 27 C -3.857445 -3.066385 -0.447170 0
M  V30 28 C -3.375125 -1.850211 -1.192703 0
M  V30 29 N -0.653506 -1.169599 -0.995020 0
M  V30 30 N 0.606029 -0.809797 -0.848793 0
M  V30 31 N 2.373746 0.497661 0.521136 0
M  V30 32 C 2.724805 1.292415 1.571474 0
M  V30 33 H -1.551149 1.585394 3.929589 0
M  V30 34 H -1.532373 -0.102983 4.577427 0
M  V30 35 H -1.865186 0.214434 2.861997 0
M  V30 36 H 0.734613 0.274201 4.402102 0
M  V30 37 H 0.352454 -0.402333 2.722846 0
M  V30 38 H 0.355348 2.562954 3.536980 0
M  V30 39 H -0.934141 2.743987 1.697172 0
M  V30 40 H 0.532621 2.266684 0.710603 0
M  V30 41 H -0.649955 1.048731 1.236127 0
M  V30 42 H 1.866081 3.455937 4.968967 0
M  V30 43 H 5.955619 4.335637 5.033837 0
M  V30 44 H 6.296292 2.984500 2.969869 0
M  V30 45 H 6.078816 1.536688 0.930949 0
M  V30 46 H 3.677856 -1.055850 -2.124389 0
M  V30 47 H 2.005952 -2.291594 -3.421582 0
M  V30 48 H -0.280854 -2.970720 -3.725111 0
M  V30 49 H -2.131153 -3.802869 -3.595349 0
M  V30 50 H -3.211575 -2.483347 -4.031112 0
M  V30 51 H -5.022926 -3.535290 -3.212141 0
M  V30 52 H -4.025790 -4.980253 -3.283005 0
M  V30 53 H -5.348991 -4.414952 -1.124203 0
M  V30 54 H -3.531255 -5.453250 0.145341 0
M  V30 55 H -5.078085 -6.696844 -1.600090 0
M  V30 56 H -3.445415 -6.814799 -2.469122 0
M  V30 57 H -3.648659 -7.422295 -0.826141 0
M  V30 58 H -3.042894 -3.342537 0.256959 0
M  V30 59 H -4.690102 -2.720502 0.199331 0
M  V30 60 H -4.212627 -1.404976 -1.782544 0
M  V30 61 H -2.918747 -1.153770 -0.489052 0
M  V30 END ATOM
M  V30 BEGIN BOND
M  V30 1 1 1 2
M  V30 2 1 2 3
M  V30 3 1 3 4
M  V30 4 1 3 5
M  V30 5 1 5 6
M  V30 6 2 6 7
M  V30 7 1 7 8
M  V30 8 2 8 9
M  V30 9 1 9 10
M  V30 10 2 10 11
M  V30 11 1 11 12
M  V30 12 2 12 13
M  V30 13 1 13 14
M  V30 14 2 14 15
M  V30 15 1 15 16
M  V30 16 1 16 17
M  V30 17 2 17 18
M  V30 18 1 18 19
M  V30 19 2 19 20
M  V30 20 1 20 21
M  V30 21 1 21 22
M  V30 22 1 22 23
M  V30 23 1 23 24
M  V30 24 1 24 25
M  V30 25 1 25 26
M  V30 26 1 24 27
M  V30 27 1 27 28
M  V30 28 1 20 29
M  V30 29 2 29 30
M  V30 30 1 15 31
M  V30 31 2 31 32
M  V30 32 1 32 5
M  V30 33 1 11 6
M  V30 34 1 32 12
M  V30 35 1 30 17
M  V30 36 1 28 21
M  V30 37 1 1 33
M  V30 38 1 1 34
M  V30 39 1 1 35
M  V30 40 1 2 36
M  V30 41 1 2 37
M  V30 42 1 3 38 CFG=1
M  V30 43 1 4 39
M  V30 44 1 4 40
M  V30 45 1 4 41
M  V30 46 1 7 42
M  V30 47 1 9 43
M  V30 48 1 10 44
M  V30 49 1 13 45
M  V30 50 1 16 46
M  V30 51 1 18 47
M  V30 52 1 19 48
M  V30 53 1 22 49
M  V30 54 1 22 50
M  V30 55 1 23 51
M  V30 56 1 23 52
M  V30 57 1 24 53
M  V30 58 1 25 54
M  V30 59 1 26 55
M  V30 60 1 26 56
M  V30 61 1 26 57
M  V30 62 1 27 58
M  V30 63 1 27 59
M  V30 64 1 28 60
M  V30 65 1 28 61
M  V30 END BOND
M  V30 END CTAB
M  END
>  <Dataset>  (634) 
ChEMBL_Kinases

>  <Ligand_Instance>  (634) 
nan

>  <PDB_ID>  (634) 
nan

>  <Standardized_SMILES>  (634) 
CC[C@H](C)n1c2cnccc2c2cnc(Nc3ccc(N4CCC(NC)CC4)nn3)nc21

>  <Name>  (634) 
nan

>  <Pocket>  (634) 
nan

>  <ATP_Site>  (634) 
nan

>  <Peripheral>  (634) 
nan

>  <Num_H_Atoms_ProtBoundConf>  (634) 
nan

>  <Num_Resolved_Atoms>  (634) 
nan

>  <Num_Not_Resolved_Atoms>  (634) 
nan

$$$$
CHEMBL5069433
     RDKit          3D

  0  0  0  0  0  0  0  0  0  0999 V3000
M  V30 BEGIN CTAB
M  V30 COUNTS 61 65 0 0 0
M  V30 BEGIN ATOM
M  V30 1 C -1.285564 -3.466070 4.397658 0
M  V30 2 C -0.539402 -2.206311 4.160456 0
M  V30 3 C -0.516517 -1.208934 5.114642 0
M  V30 4 C 0.174709 -0.029378 4.906008 0
M  V30 5 C 0.849121 0.134596 3.712711 0
M  V30 6 N 1.590785 1.341357 3.429689 0
M  V30 7 C 0.698748 2.266745 2.787911 0
M  V30 8 O -0.469851 1.769316 2.653689 0
M  V30 9 C 1.106508 3.605593 2.353191 0
M  V30 10 C 2.373868 4.137893 2.501746 0
M  V30 11 C 2.620147 5.416650 2.044829 0
M  V30 12 N 1.655176 6.127628 1.470331 0
M  V30 13 C 0.434595 5.624303 1.323400 0
M  V30 14 C -0.591241 6.491354 0.666624 0
M  V30 15 F -1.815200 5.848480 0.730399 0
M  V30 16 F -0.743010 7.698711 1.356306 0
M  V30 17 F -0.221585 6.765496 -0.629771 0
M  V30 18 C 0.091793 4.338753 1.755063 0
M  V30 19 C 0.812752 -0.867851 2.780615 0
M  V30 20 C 0.123635 -2.075443 2.956924 0
M  V30 21 C 0.153265 -3.078526 1.892888 0
M  V30 22 C 0.358293 -4.436329 1.983471 0
M  V30 23 C 0.345198 -5.205780 0.840207 0
M  V30 24 C 0.129514 -4.637811 -0.398329 0
M  V30 25 C -0.077624 -3.272913 -0.499059 0
M  V30 26 C -0.065462 -2.503634 0.635434 0
M  V30 27 O -0.303662 -2.594811 -1.686941 0
M  V30 28 C -0.433812 -2.933001 -3.029335 0
M  V30 29 C -1.855426 -3.287296 -3.333824 0
M  V30 30 C -2.746273 -2.136389 -3.671317 0
M  V30 31 O -2.146801 -1.058933 -4.268142 0
M  V30 32 C -1.018607 -0.620180 -3.558695 0
M  V30 33 C 0.023267 -1.700748 -3.821655 0
M  V30 34 C 0.508020 -4.030526 -3.491351 0
M  V30 35 N 0.236461 -5.311299 -2.872646 0
M  V30 36 C 0.158014 -5.646883 -1.476476 0
M  V30 37 O 0.108532 -6.842137 -1.092308 0
M  V30 38 H -0.698364 -4.206162 4.974720 0
M  V30 39 H -2.200219 -3.289795 5.021059 0
M  V30 40 H -1.676747 -3.923415 3.451388 0
M  V30 41 H -1.046876 -1.334790 6.056117 0
M  V30 42 H 0.186431 0.742628 5.656680 0
M  V30 43 H 2.579936 1.637048 3.595082 0
M  V30 44 H 3.113035 3.508634 2.976800 0
M  V30 45 H 3.617754 5.785091 2.182669 0
M  V30 46 H -0.931935 3.981013 1.605219 0
M  V30 47 H 1.347824 -0.720844 1.850850 0
M  V30 48 H 0.516202 -4.777381 2.986561 0
M  V30 49 H 0.511245 -6.271862 0.958202 0
M  V30 50 H -0.236151 -1.459142 0.445816 0
M  V30 51 H -2.279132 -3.794531 -2.442175 0
M  V30 52 H -1.856008 -4.069614 -4.147958 0
M  V30 53 H -3.375211 -1.773438 -2.826899 0
M  V30 54 H -3.482871 -2.533197 -4.427791 0
M  V30 55 H -1.230135 -0.572510 -2.455517 0
M  V30 56 H -0.661966 0.336053 -3.952024 0
M  V30 57 H -0.001984 -1.927786 -4.911058 0
M  V30 58 H 1.027980 -1.429095 -3.456451 0
M  V30 59 H 1.552192 -3.691715 -3.269311 0
M  V30 60 H 0.412857 -4.128762 -4.577521 0
M  V30 61 H 0.061962 -6.162736 -3.483369 0
M  V30 END ATOM
M  V30 BEGIN BOND
M  V30 1 1 1 2
M  V30 2 2 2 3
M  V30 3 1 3 4
M  V30 4 2 4 5
M  V30 5 1 5 6
M  V30 6 1 6 7
M  V30 7 2 7 8
M  V30 8 1 7 9
M  V30 9 2 9 10
M  V30 10 1 10 11
M  V30 11 2 11 12
M  V30 12 1 12 13
M  V30 13 1 13 14
M  V30 14 1 14 15
M  V30 15 1 14 16
M  V30 16 1 14 17
M  V30 17 2 13 18
M  V30 18 1 5 19
M  V30 19 2 19 20
M  V30 20 1 20 21
M  V30 21 2 21 22
M  V30 22 1 22 23
M  V30 23 2 23 24
M  V30 24 1 24 25
M  V30 25 2 25 26
M  V30 26 1 25 27
M  V30 27 1 27 28
M  V30 28 1 28 29
M  V30 29 1 29 30
M  V30 30 1 30 31
M  V30 31 1 31 32
M  V30 32 1 32 33
M  V30 33 1 28 34
M  V30 34 1 34 35
M  V30 35 1 35 36
M  V30 36 2 36 37
M  V30 37 1 20 2
M  V30 38 1 26 21
M  V30 39 1 33 28
M  V30 40 1 18 9
M  V30 41 1 36 24
M  V30 42 1 1 38
M  V30 43 1 1 39
M  V30 44 1 1 40
M  V30 45 1 3 41
M  V30 46 1 4 42
M  V30 47 1 6 43
M  V30 48 1 10 44
M  V30 49 1 11 45
M  V30 50 1 18 46
M  V30 51 1 19 47
M  V30 52 1 22 48
M  V30 53 1 23 49
M  V30 54 1 26 50
M  V30 55 1 29 51
M  V30 56 1 29 52
M  V30 57 1 30 53
M  V30 58 1 30 54
M  V30 59 1 32 55
M  V30 60 1 32 56
M  V30 61 1 33 57
M  V30 62 1 33 58
M  V30 63 1 34 59
M  V30 64 1 34 60
M  V30 65 1 35 61
M  V30 END BOND
M  V30 END CTAB
M  END
>  <Dataset>  (635) 
ChEMBL_Kinases

>  <Ligand_Instance>  (635) 
nan

>  <PDB_ID>  (635) 
nan

>  <Standardized_SMILES>  (635) 
Cc1ccc(NC(=O)c2ccnc(C(F)(F)F)c2)cc1-c1ccc2c(c1)OC1(CCOCC1)CNC2=O

>  <Name>  (635) 
nan

>  <Pocket>  (635) 
nan

>  <ATP_Site>  (635) 
nan

>  <Peripheral>  (635) 
nan

>  <Num_H_Atoms_ProtBoundConf>  (635) 
nan

>  <Num_Resolved_Atoms>  (635) 
nan

>  <Num_Not_Resolved_Atoms>  (635) 
nan

$$$$
CHEMBL379868
     RDKit          3D

  0  0  0  0  0  0  0  0  0  0999 V3000
M  V30 BEGIN CTAB
M  V30 COUNTS 54 58 0 0 0
M  V30 BEGIN ATOM
M  V30 1 C 3.814031 -3.832913 2.387373 0
M  V30 2 C 4.911897 -3.069222 1.728666 0
M  V30 3 N 6.145760 -3.511470 1.380111 0
M  V30 4 N 6.828067 -2.525234 0.817386 0
M  V30 5 C 6.027860 -1.449660 0.806238 0
M  V30 6 C 6.253110 -0.162576 0.331467 0
M  V30 7 C 5.313368 0.852425 0.393033 0
M  V30 8 C 4.097216 0.541277 0.961269 0
M  V30 9 C 3.015983 1.500340 1.096718 0
M  V30 10 C 3.264247 2.863718 1.295465 0
M  V30 11 N 2.271162 3.764374 1.422517 0
M  V30 12 C 0.970558 3.416001 1.367222 0
M  V30 13 C 0.649855 2.087048 1.173093 0
M  V30 14 O -0.585208 1.492370 1.082237 0
M  V30 15 C -1.834417 2.142048 1.173048 0
M  V30 16 C -2.923009 1.068452 1.010864 0 CFG=1
M  V30 17 N -4.200733 1.748039 1.108972 0
M  V30 18 C -2.698941 0.516475 -0.385504 0
M  V30 19 C -3.663766 -0.554741 -0.751009 0
M  V30 20 C -4.875216 -0.302097 -1.365261 0
M  V30 21 N -5.662867 -1.359059 -1.644909 0
M  V30 22 C -5.333047 -2.637081 -1.359213 0
M  V30 23 C -6.192802 -3.679481 -1.675277 0
M  V30 24 C -5.860923 -4.993348 -1.384915 0
M  V30 25 C -4.636732 -5.261913 -0.763141 0
M  V30 26 C -3.758225 -4.248862 -0.435061 0
M  V30 27 C -4.119278 -2.945860 -0.738429 0
M  V30 28 C -3.312372 -1.859926 -0.452149 0
M  V30 29 C 1.670935 1.139585 1.039287 0
M  V30 30 C 3.825566 -0.734235 1.450677 0
M  V30 31 C 4.783056 -1.734641 1.377600 0
M  V30 32 H 4.145411 -4.820971 2.740910 0
M  V30 33 H 2.950853 -3.887820 1.690113 0
M  V30 34 H 3.440511 -3.281021 3.297356 0
M  V30 35 H 7.808047 -2.526545 0.435710 0
M  V30 36 H 7.208794 0.099077 -0.119874 0
M  V30 37 H 5.500066 1.846381 0.020692 0
M  V30 38 H 4.303010 3.178725 1.345070 0
M  V30 39 H 0.115817 4.059298 1.457627 0
M  V30 40 H -1.944673 2.535335 2.207853 0
M  V30 41 H -1.960666 2.933258 0.416249 0
M  V30 42 H -2.865910 0.322642 1.799075 0
M  V30 43 H -4.529423 2.155273 0.218624 0
M  V30 44 H -4.196713 2.463047 1.873636 0
M  V30 45 H -1.664263 0.106618 -0.352845 0
M  V30 46 H -2.741645 1.397031 -1.058430 0
M  V30 47 H -5.149920 0.717956 -1.599176 0
M  V30 48 H -7.151798 -3.489935 -2.160327 0
M  V30 49 H -6.482487 -5.853055 -1.602920 0
M  V30 50 H -4.349398 -6.282720 -0.523821 0
M  V30 51 H -2.801160 -4.411110 0.046139 0
M  V30 52 H -2.354017 -2.074117 0.035266 0
M  V30 53 H 1.535253 0.068514 0.882596 0
M  V30 54 H 2.890133 -1.049148 1.910798 0
M  V30 END ATOM
M  V30 BEGIN BOND
M  V30 1 1 1 2
M  V30 2 2 2 3
M  V30 3 1 3 4
M  V30 4 1 4 5
M  V30 5 2 5 6
M  V30 6 1 6 7
M  V30 7 2 7 8
M  V30 8 1 8 9
M  V30 9 2 9 10
M  V30 10 1 10 11
M  V30 11 2 11 12
M  V30 12 1 12 13
M  V30 13 1 13 14
M  V30 14 1 14 15
M  V30 15 1 15 16
M  V30 16 1 16 17
M  V30 17 1 16 18
M  V30 18 1 18 19
M  V30 19 2 19 20
M  V30 20 1 20 21
M  V30 21 2 21 22
M  V30 22 1 22 23
M  V30 23 2 23 24
M  V30 24 1 24 25
M  V30 25 2 25 26
M  V30 26 1 26 27
M  V30 27 2 27 28
M  V30 28 2 13 29
M  V30 29 1 8 30
M  V30 30 2 30 31
M  V30 31 1 31 2
M  V30 32 1 31 5
M  V30 33 1 29 9
M  V30 34 1 28 19
M  V30 35 1 27 22
M  V30 36 1 1 32
M  V30 37 1 1 33
M  V30 38 1 1 34
M  V30 39 1 4 35
M  V30 40 1 6 36
M  V30 41 1 7 37
M  V30 42 1 10 38
M  V30 43 1 12 39
M  V30 44 1 15 40
M  V30 45 1 15 41
M  V30 46 1 16 42 CFG=1
M  V30 47 1 17 43
M  V30 48 1 17 44
M  V30 49 1 18 45
M  V30 50 1 18 46
M  V30 51 1 20 47
M  V30 52 1 23 48
M  V30 53 1 24 49
M  V30 54 1 25 50
M  V30 55 1 26 51
M  V30 56 1 28 52
M  V30 57 1 29 53
M  V30 58 1 30 54
M  V30 END BOND
M  V30 END CTAB
M  END
>  <Dataset>  (636) 
ChEMBL_Kinases

>  <Ligand_Instance>  (636) 
nan

>  <PDB_ID>  (636) 
nan

>  <Standardized_SMILES>  (636) 
Cc1n[nH]c2ccc(-c3cncc(OC[C@@H](N)Cc4cnc5ccccc5c4)c3)cc12

>  <Name>  (636) 
nan

>  <Pocket>  (636) 
nan

>  <ATP_Site>  (636) 
nan

>  <Peripheral>  (636) 
nan

>  <Num_H_Atoms_ProtBoundConf>  (636) 
nan

>  <Num_Resolved_Atoms>  (636) 
nan

>  <Num_Not_Resolved_Atoms>  (636) 
nan

$$$$
CHEMBL3798679
     RDKit          3D

  0  0  0  0  0  0  0  0  0  0999 V3000
M  V30 BEGIN CTAB
M  V30 COUNTS 51 55 0 0 0
M  V30 BEGIN ATOM
M  V30 1 C -0.929441 -4.027831 1.870206 0
M  V30 2 C -0.340805 -2.698780 2.198802 0
M  V30 3 C 1.185661 -2.845173 2.306804 0
M  V30 4 N -0.780252 -2.414879 3.575896 0
M  V30 5 C -0.328643 -1.233856 4.188978 0
M  V30 6 O -0.198604 -1.123288 5.453284 0
M  V30 7 C -0.022661 -0.146671 3.245543 0
M  V30 8 C 0.419649 1.035444 3.795465 0
M  V30 9 C 0.718791 2.093374 2.969606 0
M  V30 10 C 0.572736 1.957746 1.607089 0
M  V30 11 N 0.882926 3.053472 0.756803 0
M  V30 12 C 0.454629 4.337992 0.671623 0
M  V30 13 O -0.415668 4.760161 1.483400 0
M  V30 14 N 1.108393 4.935779 -0.350011 0
M  V30 15 C 1.955201 4.037138 -0.920277 0
M  V30 16 N 2.786643 4.222481 -1.960778 0
M  V30 17 C 3.547635 3.190734 -2.372336 0
M  V30 18 C 3.468392 1.972011 -1.732537 0
M  V30 19 C 2.605373 1.810982 -0.666632 0
M  V30 20 C 1.801253 2.845290 -0.206583 0
M  V30 21 C 0.126752 0.747948 1.132991 0
M  V30 22 C -0.200641 -0.375357 1.875607 0
M  V30 23 N -0.669507 -1.620049 1.305840 0
M  V30 24 C -1.310002 -1.411663 0.034633 0
M  V30 25 C -1.860377 -2.616081 -0.622014 0
M  V30 26 C -3.107822 -3.198722 -0.503407 0
M  V30 27 C -3.438896 -4.320720 -1.229014 0
M  V30 28 C -2.557576 -4.919819 -2.103834 0
M  V30 29 C -1.299628 -4.374375 -2.256388 0
M  V30 30 C -0.987830 -3.250354 -1.520323 0
M  V30 31 H -0.588170 -4.716199 2.716429 0
M  V30 32 H -0.576084 -4.522181 0.972827 0
M  V30 33 H -2.017964 -3.959872 2.015277 0
M  V30 34 H 1.712508 -1.938147 1.976618 0
M  V30 35 H 1.511130 -3.054651 3.346280 0
M  V30 36 H 1.512694 -3.753358 1.724994 0
M  V30 37 H -1.422664 -3.057531 4.136158 0
M  V30 38 H 0.531624 1.135392 4.858351 0
M  V30 39 H 1.057598 2.990502 3.429963 0
M  V30 40 H 0.943863 5.938665 -0.612048 0
M  V30 41 H 4.267747 3.187662 -3.199869 0
M  V30 42 H 4.040273 1.075850 -1.987440 0
M  V30 43 H 2.517680 0.867633 -0.141061 0
M  V30 44 H 0.044907 0.734473 0.059618 0
M  V30 45 H -0.667532 -0.868726 -0.688741 0
M  V30 46 H -2.178553 -0.745055 0.219625 0
M  V30 47 H -3.747176 -2.672788 0.202694 0
M  V30 48 H -4.435886 -4.703906 -1.069665 0
M  V30 49 H -2.873454 -5.797534 -2.645252 0
M  V30 50 H -0.601596 -4.822634 -2.928730 0
M  V30 51 H 0.031076 -2.867232 -1.689803 0
M  V30 END ATOM
M  V30 BEGIN BOND
M  V30 1 1 1 2
M  V30 2 1 2 3
M  V30 3 1 2 4
M  V30 4 1 4 5
M  V30 5 2 5 6
M  V30 6 1 5 7
M  V30 7 2 7 8
M  V30 8 1 8 9
M  V30 9 2 9 10
M  V30 10 1 10 11
M  V30 11 1 11 12
M  V30 12 2 12 13
M  V30 13 1 12 14
M  V30 14 1 14 15
M  V30 15 2 15 16
M  V30 16 1 16 17
M  V30 17 2 17 18
M  V30 18 1 18 19
M  V30 19 2 19 20
M  V30 20 1 10 21
M  V30 21 2 21 22
M  V30 22 1 22 23
M  V30 23 1 23 24
M  V30 24 1 24 25
M  V30 25 2 25 26
M  V30 26 1 26 27
M  V30 27 2 27 28
M  V30 28 1 28 29
M  V30 29 2 29 30
M  V30 30 1 23 2
M  V30 31 1 30 25
M  V30 32 1 22 7
M  V30 33 1 20 11
M  V30 34 1 20 15
M  V30 35 1 1 31
M  V30 36 1 1 32
M  V30 37 1 1 33
M  V30 38 1 3 34
M  V30 39 1 3 35
M  V30 40 1 3 36
M  V30 41 1 4 37
M  V30 42 1 8 38
M  V30 43 1 9 39
M  V30 44 1 14 40
M  V30 45 1 17 41
M  V30 46 1 18 42
M  V30 47 1 19 43
M  V30 48 1 21 44
M  V30 49 1 24 45
M  V30 50 1 24 46
M  V30 51 1 26 47
M  V30 52 1 27 48
M  V30 53 1 28 49
M  V30 54 1 29 50
M  V30 55 1 30 51
M  V30 END BOND
M  V30 END CTAB
M  END
>  <Dataset>  (637) 
ChEMBL_Kinases

>  <Ligand_Instance>  (637) 
nan

>  <PDB_ID>  (637) 
nan

>  <Standardized_SMILES>  (637) 
CC1(C)NC(=O)c2ccc(-n3c(=O)[nH]c4ncccc43)cc2N1Cc1ccccc1

>  <Name>  (637) 
nan

>  <Pocket>  (637) 
nan

>  <ATP_Site>  (637) 
nan

>  <Peripheral>  (637) 
nan

>  <Num_H_Atoms_ProtBoundConf>  (637) 
nan

>  <Num_Resolved_Atoms>  (637) 
nan

>  <Num_Not_Resolved_Atoms>  (637) 
nan

$$$$
CHEMBL506711
     RDKit          3D

  0  0  0  0  0  0  0  0  0  0999 V3000
M  V30 BEGIN CTAB
M  V30 COUNTS 23 24 0 0 0
M  V30 BEGIN ATOM
M  V30 1 O -0.317830 -2.280402 2.741631 0
M  V30 2 C 0.759340 -1.617937 2.559543 0
M  V30 3 C 1.488446 -1.157559 3.766569 0
M  V30 4 S 3.181135 -1.023571 3.091514 0
M  V30 5 C 2.706200 -0.976650 1.355911 0
M  V30 6 O 3.498286 -0.713286 0.415920 0
M  V30 7 N 1.311290 -1.289211 1.319825 0
M  V30 8 C 0.544385 -1.263423 0.075806 0
M  V30 9 C -0.047016 0.055563 -0.183942 0
M  V30 10 C -0.906090 0.145372 -1.262280 0
M  V30 11 C -1.510885 1.362568 -1.570861 0
M  V30 12 C -1.256710 2.498020 -0.798401 0
M  V30 13 C -0.403191 2.435500 0.283096 0
M  V30 14 C 0.164338 1.208461 0.539783 0
M  V30 15 F 1.005882 1.126900 1.596038 0
M  V30 16 H 1.460679 -1.887034 4.587307 0
M  V30 17 H 1.133355 -0.165002 4.114352 0
M  V30 18 H 1.200036 -1.585120 -0.761345 0
M  V30 19 H -0.228978 -2.060644 0.153702 0
M  V30 20 H -1.189536 -0.654926 -1.941627 0
M  V30 21 H -2.197891 1.565346 -2.381923 0
M  V30 22 H -1.702084 3.465290 -0.998579 0
M  V30 23 H -0.178517 3.288587 0.907074 0
M  V30 END ATOM
M  V30 BEGIN BOND
M  V30 1 2 1 2
M  V30 2 1 2 3
M  V30 3 1 3 4
M  V30 4 1 4 5
M  V30 5 2 5 6
M  V30 6 1 5 7
M  V30 7 1 7 8
M  V30 8 1 8 9
M  V30 9 2 9 10
M  V30 10 1 10 11
M  V30 11 2 11 12
M  V30 12 1 12 13
M  V30 13 2 13 14
M  V30 14 1 14 15
M  V30 15 1 7 2
M  V30 16 1 14 9
M  V30 17 1 3 16
M  V30 18 1 3 17
M  V30 19 1 8 18
M  V30 20 1 8 19
M  V30 21 1 10 20
M  V30 22 1 11 21
M  V30 23 1 12 22
M  V30 24 1 13 23
M  V30 END BOND
M  V30 END CTAB
M  END
>  <Dataset>  (638) 
ChEMBL_Kinases

>  <Ligand_Instance>  (638) 
nan

>  <PDB_ID>  (638) 
nan

>  <Standardized_SMILES>  (638) 
O=C1CSC(=O)N1Cc1ccccc1F

>  <Name>  (638) 
nan

>  <Pocket>  (638) 
nan

>  <ATP_Site>  (638) 
nan

>  <Peripheral>  (638) 
nan

>  <Num_H_Atoms_ProtBoundConf>  (638) 
nan

>  <Num_Resolved_Atoms>  (638) 
nan

>  <Num_Not_Resolved_Atoms>  (638) 
nan

$$$$
CHEMBL3800399
     RDKit          3D

  0  0  0  0  0  0  0  0  0  0999 V3000
M  V30 BEGIN CTAB
M  V30 COUNTS 67 71 0 0 0
M  V30 BEGIN ATOM
M  V30 1 C 5.402254 -3.245207 3.251373 0
M  V30 2 O 5.137684 -1.895496 3.376895 0
M  V30 3 C 4.295616 -1.360585 2.429727 0
M  V30 4 C 4.840809 -1.488289 1.052525 0
M  V30 5 C 3.912491 -0.887366 0.004379 0
M  V30 6 N 2.647628 -1.459633 -0.053628 0
M  V30 7 C 2.496801 -2.774641 -0.504698 0
M  V30 8 C 1.000961 -3.061569 -0.531835 0
M  V30 9 C 0.453875 -1.661866 -0.720968 0
M  V30 10 C 1.483438 -0.696580 -0.159889 0
M  V30 11 C 1.573024 0.437641 -1.173731 0
M  V30 12 C 0.171099 1.046205 -1.330664 0
M  V30 13 N -0.150700 1.701362 -0.102816 0
M  V30 14 C -1.283371 2.508917 -0.397083 0
M  V30 15 C -0.829265 3.768642 -0.803568 0
M  V30 16 Cl 0.825736 4.323374 -0.932993 0
M  V30 17 C -1.734825 4.767161 -1.169156 0
M  V30 18 N -3.072979 4.515670 -1.130712 0
M  V30 19 C -3.483676 3.298125 -0.736553 0
M  V30 20 C -2.637804 2.277812 -0.365655 0
M  V30 21 C -3.027571 0.970685 0.067584 0
M  V30 22 C -3.941588 0.391736 -0.823810 0
M  V30 23 C -4.440984 -0.887528 -0.551021 0
M  V30 24 C -4.078438 -1.617369 0.559706 0
M  V30 25 C -3.195008 -1.056867 1.420959 0
M  V30 26 C -2.697670 0.201967 1.161194 0
M  V30 27 C -2.763424 -1.792479 2.637922 0
M  V30 28 S -3.800903 -3.229719 2.521344 0
M  V30 29 O -4.798825 -3.177794 3.627318 0
M  V30 30 O -3.000536 -4.494940 2.524071 0
M  V30 31 N -4.492019 -2.912292 0.971781 0
M  V30 32 C -5.345691 -3.846340 0.256334 0
M  V30 33 C 0.709899 1.396427 1.017192 0
M  V30 34 C 0.973556 -0.087071 1.111459 0
M  V30 35 H 5.889166 -3.476920 2.310113 0
M  V30 36 H 4.411184 -3.793289 3.215716 0
M  V30 37 H 5.913766 -3.663356 4.142164 0
M  V30 38 H 4.097340 -0.284933 2.636539 0
M  V30 39 H 3.312140 -1.859672 2.568611 0
M  V30 40 H 5.169841 -2.498956 0.752189 0
M  V30 41 H 5.755662 -0.855176 1.013508 0
M  V30 42 H 3.954933 0.209589 0.141872 0
M  V30 43 H 4.428944 -1.063028 -0.981418 0
M  V30 44 H 2.893649 -2.828883 -1.558028 0
M  V30 45 H 2.969214 -3.586306 0.058453 0
M  V30 46 H 0.763213 -3.720957 -1.387267 0
M  V30 47 H 0.669097 -3.556383 0.388129 0
M  V30 48 H -0.533292 -1.533563 -0.254294 0
M  V30 49 H 0.366295 -1.534527 -1.827473 0
M  V30 50 H 2.312490 1.191128 -0.912801 0
M  V30 51 H 1.873225 -0.049337 -2.140958 0
M  V30 52 H 0.240117 1.699851 -2.218388 0
M  V30 53 H -0.553151 0.250993 -1.524452 0
M  V30 54 H -1.502374 5.760726 -1.494459 0
M  V30 55 H -4.539635 3.021604 -0.679702 0
M  V30 56 H -4.323423 0.843838 -1.744650 0
M  V30 57 H -5.148644 -1.348323 -1.232740 0
M  V30 58 H -1.984393 0.765736 1.779634 0
M  V30 59 H -2.941489 -1.220717 3.569800 0
M  V30 60 H -1.699087 -2.072970 2.506996 0
M  V30 61 H -5.843263 -4.508216 0.988002 0
M  V30 62 H -6.087775 -3.209291 -0.295871 0
M  V30 63 H -4.741054 -4.438682 -0.485188 0
M  V30 64 H 1.699732 1.932004 0.914880 0
M  V30 65 H 0.304085 1.759363 1.975185 0
M  V30 66 H 1.680180 -0.201502 1.961299 0
M  V30 67 H 0.054476 -0.602153 1.416387 0
M  V30 END ATOM
M  V30 BEGIN BOND
M  V30 1 1 1 2
M  V30 2 1 2 3
M  V30 3 1 3 4
M  V30 4 1 4 5
M  V30 5 1 5 6
M  V30 6 1 6 7
M  V30 7 1 7 8
M  V30 8 1 8 9
M  V30 9 1 9 10
M  V30 10 1 10 11
M  V30 11 1 11 12
M  V30 12 1 12 13
M  V30 13 1 13 14
M  V30 14 2 14 15
M  V30 15 1 15 16
M  V30 16 1 15 17
M  V30 17 2 17 18
M  V30 18 1 18 19
M  V30 19 2 19 20
M  V30 20 1 20 21
M  V30 21 2 21 22
M  V30 22 1 22 23
M  V30 23 2 23 24
M  V30 24 1 24 25
M  V30 25 2 25 26
M  V30 26 1 25 27
M  V30 27 1 27 28
M  V30 28 2 28 29
M  V30 29 2 28 30
M  V30 30 1 28 31
M  V30 31 1 31 32
M  V30 32 1 13 33
M  V30 33 1 33 34
M  V30 34 1 10 6
M  V30 35 1 20 14
M  V30 36 1 26 21
M  V30 37 1 34 10
M  V30 38 1 31 24
M  V30 39 1 1 35
M  V30 40 1 1 36
M  V30 41 1 1 37
M  V30 42 1 3 38
M  V30 43 1 3 39
M  V30 44 1 4 40
M  V30 45 1 4 41
M  V30 46 1 5 42
M  V30 47 1 5 43
M  V30 48 1 7 44
M  V30 49 1 7 45
M  V30 50 1 8 46
M  V30 51 1 8 47
M  V30 52 1 9 48
M  V30 53 1 9 49
M  V30 54 1 11 50
M  V30 55 1 11 51
M  V30 56 1 12 52
M  V30 57 1 12 53
M  V30 58 1 17 54
M  V30 59 1 19 55
M  V30 60 1 22 56
M  V30 61 1 23 57
M  V30 62 1 26 58
M  V30 63 1 27 59
M  V30 64 1 27 60
M  V30 65 1 32 61
M  V30 66 1 32 62
M  V30 67 1 32 63
M  V30 68 1 33 64
M  V30 69 1 33 65
M  V30 70 1 34 66
M  V30 71 1 34 67
M  V30 END BOND
M  V30 END CTAB
M  END
>  <Dataset>  (639) 
ChEMBL_Kinases

>  <Ligand_Instance>  (639) 
nan

>  <PDB_ID>  (639) 
nan

>  <Standardized_SMILES>  (639) 
COCCCN1CCCC12CCN(c1c(Cl)cncc1-c1ccc3c(c1)CS(=O)(=O)N3C)CC2

>  <Name>  (639) 
nan

>  <Pocket>  (639) 
nan

>  <ATP_Site>  (639) 
nan

>  <Peripheral>  (639) 
nan

>  <Num_H_Atoms_ProtBoundConf>  (639) 
nan

>  <Num_Resolved_Atoms>  (639) 
nan

>  <Num_Not_Resolved_Atoms>  (639) 
nan

$$$$
CHEMBL380039
     RDKit          3D

  0  0  0  0  0  0  0  0  0  0999 V3000
M  V30 BEGIN CTAB
M  V30 COUNTS 63 64 0 0 0
M  V30 BEGIN ATOM
M  V30 1 C 0.527698 -4.036415 4.853911 0
M  V30 2 C 1.135219 -2.718776 4.445412 0
M  V30 3 C 0.252543 -1.640043 5.009765 0
M  V30 4 C 1.527064 -2.608589 3.056028 0
M  V30 5 C 2.136194 -1.221436 2.783374 0
M  V30 6 C 2.529352 -1.133248 1.356308 0
M  V30 7 C 2.034060 -0.175069 0.597107 0
M  V30 8 C 1.103775 0.939565 0.812442 0
M  V30 9 C 1.515645 1.925364 -0.262565 0
M  V30 10 C 2.434503 2.987035 0.290137 0
M  V30 11 O 1.774648 3.734854 1.283120 0
M  V30 12 C 0.228225 2.541772 -0.780529 0
M  V30 13 O -0.667093 1.572063 -1.243499 0
M  V30 14 C -1.923549 1.816535 -1.775972 0
M  V30 15 O -2.312964 3.013396 -1.860478 0
M  V30 16 C -2.554984 0.508957 -2.146115 0
M  V30 17 C -3.919789 0.658913 -2.733496 0
M  V30 18 C -4.449693 -0.764956 -2.944509 0
M  V30 19 C -3.720349 -1.326505 -4.144410 0
M  V30 20 C -2.410029 -0.613504 -4.388119 0
M  V30 21 C -1.691882 -0.262691 -3.101388 0
M  V30 22 O 2.192214 1.202482 -1.241942 0
M  V30 23 C 2.436824 -0.102820 -0.822912 0
M  V30 24 O 2.916027 -0.953932 -1.622550 0
M  V30 25 C 0.634493 -2.954249 1.939423 0
M  V30 26 C 0.154706 -4.370422 1.872544 0
M  V30 27 C -0.513358 -1.967598 1.746412 0
M  V30 28 H 1.240525 -4.885111 4.765788 0
M  V30 29 H 0.241080 -3.999174 5.955640 0
M  V30 30 H -0.427287 -4.245317 4.350843 0
M  V30 31 H 2.082596 -2.645627 5.066476 0
M  V30 32 H -0.787707 -1.674692 4.673259 0
M  V30 33 H 0.193118 -1.881281 6.112201 0
M  V30 34 H 0.708425 -0.626743 4.992638 0
M  V30 35 H 2.440508 -3.280477 2.924452 0
M  V30 36 H 1.422353 -0.437030 3.057029 0
M  V30 37 H 3.087960 -1.132507 3.380021 0
M  V30 38 H 3.217230 -1.884270 1.023781 0
M  V30 39 H 0.040571 0.665518 0.721527 0
M  V30 40 H 1.301503 1.418256 1.812273 0
M  V30 41 H 3.348787 2.546574 0.693972 0
M  V30 42 H 2.722009 3.713231 -0.485570 0
M  V30 43 H 2.211604 4.611422 1.348723 0
M  V30 44 H 0.516224 3.277442 -1.557310 0
M  V30 45 H -0.291411 3.108424 0.018355 0
M  V30 46 H -2.654318 -0.131051 -1.219964 0
M  V30 47 H -3.900542 1.227745 -3.681260 0
M  V30 48 H -4.626183 1.197815 -2.049918 0
M  V30 49 H -5.545016 -0.776491 -3.048395 0
M  V30 50 H -4.084943 -1.363574 -2.065579 0
M  V30 51 H -4.367916 -1.185929 -5.038296 0
M  V30 52 H -3.529272 -2.417636 -4.066534 0
M  V30 53 H -2.519408 0.295790 -5.004039 0
M  V30 54 H -1.759540 -1.319086 -4.938244 0
M  V30 55 H -0.817340 0.352979 -3.372445 0
M  V30 56 H -1.292325 -1.202407 -2.661719 0
M  V30 57 H 1.268081 -2.803505 1.009643 0
M  V30 58 H 0.767556 -5.080700 2.457820 0
M  V30 59 H 0.235663 -4.783654 0.813812 0
M  V30 60 H -0.954132 -4.481833 2.059885 0
M  V30 61 H -1.499099 -2.479607 1.955075 0
M  V30 62 H -0.390801 -1.043187 2.346219 0
M  V30 63 H -0.623514 -1.637554 0.692634 0
M  V30 END ATOM
M  V30 BEGIN BOND
M  V30 1 1 1 2
M  V30 2 1 2 3
M  V30 3 1 2 4
M  V30 4 1 4 5
M  V30 5 1 5 6
M  V30 6 2 6 7
M  V30 7 1 7 8
M  V30 8 1 8 9
M  V30 9 1 9 10
M  V30 10 1 10 11
M  V30 11 1 9 12
M  V30 12 1 12 13
M  V30 13 1 13 14
M  V30 14 2 14 15
M  V30 15 1 14 16
M  V30 16 1 16 17
M  V30 17 1 17 18
M  V30 18 1 18 19
M  V30 19 1 19 20
M  V30 20 1 20 21
M  V30 21 1 9 22
M  V30 22 1 22 23
M  V30 23 2 23 24
M  V30 24 1 4 25
M  V30 25 1 25 26
M  V30 26 1 25 27
M  V30 27 1 23 7
M  V30 28 1 21 16
M  V30 29 1 1 28
M  V30 30 1 1 29
M  V30 31 1 1 30
M  V30 32 1 2 31
M  V30 33 1 3 32
M  V30 34 1 3 33
M  V30 35 1 3 34
M  V30 36 1 4 35
M  V30 37 1 5 36
M  V30 38 1 5 37
M  V30 39 1 6 38
M  V30 40 1 8 39
M  V30 41 1 8 40
M  V30 42 1 10 41
M  V30 43 1 10 42
M  V30 44 1 11 43
M  V30 45 1 12 44
M  V30 46 1 12 45
M  V30 47 1 16 46
M  V30 48 1 17 47
M  V30 49 1 17 48
M  V30 50 1 18 49
M  V30 51 1 18 50
M  V30 52 1 19 51
M  V30 53 1 19 52
M  V30 54 1 20 53
M  V30 55 1 20 54
M  V30 56 1 21 55
M  V30 57 1 21 56
M  V30 58 1 25 57
M  V30 59 1 26 58
M  V30 60 1 26 59
M  V30 61 1 26 60
M  V30 62 1 27 61
M  V30 63 1 27 62
M  V30 64 1 27 63
M  V30 END BOND
M  V30 END CTAB
M  END
>  <Dataset>  (640) 
ChEMBL_Kinases

>  <Ligand_Instance>  (640) 
nan

>  <PDB_ID>  (640) 
nan

>  <Standardized_SMILES>  (640) 
CC(C)C(C/C=C1\CC(CO)(COC(=O)C2CCCCC2)OC1=O)C(C)C

>  <Name>  (640) 
nan

>  <Pocket>  (640) 
nan

>  <ATP_Site>  (640) 
nan

>  <Peripheral>  (640) 
nan

>  <Num_H_Atoms_ProtBoundConf>  (640) 
nan

>  <Num_Resolved_Atoms>  (640) 
nan

>  <Num_Not_Resolved_Atoms>  (640) 
nan

$$$$
CHEMBL3800311
     RDKit          3D

  0  0  0  0  0  0  0  0  0  0999 V3000
M  V30 BEGIN CTAB
M  V30 COUNTS 50 54 0 0 0
M  V30 BEGIN ATOM
M  V30 1 O 1.299107 -3.721922 0.049384 0
M  V30 2 C 2.037834 -3.227709 -0.835402 0
M  V30 3 N 2.368161 -3.920167 -2.049751 0
M  V30 4 C 3.639877 -3.448259 -2.584008 0
M  V30 5 C 3.952657 -2.180786 -1.817011 0
M  V30 6 C 2.751815 -1.929258 -0.954889 0
M  V30 7 C 3.209413 -1.475004 0.414296 0
M  V30 8 C 2.048233 -1.049353 1.273685 0
M  V30 9 N 1.327710 0.069549 0.696685 0
M  V30 10 C 0.995138 1.403022 1.058827 0
M  V30 11 C 1.774188 2.509861 0.798353 0
M  V30 12 Cl 3.301254 2.250622 -0.015818 0
M  V30 13 C 1.437478 3.802464 1.133695 0
M  V30 14 N 0.247832 3.937403 1.761074 0
M  V30 15 C -0.540220 2.885427 2.033255 0
M  V30 16 C -0.211083 1.566582 1.698638 0
M  V30 17 C -1.224064 0.614330 2.108642 0
M  V30 18 C -1.092959 -0.556657 2.820923 0
M  V30 19 C -2.176132 -1.351357 3.112305 0
M  V30 20 C -3.450380 -1.011827 2.703694 0
M  V30 21 C -3.666118 0.122011 1.999992 0
M  V30 22 C -2.539227 0.909136 1.719997 0
M  V30 23 C -5.082417 0.368447 1.623848 0
M  V30 24 S -5.815370 -1.230545 1.871419 0
M  V30 25 O -7.121729 -1.159063 2.582570 0
M  V30 26 O -5.851709 -2.042961 0.619046 0
M  V30 27 N -4.600163 -1.814174 2.987772 0
M  V30 28 C 0.852445 -0.369520 -0.578277 0
M  V30 29 C 1.904432 -0.841939 -1.529534 0
M  V30 30 H 1.845010 -4.669898 -2.563171 0
M  V30 31 H 4.446219 -4.219492 -2.472147 0
M  V30 32 H 3.494185 -3.245717 -3.666611 0
M  V30 33 H 4.894551 -2.319101 -1.225604 0
M  V30 34 H 4.141075 -1.382368 -2.561474 0
M  V30 35 H 3.703205 -2.344893 0.884459 0
M  V30 36 H 3.942142 -0.656551 0.352034 0
M  V30 37 H 2.471632 -0.706135 2.244614 0
M  V30 38 H 1.383575 -1.903754 1.516327 0
M  V30 39 H 2.111618 4.611621 0.889571 0
M  V30 40 H -1.450935 3.178559 2.537397 0
M  V30 41 H -0.093065 -0.789261 3.130730 0
M  V30 42 H -1.927902 -2.235741 3.674462 0
M  V30 43 H -2.718915 1.833188 1.145877 0
M  V30 44 H -5.569529 1.169036 2.202828 0
M  V30 45 H -5.099778 0.544099 0.513536 0
M  V30 46 H -4.753301 -2.564951 3.663005 0
M  V30 47 H 0.211038 0.393418 -1.105432 0
M  V30 48 H 0.162040 -1.228500 -0.417450 0
M  V30 49 H 1.347704 -1.190502 -2.448848 0
M  V30 50 H 2.584951 -0.022846 -1.828250 0
M  V30 END ATOM
M  V30 BEGIN BOND
M  V30 1 2 1 2
M  V30 2 1 2 3
M  V30 3 1 3 4
M  V30 4 1 4 5
M  V30 5 1 5 6
M  V30 6 1 6 7
M  V30 7 1 7 8
M  V30 8 1 8 9
M  V30 9 1 9 10
M  V30 10 2 10 11
M  V30 11 1 11 12
M  V30 12 1 11 13
M  V30 13 2 13 14
M  V30 14 1 14 15
M  V30 15 2 15 16
M  V30 16 1 16 17
M  V30 17 2 17 18
M  V30 18 1 18 19
M  V30 19 2 19 20
M  V30 20 1 20 21
M  V30 21 2 21 22
M  V30 22 1 21 23
M  V30 23 1 23 24
M  V30 24 2 24 25
M  V30 25 2 24 26
M  V30 26 1 24 27
M  V30 27 1 9 28
M  V30 28 1 28 29
M  V30 29 1 6 2
M  V30 30 1 16 10
M  V30 31 1 22 17
M  V30 32 1 29 6
M  V30 33 1 27 20
M  V30 34 1 3 30
M  V30 35 1 4 31
M  V30 36 1 4 32
M  V30 37 1 5 33
M  V30 38 1 5 34
M  V30 39 1 7 35
M  V30 40 1 7 36
M  V30 41 1 8 37
M  V30 42 1 8 38
M  V30 43 1 13 39
M  V30 44 1 15 40
M  V30 45 1 18 41
M  V30 46 1 19 42
M  V30 47 1 22 43
M  V30 48 1 23 44
M  V30 49 1 23 45
M  V30 50 1 27 46
M  V30 51 1 28 47
M  V30 52 1 28 48
M  V30 53 1 29 49
M  V30 54 1 29 50
M  V30 END BOND
M  V30 END CTAB
M  END
>  <Dataset>  (641) 
ChEMBL_Kinases

>  <Ligand_Instance>  (641) 
nan

>  <PDB_ID>  (641) 
nan

>  <Standardized_SMILES>  (641) 
O=C1NCCC12CCN(c1c(Cl)cncc1-c1ccc3c(c1)CS(=O)(=O)N3)CC2

>  <Name>  (641) 
nan

>  <Pocket>  (641) 
nan

>  <ATP_Site>  (641) 
nan

>  <Peripheral>  (641) 
nan

>  <Num_H_Atoms_ProtBoundConf>  (641) 
nan

>  <Num_Resolved_Atoms>  (641) 
nan

>  <Num_Not_Resolved_Atoms>  (641) 
nan

$$$$
CHEMBL3800310
     RDKit          3D

  0  0  0  0  0  0  0  0  0  0999 V3000
M  V30 BEGIN CTAB
M  V30 COUNTS 54 58 0 0 0
M  V30 BEGIN ATOM
M  V30 1 C 2.618687 -2.607968 1.700136 0
M  V30 2 C 1.161450 -2.999999 1.563738 0
M  V30 3 C 1.075357 -4.359995 1.033147 0
M  V30 4 N 0.637589 -3.067830 2.940937 0
M  V30 5 C 0.645694 -1.846444 3.698520 0
M  V30 6 O 0.765177 -1.793523 4.956976 0
M  V30 7 C 0.507144 -0.570276 2.981454 0
M  V30 8 C 0.502636 0.676556 3.587941 0
M  V30 9 C 0.367025 1.821645 2.801222 0
M  V30 10 C 0.236901 1.741105 1.429692 0
M  V30 11 N 0.096517 2.884822 0.588807 0
M  V30 12 C -0.780286 3.915331 0.641199 0
M  V30 13 O -1.635469 3.923219 1.560433 0
M  V30 14 N -0.515953 4.751371 -0.372870 0
M  V30 15 C 0.519356 4.306130 -1.106488 0
M  V30 16 N 1.181222 4.731522 -2.193862 0
M  V30 17 C 2.214999 4.059074 -2.728097 0
M  V30 18 C 2.658636 2.857039 -2.161748 0
M  V30 19 C 1.965709 2.436691 -1.045241 0
M  V30 20 C 0.902838 3.113585 -0.483477 0
M  V30 21 C 0.245033 0.476888 0.852394 0
M  V30 22 C 0.377561 -0.690179 1.598761 0
M  V30 23 N 0.378429 -1.958208 0.934633 0
M  V30 24 C -0.346706 -2.159296 -0.256528 0
M  V30 25 C -1.527949 -3.083554 -0.199604 0
M  V30 26 C -2.141021 -3.143258 -1.576951 0
M  V30 27 C -3.464844 -3.825822 -1.342677 0
M  V30 28 C -3.851168 -3.388633 0.047941 0
M  V30 29 C -2.713973 -2.488371 0.545618 0
M  V30 30 H 2.784466 -1.841725 2.466474 0
M  V30 31 H 3.157734 -3.514676 2.056987 0
M  V30 32 H 3.065177 -2.355825 0.725854 0
M  V30 33 H 0.353367 -5.024516 1.598814 0
M  V30 34 H 2.037598 -4.881311 1.242146 0
M  V30 35 H 0.961394 -4.448046 -0.062909 0
M  V30 36 H 0.253254 -3.903938 3.450792 0
M  V30 37 H 0.606286 0.709612 4.663083 0
M  V30 38 H 0.363175 2.792724 3.271866 0
M  V30 39 H -1.057898 5.620983 -0.543388 0
M  V30 40 H 2.742147 4.421969 -3.615361 0
M  V30 41 H 3.490642 2.265603 -2.547582 0
M  V30 42 H 2.299851 1.501824 -0.593819 0
M  V30 43 H 0.148334 0.424434 -0.206641 0
M  V30 44 H -0.801817 -1.217200 -0.620887 0
M  V30 45 H 0.347955 -2.468751 -1.065369 0
M  V30 46 H -1.378472 -4.041499 0.272455 0
M  V30 47 H -2.347508 -2.071860 -1.870628 0
M  V30 48 H -1.525061 -3.565134 -2.360334 0
M  V30 49 H -3.316940 -4.913988 -1.452426 0
M  V30 50 H -4.170002 -3.466370 -2.106295 0
M  V30 51 H -3.873513 -4.319781 0.671349 0
M  V30 52 H -4.808945 -2.832876 0.080456 0
M  V30 53 H -2.621637 -2.668224 1.646395 0
M  V30 54 H -2.899219 -1.436504 0.311661 0
M  V30 END ATOM
M  V30 BEGIN BOND
M  V30 1 1 1 2
M  V30 2 1 2 3
M  V30 3 1 2 4
M  V30 4 1 4 5
M  V30 5 2 5 6
M  V30 6 1 5 7
M  V30 7 2 7 8
M  V30 8 1 8 9
M  V30 9 2 9 10
M  V30 10 1 10 11
M  V30 11 1 11 12
M  V30 12 2 12 13
M  V30 13 1 12 14
M  V30 14 1 14 15
M  V30 15 2 15 16
M  V30 16 1 16 17
M  V30 17 2 17 18
M  V30 18 1 18 19
M  V30 19 2 19 20
M  V30 20 1 10 21
M  V30 21 2 21 22
M  V30 22 1 22 23
M  V30 23 1 23 24
M  V30 24 1 24 25
M  V30 25 1 25 26
M  V30 26 1 26 27
M  V30 27 1 27 28
M  V30 28 1 28 29
M  V30 29 1 23 2
M  V30 30 1 29 25
M  V30 31 1 22 7
M  V30 32 1 20 11
M  V30 33 1 20 15
M  V30 34 1 1 30
M  V30 35 1 1 31
M  V30 36 1 1 32
M  V30 37 1 3 33
M  V30 38 1 3 34
M  V30 39 1 3 35
M  V30 40 1 4 36
M  V30 41 1 8 37
M  V30 42 1 9 38
M  V30 43 1 14 39
M  V30 44 1 17 40
M  V30 45 1 18 41
M  V30 46 1 19 42
M  V30 47 1 21 43
M  V30 48 1 24 44
M  V30 49 1 24 45
M  V30 50 1 25 46
M  V30 51 1 26 47
M  V30 52 1 26 48
M  V30 53 1 27 49
M  V30 54 1 27 50
M  V30 55 1 28 51
M  V30 56 1 28 52
M  V30 57 1 29 53
M  V30 58 1 29 54
M  V30 END BOND
M  V30 END CTAB
M  END
>  <Dataset>  (642) 
ChEMBL_Kinases

>  <Ligand_Instance>  (642) 
nan

>  <PDB_ID>  (642) 
nan

>  <Standardized_SMILES>  (642) 
CC1(C)NC(=O)c2ccc(-n3c(=O)[nH]c4ncccc43)cc2N1CC1CCCC1

>  <Name>  (642) 
nan

>  <Pocket>  (642) 
nan

>  <ATP_Site>  (642) 
nan

>  <Peripheral>  (642) 
nan

>  <Num_H_Atoms_ProtBoundConf>  (642) 
nan

>  <Num_Resolved_Atoms>  (642) 
nan

>  <Num_Not_Resolved_Atoms>  (642) 
nan

$$$$
CHEMBL3800307
     RDKit          3D

  0  0  0  0  0  0  0  0  0  0999 V3000
M  V30 BEGIN CTAB
M  V30 COUNTS 52 56 0 0 0
M  V30 BEGIN ATOM
M  V30 1 C 2.556320 -4.875411 6.211276 0
M  V30 2 N 2.577307 -4.386862 4.845395 0
M  V30 3 C 2.258954 -3.129578 4.490130 0
M  V30 4 C 2.392006 -3.027396 3.111750 0
M  V30 5 C 2.158792 -1.862568 2.261133 0
M  V30 6 C 1.713640 -2.090246 0.975620 0
M  V30 7 C 1.458654 -1.074151 0.080495 0
M  V30 8 C 1.648707 0.263181 0.458567 0
M  V30 9 C 1.448937 1.490285 -0.275462 0
M  V30 10 C 2.688721 2.118149 -0.456357 0
M  V30 11 N 2.777479 3.264929 -1.196108 0
M  V30 12 C 1.624201 3.760280 -1.739755 0
M  V30 13 C 0.427714 3.111140 -1.534968 0
M  V30 14 F -0.571924 3.776390 -2.151937 0
M  V30 15 C 0.272466 1.958432 -0.802262 0
M  V30 16 N -0.967882 1.380458 -0.550062 0
M  V30 17 C -1.416418 0.340277 0.287367 0
M  V30 18 C -1.840811 -0.809742 -0.596911 0
M  V30 19 C -3.179700 -0.382766 -1.161857 0
M  V30 20 C -3.351646 1.091491 -1.211894 0
M  V30 21 C -2.092717 1.890051 -1.308569 0
M  V30 22 C -3.419409 -0.957325 -2.539966 0
M  V30 23 N -3.702953 -2.343114 -2.219375 0
M  V30 24 C -4.224243 -2.366967 -0.876941 0
M  V30 25 O -4.681947 -3.278239 -0.105286 0
M  V30 26 O -4.173326 -1.045952 -0.404985 0
M  V30 27 C 2.101987 0.471574 1.770600 0
M  V30 28 C 2.356432 -0.557976 2.665403 0
M  V30 29 C 2.801912 -4.270403 2.654776 0
M  V30 30 N 2.903194 -5.071155 3.742582 0
M  V30 31 H 2.991349 -5.878775 6.301091 0
M  V30 32 H 1.520239 -4.791229 6.637756 0
M  V30 33 H 3.187478 -4.190075 6.825317 0
M  V30 34 H 1.953466 -2.337321 5.158201 0
M  V30 35 H 1.543094 -3.091966 0.610001 0
M  V30 36 H 1.117310 -1.145870 -0.929818 0
M  V30 37 H 3.639657 1.796164 -0.064895 0
M  V30 38 H 1.768762 4.661679 -2.308186 0
M  V30 39 H -0.796116 0.061966 1.152475 0
M  V30 40 H -2.379946 0.692366 0.799174 0
M  V30 41 H -1.968278 -1.743921 -0.040520 0
M  V30 42 H -1.187774 -0.948391 -1.486818 0
M  V30 43 H -3.909926 1.419422 -0.315408 0
M  V30 44 H -3.971386 1.357185 -2.092598 0
M  V30 45 H -1.809718 1.963055 -2.400856 0
M  V30 46 H -2.276650 2.925467 -0.968283 0
M  V30 47 H -2.580835 -0.826776 -3.238653 0
M  V30 48 H -4.368649 -0.468727 -2.902047 0
M  V30 49 H -3.645429 -3.296102 -2.651967 0
M  V30 50 H 2.290032 1.463800 2.189589 0
M  V30 51 H 2.704593 -0.374548 3.670052 0
M  V30 52 H 2.998619 -4.530732 1.617681 0
M  V30 END ATOM
M  V30 BEGIN BOND
M  V30 1 1 1 2
M  V30 2 1 2 3
M  V30 3 2 3 4
M  V30 4 1 4 5
M  V30 5 2 5 6
M  V30 6 1 6 7
M  V30 7 2 7 8
M  V30 8 1 8 9
M  V30 9 2 9 10
M  V30 10 1 10 11
M  V30 11 2 11 12
M  V30 12 1 12 13
M  V30 13 1 13 14
M  V30 14 2 13 15
M  V30 15 1 15 16
M  V30 16 1 16 17
M  V30 17 1 17 18
M  V30 18 1 18 19
M  V30 19 1 19 20
M  V30 20 1 20 21
M  V30 21 1 19 22
M  V30 22 1 22 23
M  V30 23 1 23 24
M  V30 24 2 24 25
M  V30 25 1 24 26
M  V30 26 1 8 27
M  V30 27 2 27 28
M  V30 28 1 4 29
M  V30 29 2 29 30
M  V30 30 1 30 2
M  V30 31 1 28 5
M  V30 32 1 15 9
M  V30 33 1 21 16
M  V30 34 1 26 19
M  V30 35 1 1 31
M  V30 36 1 1 32
M  V30 37 1 1 33
M  V30 38 1 3 34
M  V30 39 1 6 35
M  V30 40 1 7 36
M  V30 41 1 10 37
M  V30 42 1 12 38
M  V30 43 1 17 39
M  V30 44 1 17 40
M  V30 45 1 18 41
M  V30 46 1 18 42
M  V30 47 1 20 43
M  V30 48 1 20 44
M  V30 49 1 21 45
M  V30 50 1 21 46
M  V30 51 1 22 47
M  V30 52 1 22 48
M  V30 53 1 23 49
M  V30 54 1 27 50
M  V30 55 1 28 51
M  V30 56 1 29 52
M  V30 END BOND
M  V30 END CTAB
M  END
>  <Dataset>  (643) 
ChEMBL_Kinases

>  <Ligand_Instance>  (643) 
nan

>  <PDB_ID>  (643) 
nan

>  <Standardized_SMILES>  (643) 
Cn1cc(-c2ccc(-c3cncc(F)c3N3CCC4(CC3)CNC(=O)O4)cc2)cn1

>  <Name>  (643) 
nan

>  <Pocket>  (643) 
nan

>  <ATP_Site>  (643) 
nan

>  <Peripheral>  (643) 
nan

>  <Num_H_Atoms_ProtBoundConf>  (643) 
nan

>  <Num_Resolved_Atoms>  (643) 
nan

>  <Num_Not_Resolved_Atoms>  (643) 
nan

$$$$
CHEMBL380030
     RDKit          3D

  0  0  0  0  0  0  0  0  0  0999 V3000
M  V30 BEGIN CTAB
M  V30 COUNTS 39 42 0 0 0
M  V30 BEGIN ATOM
M  V30 1 C 1.513738 -4.594117 2.118964 0
M  V30 2 C 0.464422 -3.561084 1.727147 0
M  V30 3 C -0.879738 -4.174636 1.990677 0
M  V30 4 C 0.662048 -3.230616 0.286023 0
M  V30 5 N 0.522706 -4.052898 -0.776993 0
M  V30 6 N 0.785808 -3.389453 -1.880994 0
M  V30 7 C 1.098343 -2.127519 -1.535634 0
M  V30 8 C 1.463779 -0.963765 -2.206658 0
M  V30 9 C 1.729282 0.204932 -1.565136 0
M  V30 10 C 1.644301 0.287516 -0.172524 0
M  V30 11 C 1.944608 1.558590 0.457193 0
M  V30 12 O 3.072559 2.222658 0.607790 0
M  V30 13 C 2.827809 3.349993 1.261162 0
M  V30 14 N 1.514960 3.456848 1.560466 0
M  V30 15 C 0.942712 2.328227 1.056842 0
M  V30 16 C -0.506056 2.147045 1.224385 0
M  V30 17 C -1.190625 1.185618 1.933025 0
M  V30 18 C -2.562263 1.211921 1.945808 0
M  V30 19 C -3.322706 2.141040 1.293956 0
M  V30 20 F -4.665366 2.109131 1.348735 0
M  V30 21 C -2.646330 3.107181 0.581966 0
M  V30 22 C -1.266145 3.110422 0.547621 0
M  V30 23 F -0.707492 4.105763 -0.183490 0
M  V30 24 C 1.280718 -0.879947 0.463151 0
M  V30 25 N 1.023701 -2.022337 -0.197497 0
M  V30 26 H 1.124004 -5.619251 1.919026 0
M  V30 27 H 2.438134 -4.421039 1.541302 0
M  V30 28 H 1.788939 -4.500437 3.193286 0
M  V30 29 H 0.649802 -2.657834 2.345596 0
M  V30 30 H -0.833162 -5.264907 2.218045 0
M  V30 31 H -1.520521 -4.075688 1.096310 0
M  V30 32 H -1.348864 -3.685654 2.875836 0
M  V30 33 H 1.527010 -1.035805 -3.279892 0
M  V30 34 H 2.012885 1.102679 -2.110198 0
M  V30 35 H 3.582419 4.087283 1.520046 0
M  V30 36 H -0.555754 0.487819 2.422424 0
M  V30 37 H -3.005279 0.416975 2.529896 0
M  V30 38 H -3.226197 3.843764 0.064941 0
M  V30 39 H 1.208773 -0.849222 1.523512 0
M  V30 END ATOM
M  V30 BEGIN BOND
M  V30 1 1 1 2
M  V30 2 1 2 3
M  V30 3 1 2 4
M  V30 4 2 4 5
M  V30 5 1 5 6
M  V30 6 2 6 7
M  V30 7 1 7 8
M  V30 8 2 8 9
M  V30 9 1 9 10
M  V30 10 1 10 11
M  V30 11 1 11 12
M  V30 12 1 12 13
M  V30 13 2 13 14
M  V30 14 1 14 15
M  V30 15 1 15 16
M  V30 16 2 16 17
M  V30 17 1 17 18
M  V30 18 2 18 19
M  V30 19 1 19 20
M  V30 20 1 19 21
M  V30 21 2 21 22
M  V30 22 1 22 23
M  V30 23 2 10 24
M  V30 24 1 24 25
M  V30 25 1 25 4
M  V30 26 1 25 7
M  V30 27 2 15 11
M  V30 28 1 22 16
M  V30 29 1 1 26
M  V30 30 1 1 27
M  V30 31 1 1 28
M  V30 32 1 2 29
M  V30 33 1 3 30
M  V30 34 1 3 31
M  V30 35 1 3 32
M  V30 36 1 8 33
M  V30 37 1 9 34
M  V30 38 1 13 35
M  V30 39 1 17 36
M  V30 40 1 18 37
M  V30 41 1 21 38
M  V30 42 1 24 39
M  V30 END BOND
M  V30 END CTAB
M  END
>  <Dataset>  (644) 
ChEMBL_Kinases

>  <Ligand_Instance>  (644) 
nan

>  <PDB_ID>  (644) 
nan

>  <Standardized_SMILES>  (644) 
CC(C)c1nnc2ccc(-c3ocnc3-c3ccc(F)cc3F)cn12

>  <Name>  (644) 
nan

>  <Pocket>  (644) 
nan

>  <ATP_Site>  (644) 
nan

>  <Peripheral>  (644) 
nan

>  <Num_H_Atoms_ProtBoundConf>  (644) 
nan

>  <Num_Resolved_Atoms>  (644) 
nan

>  <Num_Not_Resolved_Atoms>  (644) 
nan

$$$$
CHEMBL3800284
     RDKit          3D

  0  0  0  0  0  0  0  0  0  0999 V3000
M  V30 BEGIN CTAB
M  V30 COUNTS 38 41 0 0 0
M  V30 BEGIN ATOM
M  V30 1 C -0.802882 -3.259278 5.469956 0
M  V30 2 S 0.487329 -1.981302 5.400850 0
M  V30 3 C 0.939680 -1.739398 3.720802 0
M  V30 4 S 2.240521 -2.669291 2.912767 0
M  V30 5 C 2.036644 -1.825608 1.312065 0
M  V30 6 C 2.867398 -2.152906 0.136133 0
M  V30 7 C 3.844170 -3.098462 0.139628 0
M  V30 8 C 4.318668 -3.025388 -1.174927 0
M  V30 9 N 3.646999 -2.082836 -1.900161 0
M  V30 10 N 2.756547 -1.562584 -1.058427 0
M  V30 11 C 0.985419 -0.881684 1.488391 0
M  V30 12 C 0.468543 -0.895912 2.758920 0
M  V30 13 C -0.623658 0.063751 2.970776 0
M  V30 14 O -1.205265 0.169050 4.104317 0
M  V30 15 N -1.077105 0.915243 1.921572 0
M  V30 16 C -0.944073 0.316707 0.592012 0 CFG=1
M  V30 17 C -1.406087 1.257320 -0.459860 0
M  V30 18 C -2.229732 0.788190 -1.487566 0
M  V30 19 C -2.731991 1.553802 -2.529928 0
M  V30 20 C -2.377417 2.883628 -2.533270 0
M  V30 21 C -1.559593 3.372994 -1.522129 0
M  V30 22 C -1.069319 2.586003 -0.488995 0
M  V30 23 C 0.504943 0.021834 0.418947 0
M  V30 24 H -1.484206 -3.139618 6.328975 0
M  V30 25 H -1.381065 -3.299220 4.508485 0
M  V30 26 H -0.325073 -4.254909 5.584602 0
M  V30 27 H 4.196070 -3.751811 0.913948 0
M  V30 28 H 5.130654 -3.640102 -1.595852 0
M  V30 29 H 3.855401 -1.880081 -2.899589 0
M  V30 30 H -1.463928 1.870390 2.101286 0
M  V30 31 H -1.513968 -0.624513 0.510098 0
M  V30 32 H -2.488510 -0.272083 -1.449699 0
M  V30 33 H -3.359100 1.050111 -3.254596 0
M  V30 34 H -2.758651 3.486106 -3.332974 0
M  V30 35 H -1.328245 4.436865 -1.601804 0
M  V30 36 H -0.444621 2.997420 0.268600 0
M  V30 37 H 0.640943 -0.494775 -0.563471 0
M  V30 38 H 1.129278 0.941215 0.372298 0
M  V30 END ATOM
M  V30 BEGIN BOND
M  V30 1 1 1 2
M  V30 2 1 2 3
M  V30 3 1 3 4
M  V30 4 1 4 5
M  V30 5 1 5 6
M  V30 6 1 6 7
M  V30 7 2 7 8
M  V30 8 1 8 9
M  V30 9 1 9 10
M  V30 10 2 5 11
M  V30 11 1 11 12
M  V30 12 1 12 13
M  V30 13 2 13 14
M  V30 14 1 13 15
M  V30 15 1 15 16
M  V30 16 1 16 17
M  V30 17 2 17 18
M  V30 18 1 18 19
M  V30 19 2 19 20
M  V30 20 1 20 21
M  V30 21 2 21 22
M  V30 22 1 16 23
M  V30 23 2 12 3
M  V30 24 1 22 17
M  V30 25 2 10 6
M  V30 26 1 23 11
M  V30 27 1 1 24
M  V30 28 1 1 25
M  V30 29 1 1 26
M  V30 30 1 7 27
M  V30 31 1 8 28
M  V30 32 1 9 29
M  V30 33 1 15 30
M  V30 34 1 16 31 CFG=1
M  V30 35 1 18 32
M  V30 36 1 19 33
M  V30 37 1 20 34
M  V30 38 1 21 35
M  V30 39 1 22 36
M  V30 40 1 23 37
M  V30 41 1 23 38
M  V30 END BOND
M  V30 END CTAB
M  END
>  <Dataset>  (645) 
ChEMBL_Kinases

>  <Ligand_Instance>  (645) 
nan

>  <PDB_ID>  (645) 
nan

>  <Standardized_SMILES>  (645) 
CSc1sc(-c2cc[nH]n2)c2c1C(=O)N[C@@H](c1ccccc1)C2

>  <Name>  (645) 
nan

>  <Pocket>  (645) 
nan

>  <ATP_Site>  (645) 
nan

>  <Peripheral>  (645) 
nan

>  <Num_H_Atoms_ProtBoundConf>  (645) 
nan

>  <Num_Resolved_Atoms>  (645) 
nan

>  <Num_Not_Resolved_Atoms>  (645) 
nan

$$$$
CHEMBL3800282
     RDKit          3D

  0  0  0  0  0  0  0  0  0  0999 V3000
M  V30 BEGIN CTAB
M  V30 COUNTS 45 48 0 0 0
M  V30 BEGIN ATOM
M  V30 1 C 0.629494 -4.900916 1.491792 0
M  V30 2 C 0.513260 -3.439806 1.944516 0
M  V30 3 C 0.492688 -3.519352 3.478617 0
M  V30 4 C 1.812162 -2.809915 1.590983 0
M  V30 5 C 1.641846 -1.341815 1.918359 0
M  V30 6 O 2.552928 -0.792737 2.587456 0
M  V30 7 C 0.428466 -0.631823 1.442955 0
M  V30 8 C 0.430490 0.692931 1.245278 0
M  V30 9 S 1.675364 1.991450 1.432224 0
M  V30 10 C 2.611448 2.203717 -0.103632 0
M  V30 11 C 1.751173 2.733883 -1.230407 0
M  V30 12 C 1.868556 4.237197 -1.177751 0
M  V30 13 C 2.847499 4.546740 -0.084488 0
M  V30 14 C 3.657320 3.263206 0.008989 0
M  V30 15 S -1.244007 0.984381 0.689863 0
M  V30 16 C -1.778338 -0.682445 0.776035 0
M  V30 17 C -3.150254 -1.042329 0.409888 0
M  V30 18 C -3.793799 -2.261916 0.384230 0
M  V30 19 C -5.104107 -2.151298 -0.025915 0
M  V30 20 N -5.240109 -0.833209 -0.248763 0
M  V30 21 N -4.113988 -0.198340 0.003053 0
M  V30 22 C -0.688475 -1.352169 1.209613 0
M  V30 23 C -0.720386 -2.822155 1.426769 0
M  V30 24 H 0.497420 -4.957408 0.389273 0
M  V30 25 H -0.152680 -5.529392 1.957212 0
M  V30 26 H 1.660403 -5.252430 1.728661 0
M  V30 27 H 0.873161 -4.468849 3.860279 0
M  V30 28 H 1.058361 -2.667221 3.915316 0
M  V30 29 H -0.583323 -3.427158 3.773868 0
M  V30 30 H 2.595589 -3.242290 2.215131 0
M  V30 31 H 2.077098 -2.873179 0.522601 0
M  V30 32 H 3.061252 1.233006 -0.384263 0
M  V30 33 H 2.230182 2.417207 -2.198294 0
M  V30 34 H 0.727928 2.353915 -1.225093 0
M  V30 35 H 0.879295 4.728456 -1.020350 0
M  V30 36 H 2.263986 4.681141 -2.126190 0
M  V30 37 H 2.352659 4.782245 0.886308 0
M  V30 38 H 3.486383 5.410725 -0.370753 0
M  V30 39 H 4.229753 3.242649 0.942219 0
M  V30 40 H 4.305626 3.233092 -0.883788 0
M  V30 41 H -3.352642 -3.210629 0.646723 0
M  V30 42 H -5.844283 -2.922021 -0.142189 0
M  V30 43 H -6.079122 -0.311887 -0.573773 0
M  V30 44 H -1.544797 -3.099771 2.152601 0
M  V30 45 H -0.992645 -3.366484 0.484984 0
M  V30 END ATOM
M  V30 BEGIN BOND
M  V30 1 1 1 2
M  V30 2 1 2 3
M  V30 3 1 2 4
M  V30 4 1 4 5
M  V30 5 2 5 6
M  V30 6 1 5 7
M  V30 7 2 7 8
M  V30 8 1 8 9
M  V30 9 1 9 10
M  V30 10 1 10 11
M  V30 11 1 11 12
M  V30 12 1 12 13
M  V30 13 1 13 14
M  V30 14 1 8 15
M  V30 15 1 15 16
M  V30 16 1 16 17
M  V30 17 1 17 18
M  V30 18 2 18 19
M  V30 19 1 19 20
M  V30 20 1 20 21
M  V30 21 2 16 22
M  V30 22 1 22 23
M  V30 23 1 23 2
M  V30 24 1 22 7
M  V30 25 1 14 10
M  V30 26 2 21 17
M  V30 27 1 1 24
M  V30 28 1 1 25
M  V30 29 1 1 26
M  V30 30 1 3 27
M  V30 31 1 3 28
M  V30 32 1 3 29
M  V30 33 1 4 30
M  V30 34 1 4 31
M  V30 35 1 10 32
M  V30 36 1 11 33
M  V30 37 1 11 34
M  V30 38 1 12 35
M  V30 39 1 12 36
M  V30 40 1 13 37
M  V30 41 1 13 38
M  V30 42 1 14 39
M  V30 43 1 14 40
M  V30 44 1 18 41
M  V30 45 1 19 42
M  V30 46 1 20 43
M  V30 47 1 23 44
M  V30 48 1 23 45
M  V30 END BOND
M  V30 END CTAB
M  END
>  <Dataset>  (646) 
ChEMBL_Kinases

>  <Ligand_Instance>  (646) 
nan

>  <PDB_ID>  (646) 
nan

>  <Standardized_SMILES>  (646) 
CC1(C)CC(=O)c2c(SC3CCCC3)sc(-c3cc[nH]n3)c2C1

>  <Name>  (646) 
nan

>  <Pocket>  (646) 
nan

>  <ATP_Site>  (646) 
nan

>  <Peripheral>  (646) 
nan

>  <Num_H_Atoms_ProtBoundConf>  (646) 
nan

>  <Num_Resolved_Atoms>  (646) 
nan

>  <Num_Not_Resolved_Atoms>  (646) 
nan

$$$$
CHEMBL498847
     RDKit          3D

  0  0  0  0  0  0  0  0  0  0999 V3000
M  V30 BEGIN CTAB
M  V30 COUNTS 24 24 0 0 0
M  V30 BEGIN ATOM
M  V30 1 C 1.673203 1.989255 1.945267 0
M  V30 2 C 1.370556 0.549942 2.157288 0
M  V30 3 N 1.283946 -0.010339 3.377170 0
M  V30 4 C 0.995554 -1.335583 3.214995 0
M  V30 5 C 0.923119 -1.499409 1.848638 0
M  V30 6 N 0.642456 -2.760066 1.299802 0 CHG=1 VAL=4
M  V30 7 O 0.522608 -3.196808 0.148299 0
M  V30 8 O 0.430744 -3.860145 2.096980 0 CHG=-1 VAL=1
M  V30 9 N 1.150132 -0.353988 1.184832 0
M  V30 10 C 1.161101 -0.093899 -0.217864 0
M  V30 11 C -0.147898 0.329636 -0.809679 0
M  V30 12 C -1.269691 -0.631199 -0.674893 0
M  V30 13 O -0.476916 1.580301 -0.249731 0
M  V30 14 H 2.434189 2.277498 2.707121 0
M  V30 15 H 0.772238 2.635987 2.081573 0
M  V30 16 H 2.151885 2.128811 0.973007 0
M  V30 17 H 0.864866 -2.047788 4.016694 0
M  V30 18 H 1.950107 0.657007 -0.424782 0
M  V30 19 H 1.519123 -1.006530 -0.780196 0
M  V30 20 H -0.011855 0.523099 -1.893467 0
M  V30 21 H -2.216781 -0.061993 -0.908732 0
M  V30 22 H -1.390730 -1.112709 0.311756 0
M  V30 23 H -1.254589 -1.442656 -1.431923 0
M  V30 24 H -0.225229 2.333323 -0.818142 0
M  V30 END ATOM
M  V30 BEGIN BOND
M  V30 1 1 1 2
M  V30 2 2 2 3
M  V30 3 1 3 4
M  V30 4 2 4 5
M  V30 5 1 5 6
M  V30 6 2 6 7
M  V30 7 1 6 8
M  V30 8 1 5 9
M  V30 9 1 9 10
M  V30 10 1 10 11
M  V30 11 1 11 12
M  V30 12 1 11 13
M  V30 13 1 9 2
M  V30 14 1 1 14
M  V30 15 1 1 15
M  V30 16 1 1 16
M  V30 17 1 4 17
M  V30 18 1 10 18
M  V30 19 1 10 19
M  V30 20 1 11 20
M  V30 21 1 12 21
M  V30 22 1 12 22
M  V30 23 1 12 23
M  V30 24 1 13 24
M  V30 END BOND
M  V30 END CTAB
M  END
>  <Dataset>  (647) 
ChEMBL_Kinases

>  <Ligand_Instance>  (647) 
nan

>  <PDB_ID>  (647) 
nan

>  <Standardized_SMILES>  (647) 
Cc1ncc([N+](=O)[O-])n1CC(C)O

>  <Name>  (647) 
SECNIDAZOLE

>  <Pocket>  (647) 
nan

>  <ATP_Site>  (647) 
nan

>  <Peripheral>  (647) 
nan

>  <Num_H_Atoms_ProtBoundConf>  (647) 
nan

>  <Num_Resolved_Atoms>  (647) 
nan

>  <Num_Not_Resolved_Atoms>  (647) 
nan

$$$$
CHEMBL3800268
     RDKit          3D

  0  0  0  0  0  0  0  0  0  0999 V3000
M  V30 BEGIN CTAB
M  V30 COUNTS 34 36 0 0 0
M  V30 BEGIN ATOM
M  V30 1 C -2.491550 -2.000931 2.971866 0
M  V30 2 C -1.193788 -2.678407 3.349608 0
M  V30 3 C -1.321872 -3.493180 4.600701 0
M  V30 4 S 0.194726 -1.530946 3.426070 0
M  V30 5 C 0.556095 -0.888810 1.766872 0
M  V30 6 S 1.645465 -1.597132 0.582255 0
M  V30 7 C 1.400688 -0.414875 -0.618933 0
M  V30 8 C 2.090434 -0.442244 -1.974339 0
M  V30 9 C 2.977027 -1.422934 -2.356553 0
M  V30 10 C 3.348275 -1.048444 -3.650431 0
M  V30 11 N 2.703891 0.097667 -3.998136 0
M  V30 12 N 1.946275 0.448281 -2.967735 0
M  V30 13 C 0.515673 0.478310 -0.111835 0
M  V30 14 C 0.108293 0.187226 1.128632 0
M  V30 15 C -0.861054 1.156561 1.701200 0
M  V30 16 O -1.351607 1.030983 2.876351 0
M  V30 17 N -1.305765 2.295327 0.968183 0
M  V30 18 C -1.358241 2.095880 -0.488524 0
M  V30 19 C 0.039005 1.679082 -0.860409 0
M  V30 20 H -2.394144 -1.459575 2.011273 0
M  V30 21 H -2.674735 -1.210558 3.754612 0
M  V30 22 H -3.349694 -2.680298 3.012732 0
M  V30 23 H -0.981759 -3.405696 2.519595 0
M  V30 24 H -0.359892 -4.062689 4.700960 0
M  V30 25 H -2.110822 -4.244633 4.493363 0
M  V30 26 H -1.454106 -2.849711 5.496091 0
M  V30 27 H 3.318997 -2.297047 -1.788203 0
M  V30 28 H 4.059876 -1.633594 -4.248976 0
M  V30 29 H 2.795298 0.597327 -4.904846 0
M  V30 30 H -1.575848 3.204146 1.415878 0
M  V30 31 H -1.513138 3.098007 -0.926316 0
M  V30 32 H -2.125202 1.370120 -0.780212 0
M  V30 33 H 0.018699 1.525776 -1.959353 0
M  V30 34 H 0.702894 2.553524 -0.683198 0
M  V30 END ATOM
M  V30 BEGIN BOND
M  V30 1 1 1 2
M  V30 2 1 2 3
M  V30 3 1 2 4
M  V30 4 1 4 5
M  V30 5 1 5 6
M  V30 6 1 6 7
M  V30 7 1 7 8
M  V30 8 1 8 9
M  V30 9 2 9 10
M  V30 10 1 10 11
M  V30 11 1 11 12
M  V30 12 2 7 13
M  V30 13 1 13 14
M  V30 14 1 14 15
M  V30 15 2 15 16
M  V30 16 1 15 17
M  V30 17 1 17 18
M  V30 18 1 18 19
M  V30 19 2 14 5
M  V30 20 2 12 8
M  V30 21 1 19 13
M  V30 22 1 1 20
M  V30 23 1 1 21
M  V30 24 1 1 22
M  V30 25 1 2 23
M  V30 26 1 3 24
M  V30 27 1 3 25
M  V30 28 1 3 26
M  V30 29 1 9 27
M  V30 30 1 10 28
M  V30 31 1 11 29
M  V30 32 1 17 30
M  V30 33 1 18 31
M  V30 34 1 18 32
M  V30 35 1 19 33
M  V30 36 1 19 34
M  V30 END BOND
M  V30 END CTAB
M  END
>  <Dataset>  (648) 
ChEMBL_Kinases

>  <Ligand_Instance>  (648) 
nan

>  <PDB_ID>  (648) 
nan

>  <Standardized_SMILES>  (648) 
CC(C)Sc1sc(-c2cc[nH]n2)c2c1C(=O)NCC2

>  <Name>  (648) 
nan

>  <Pocket>  (648) 
nan

>  <ATP_Site>  (648) 
nan

>  <Peripheral>  (648) 
nan

>  <Num_H_Atoms_ProtBoundConf>  (648) 
nan

>  <Num_Resolved_Atoms>  (648) 
nan

>  <Num_Not_Resolved_Atoms>  (648) 
nan

$$$$
CHEMBL3799396
     RDKit          3D

  0  0  0  0  0  0  0  0  0  0999 V3000
M  V30 BEGIN CTAB
M  V30 COUNTS 53 57 0 0 0
M  V30 BEGIN ATOM
M  V30 1 C 1.187558 -2.586723 2.918223 0
M  V30 2 C 2.524857 -2.517351 2.249606 0
M  V30 3 N 3.537088 -3.311446 2.494916 0
M  V30 4 N 4.629588 -2.980223 1.704984 0
M  V30 5 C 4.262854 -1.873482 0.889198 0
M  V30 6 O 5.141838 -1.436277 0.102337 0
M  V30 7 C 2.851707 -1.526393 1.221458 0
M  V30 8 C 2.869661 -0.139416 1.786766 0
M  V30 9 C 1.659063 0.677996 1.396191 0
M  V30 10 N 1.477717 0.678093 -0.047976 0
M  V30 11 C 0.669872 1.760211 -0.483348 0
M  V30 12 C 1.463598 2.870669 -0.786802 0
M  V30 13 Cl 3.217687 2.941354 -0.673001 0
M  V30 14 C 0.879652 4.062701 -1.224792 0
M  V30 15 N -0.461579 4.122409 -1.349288 0
M  V30 16 C -1.237657 3.062298 -1.061045 0
M  V30 17 C -0.692285 1.873356 -0.627120 0
M  V30 18 C -1.504923 0.714461 -0.310941 0
M  V30 19 C -2.544663 1.116090 0.544949 0
M  V30 20 C -3.473181 0.160313 0.983093 0
M  V30 21 C -3.421266 -1.167763 0.615752 0
M  V30 22 C -2.407763 -1.528589 -0.211156 0
M  V30 23 C -1.482441 -0.617636 -0.658308 0
M  V30 24 C -2.304728 -2.965776 -0.641673 0
M  V30 25 S -3.854037 -3.591377 -0.031186 0
M  V30 26 O -4.836456 -3.809627 -1.133030 0
M  V30 27 O -3.640719 -4.817974 0.801513 0
M  V30 28 N -4.277602 -2.246417 0.971005 0
M  V30 29 C -5.324114 -2.268140 1.975528 0
M  V30 30 C 2.126595 -0.369019 -0.829282 0
M  V30 31 C 2.040931 -1.637637 -0.042648 0
M  V30 32 H 0.400791 -2.961293 2.208758 0
M  V30 33 H 1.242574 -3.316688 3.743847 0
M  V30 34 H 0.932613 -1.572389 3.265061 0
M  V30 35 H 5.466004 -3.608065 1.882411 0
M  V30 36 H 2.832708 -0.219008 2.892843 0
M  V30 37 H 3.814937 0.394020 1.561850 0
M  V30 38 H 1.930919 1.737588 1.678723 0
M  V30 39 H 0.763900 0.436555 1.965632 0
M  V30 40 H 1.445532 4.950377 -1.472728 0
M  V30 41 H -2.328568 3.064348 -1.146983 0
M  V30 42 H -2.747944 2.123806 0.942729 0
M  V30 43 H -4.296722 0.447521 1.653490 0
M  V30 44 H -0.648283 -0.791185 -1.317445 0
M  V30 45 H -1.494934 -3.501449 -0.119264 0
M  V30 46 H -2.233220 -3.056034 -1.744455 0
M  V30 47 H -5.590120 -1.274255 2.338124 0
M  V30 48 H -4.979479 -2.928008 2.811022 0
M  V30 49 H -6.234712 -2.721693 1.511509 0
M  V30 50 H 1.708300 -0.461172 -1.833852 0
M  V30 51 H 3.207499 -0.094115 -0.936216 0
M  V30 52 H 2.327357 -2.525355 -0.638375 0
M  V30 53 H 0.990060 -1.786172 0.276998 0
M  V30 END ATOM
M  V30 BEGIN BOND
M  V30 1 1 1 2
M  V30 2 2 2 3
M  V30 3 1 3 4
M  V30 4 1 4 5
M  V30 5 2 5 6
M  V30 6 1 5 7
M  V30 7 1 7 8
M  V30 8 1 8 9
M  V30 9 1 9 10
M  V30 10 1 10 11
M  V30 11 2 11 12
M  V30 12 1 12 13
M  V30 13 1 12 14
M  V30 14 2 14 15
M  V30 15 1 15 16
M  V30 16 2 16 17
M  V30 17 1 17 18
M  V30 18 2 18 19
M  V30 19 1 19 20
M  V30 20 2 20 21
M  V30 21 1 21 22
M  V30 22 2 22 23
M  V30 23 1 22 24
M  V30 24 1 24 25
M  V30 25 2 25 26
M  V30 26 2 25 27
M  V30 27 1 25 28
M  V30 28 1 28 29
M  V30 29 1 10 30
M  V30 30 1 30 31
M  V30 31 1 7 2
M  V30 32 1 17 11
M  V30 33 1 23 18
M  V30 34 1 31 7
M  V30 35 1 28 21
M  V30 36 1 1 32
M  V30 37 1 1 33
M  V30 38 1 1 34
M  V30 39 1 4 35
M  V30 40 1 8 36
M  V30 41 1 8 37
M  V30 42 1 9 38
M  V30 43 1 9 39
M  V30 44 1 14 40
M  V30 45 1 16 41
M  V30 46 1 19 42
M  V30 47 1 20 43
M  V30 48 1 23 44
M  V30 49 1 24 45
M  V30 50 1 24 46
M  V30 51 1 29 47
M  V30 52 1 29 48
M  V30 53 1 29 49
M  V30 54 1 30 50
M  V30 55 1 30 51
M  V30 56 1 31 52
M  V30 57 1 31 53
M  V30 END BOND
M  V30 END CTAB
M  END
>  <Dataset>  (649) 
ChEMBL_Kinases

>  <Ligand_Instance>  (649) 
nan

>  <PDB_ID>  (649) 
nan

>  <Standardized_SMILES>  (649) 
CC1=NNC(=O)C12CCN(c1c(Cl)cncc1-c1ccc3c(c1)CS(=O)(=O)N3C)CC2

>  <Name>  (649) 
nan

>  <Pocket>  (649) 
nan

>  <ATP_Site>  (649) 
nan

>  <Peripheral>  (649) 
nan

>  <Num_H_Atoms_ProtBoundConf>  (649) 
nan

>  <Num_Resolved_Atoms>  (649) 
nan

>  <Num_Not_Resolved_Atoms>  (649) 
nan

$$$$
CHEMBL3800253
     RDKit          3D

  0  0  0  0  0  0  0  0  0  0999 V3000
M  V30 BEGIN CTAB
M  V30 COUNTS 48 51 0 0 0
M  V30 BEGIN ATOM
M  V30 1 C -1.111260 -5.110404 1.448417 0
M  V30 2 C -0.690146 -3.701093 1.085720 0
M  V30 3 C -1.183726 -2.801071 2.219003 0
M  V30 4 C 0.799930 -3.710832 1.022556 0
M  V30 5 C 1.276518 -2.795171 -0.079023 0
M  V30 6 O 2.462331 -2.969108 -0.449229 0
M  V30 7 C 0.403059 -1.761786 -0.682103 0
M  V30 8 C 0.877695 -0.581390 -1.173886 0
M  V30 9 S 2.536500 0.114101 -1.280403 0
M  V30 10 C 2.923887 1.067198 0.210051 0
M  V30 11 C 2.093595 2.297392 0.364345 0
M  V30 12 C 2.526419 2.969665 1.636226 0
M  V30 13 C 3.513346 3.916699 1.813794 0
M  V30 14 C 3.724719 4.388192 3.096640 0
M  V30 15 C 2.998415 3.950155 4.167110 0
M  V30 16 C 2.011658 3.005783 4.002648 0
M  V30 17 C 1.786403 2.525879 2.738239 0
M  V30 18 S -0.665649 0.239461 -1.764134 0
M  V30 19 C -1.701556 -1.036270 -1.301917 0
M  V30 20 C -3.185910 -1.028901 -1.501025 0
M  V30 21 C -3.829878 0.037816 -2.092631 0
M  V30 22 C -5.185582 -0.281949 -2.116824 0
M  V30 23 N -5.290112 -1.517221 -1.542523 0
M  V30 24 N -4.074474 -1.952670 -1.177124 0
M  V30 25 C -0.924327 -2.003777 -0.744386 0
M  V30 26 C -1.368498 -3.308938 -0.193550 0
M  V30 27 H -0.499257 -5.857496 0.899397 0
M  V30 28 H -2.188835 -5.280296 1.381507 0
M  V30 29 H -0.825476 -5.245928 2.530060 0
M  V30 30 H -1.259319 -1.753868 1.894442 0
M  V30 31 H -2.175072 -3.190084 2.538816 0
M  V30 32 H -0.514726 -2.944970 3.085196 0
M  V30 33 H 1.275315 -4.691482 0.954148 0
M  V30 34 H 1.196014 -3.213489 1.953592 0
M  V30 35 H 3.985990 1.400941 0.085332 0
M  V30 36 H 2.925230 0.460488 1.131894 0
M  V30 37 H 1.014602 2.158890 0.336744 0
M  V30 38 H 2.323513 3.020014 -0.466955 0
M  V30 39 H 4.017352 4.183691 0.898465 0
M  V30 40 H 4.525205 5.141088 3.171555 0
M  V30 41 H 3.207380 4.356085 5.157767 0
M  V30 42 H 1.448307 2.674117 4.873733 0
M  V30 43 H 0.985421 1.776778 2.686609 0
M  V30 44 H -3.451543 0.989314 -2.496170 0
M  V30 45 H -6.006429 0.318189 -2.509499 0
M  V30 46 H -6.222570 -1.972542 -1.447908 0
M  V30 47 H -1.271905 -4.151083 -0.915847 0
M  V30 48 H -2.468527 -3.297330 0.045857 0
M  V30 END ATOM
M  V30 BEGIN BOND
M  V30 1 1 1 2
M  V30 2 1 2 3
M  V30 3 1 2 4
M  V30 4 1 4 5
M  V30 5 2 5 6
M  V30 6 1 5 7
M  V30 7 2 7 8
M  V30 8 1 8 9
M  V30 9 1 9 10
M  V30 10 1 10 11
M  V30 11 1 11 12
M  V30 12 2 12 13
M  V30 13 1 13 14
M  V30 14 2 14 15
M  V30 15 1 15 16
M  V30 16 2 16 17
M  V30 17 1 8 18
M  V30 18 1 18 19
M  V30 19 1 19 20
M  V30 20 1 20 21
M  V30 21 2 21 22
M  V30 22 1 22 23
M  V30 23 1 23 24
M  V30 24 2 19 25
M  V30 25 1 25 26
M  V30 26 1 26 2
M  V30 27 1 25 7
M  V30 28 1 17 12
M  V30 29 2 24 20
M  V30 30 1 1 27
M  V30 31 1 1 28
M  V30 32 1 1 29
M  V30 33 1 3 30
M  V30 34 1 3 31
M  V30 35 1 3 32
M  V30 36 1 4 33
M  V30 37 1 4 34
M  V30 38 1 10 35
M  V30 39 1 10 36
M  V30 40 1 11 37
M  V30 41 1 11 38
M  V30 42 1 13 39
M  V30 43 1 14 40
M  V30 44 1 15 41
M  V30 45 1 16 42
M  V30 46 1 17 43
M  V30 47 1 21 44
M  V30 48 1 22 45
M  V30 49 1 23 46
M  V30 50 1 26 47
M  V30 51 1 26 48
M  V30 END BOND
M  V30 END CTAB
M  END
>  <Dataset>  (650) 
ChEMBL_Kinases

>  <Ligand_Instance>  (650) 
nan

>  <PDB_ID>  (650) 
nan

>  <Standardized_SMILES>  (650) 
CC1(C)CC(=O)c2c(SCCc3ccccc3)sc(-c3cc[nH]n3)c2C1

>  <Name>  (650) 
nan

>  <Pocket>  (650) 
nan

>  <ATP_Site>  (650) 
nan

>  <Peripheral>  (650) 
nan

>  <Num_H_Atoms_ProtBoundConf>  (650) 
nan

>  <Num_Resolved_Atoms>  (650) 
nan

>  <Num_Not_Resolved_Atoms>  (650) 
nan

$$$$
CHEMBL3800214
     RDKit          3D

  0  0  0  0  0  0  0  0  0  0999 V3000
M  V30 BEGIN CTAB
M  V30 COUNTS 39 42 0 0 0
M  V30 BEGIN ATOM
M  V30 1 O 0.234171 -0.287560 4.290217 0
M  V30 2 C 0.550480 -0.916543 3.230391 0
M  V30 3 C 0.537647 -2.423078 3.372064 0
M  V30 4 C 1.147185 -2.982817 2.099325 0
M  V30 5 C 2.303017 -2.054395 1.686714 0
M  V30 6 C 1.808542 -0.778716 1.109327 0
M  V30 7 C 2.091574 -0.152287 0.006514 0
M  V30 8 C 3.006194 -0.406012 -1.150200 0
M  V30 9 C 3.899570 -1.389172 -1.498244 0
M  V30 10 C 4.506117 -1.145679 -2.704063 0
M  V30 11 N 3.967862 0.016819 -3.100668 0
M  V30 12 N 3.105773 0.445467 -2.211568 0
M  V30 13 S 1.078915 1.290971 0.068597 0
M  V30 14 C 0.331813 0.921679 1.626423 0
M  V30 15 S -0.886000 2.040909 2.361690 0
M  V30 16 C -2.567115 1.643059 1.832181 0
M  V30 17 C -2.757728 1.890797 0.346970 0
M  V30 18 C -2.805609 0.569417 -0.339974 0
M  V30 19 C -3.272166 -0.388149 0.713133 0
M  V30 20 C -2.967762 0.225061 2.063250 0
M  V30 21 C 0.904328 -0.240396 1.955996 0
M  V30 22 H 1.113778 -2.706463 4.270707 0
M  V30 23 H -0.527295 -2.717926 3.422728 0
M  V30 24 H 1.611630 -3.962979 2.306199 0
M  V30 25 H 0.411486 -3.097601 1.301984 0
M  V30 26 H 2.842665 -1.840233 2.658850 0
M  V30 27 H 2.936814 -2.656240 1.057291 0
M  V30 28 H 4.077126 -2.238118 -0.869483 0
M  V30 29 H 5.237772 -1.809816 -3.139915 0
M  V30 30 H 4.225588 0.489724 -4.004328 0
M  V30 31 H -3.248658 2.326267 2.377342 0
M  V30 32 H -3.704689 2.448826 0.172117 0
M  V30 33 H -1.962196 2.566111 -0.061406 0
M  V30 34 H -1.857730 0.279425 -0.825180 0
M  V30 35 H -3.580192 0.564020 -1.155191 0
M  V30 36 H -4.359347 -0.643497 0.596076 0
M  V30 37 H -2.692974 -1.332391 0.604203 0
M  V30 38 H -2.221688 -0.368138 2.627002 0
M  V30 39 H -3.931933 0.178849 2.649047 0
M  V30 END ATOM
M  V30 BEGIN BOND
M  V30 1 2 1 2
M  V30 2 1 2 3
M  V30 3 1 3 4
M  V30 4 1 4 5
M  V30 5 1 5 6
M  V30 6 2 6 7
M  V30 7 1 7 8
M  V30 8 1 8 9
M  V30 9 2 9 10
M  V30 10 1 10 11
M  V30 11 1 11 12
M  V30 12 1 7 13
M  V30 13 1 13 14
M  V30 14 1 14 15
M  V30 15 1 15 16
M  V30 16 1 16 17
M  V30 17 1 17 18
M  V30 18 1 18 19
M  V30 19 1 19 20
M  V30 20 2 14 21
M  V30 21 1 21 2
M  V30 22 1 21 6
M  V30 23 2 12 8
M  V30 24 1 20 16
M  V30 25 1 3 22
M  V30 26 1 3 23
M  V30 27 1 4 24
M  V30 28 1 4 25
M  V30 29 1 5 26
M  V30 30 1 5 27
M  V30 31 1 9 28
M  V30 32 1 10 29
M  V30 33 1 11 30
M  V30 34 1 16 31
M  V30 35 1 17 32
M  V30 36 1 17 33
M  V30 37 1 18 34
M  V30 38 1 18 35
M  V30 39 1 19 36
M  V30 40 1 19 37
M  V30 41 1 20 38
M  V30 42 1 20 39
M  V30 END BOND
M  V30 END CTAB
M  END
>  <Dataset>  (651) 
ChEMBL_Kinases

>  <Ligand_Instance>  (651) 
nan

>  <PDB_ID>  (651) 
nan

>  <Standardized_SMILES>  (651) 
O=C1CCCc2c(-c3cc[nH]n3)sc(SC3CCCC3)c21

>  <Name>  (651) 
nan

>  <Pocket>  (651) 
nan

>  <ATP_Site>  (651) 
nan

>  <Peripheral>  (651) 
nan

>  <Num_H_Atoms_ProtBoundConf>  (651) 
nan

>  <Num_Resolved_Atoms>  (651) 
nan

>  <Num_Not_Resolved_Atoms>  (651) 
nan

$$$$
CHEMBL3800210
     RDKit          3D

  0  0  0  0  0  0  0  0  0  0999 V3000
M  V30 BEGIN CTAB
M  V30 COUNTS 52 56 0 0 0
M  V30 BEGIN ATOM
M  V30 1 C 1.351593 -5.629365 6.011981 0
M  V30 2 N 1.677591 -4.939879 4.762954 0
M  V30 3 C 1.356092 -3.658280 4.494882 0
M  V30 4 C 1.817252 -3.341671 3.232078 0
M  V30 5 C 1.726923 -2.093065 2.478050 0
M  V30 6 C 1.650184 -2.147822 1.102732 0
M  V30 7 C 1.564475 -0.988703 0.366798 0
M  V30 8 C 1.549446 0.290218 0.946788 0
M  V30 9 C 1.461495 1.594683 0.358432 0
M  V30 10 C 2.700681 2.207733 0.608013 0
M  V30 11 N 3.025841 3.448493 0.128490 0
M  V30 12 C 2.077361 4.088013 -0.621939 0
M  V30 13 C 0.875171 3.453031 -0.841921 0
M  V30 14 Cl -0.169983 4.462712 -1.798150 0
M  V30 15 C 0.493518 2.214258 -0.387707 0
M  V30 16 N -0.748266 1.625130 -0.551558 0
M  V30 17 C -1.302055 0.467121 0.023733 0
M  V30 18 C -1.423865 -0.575529 -1.068101 0
M  V30 19 C -2.640209 -0.152922 -1.869726 0
M  V30 20 C -2.905498 1.308814 -1.770600 0
M  V30 21 C -1.728010 2.170823 -1.465902 0
M  V30 22 N -3.742351 -0.993912 -1.452088 0
M  V30 23 C -3.495218 -2.261680 -2.066703 0
M  V30 24 O -3.945429 -3.372403 -1.645168 0
M  V30 25 N -2.662498 -1.993640 -3.211105 0
M  V30 26 C -2.417417 -0.573682 -3.274184 0
M  V30 27 O -2.108371 -0.149202 -4.428737 0
M  V30 28 C 1.630957 0.267714 2.351556 0
M  V30 29 C 1.719673 -0.884596 3.143198 0
M  V30 30 C 2.436470 -4.496859 2.744406 0
M  V30 31 N 2.326879 -5.434241 3.703596 0
M  V30 32 H 0.265400 -5.921675 5.963411 0
M  V30 33 H 1.953505 -6.529528 6.155393 0
M  V30 34 H 1.429065 -4.885925 6.821171 0
M  V30 35 H 0.835544 -2.994920 5.140011 0
M  V30 36 H 1.651031 -3.055029 0.522884 0
M  V30 37 H 1.504889 -0.929476 -0.711902 0
M  V30 38 H 3.559145 1.830160 1.186272 0
M  V30 39 H 2.364750 5.060017 -0.983761 0
M  V30 40 H -2.388781 0.676731 0.332430 0
M  V30 41 H -0.885822 0.104019 0.973057 0
M  V30 42 H -1.565186 -1.585431 -0.689025 0
M  V30 43 H -0.561138 -0.475207 -1.791972 0
M  V30 44 H -3.679730 1.470655 -0.999716 0
M  V30 45 H -3.344498 1.633873 -2.735294 0
M  V30 46 H -2.076627 3.129878 -1.039977 0
M  V30 47 H -1.253623 2.412790 -2.461625 0
M  V30 48 H -4.539818 -0.716129 -0.832881 0
M  V30 49 H -2.373866 -2.823797 -3.796042 0
M  V30 50 H 1.628646 1.206141 2.922762 0
M  V30 51 H 1.778063 -0.797123 4.217815 0
M  V30 52 H 2.910962 -4.617861 1.786581 0
M  V30 END ATOM
M  V30 BEGIN BOND
M  V30 1 1 1 2
M  V30 2 1 2 3
M  V30 3 2 3 4
M  V30 4 1 4 5
M  V30 5 2 5 6
M  V30 6 1 6 7
M  V30 7 2 7 8
M  V30 8 1 8 9
M  V30 9 2 9 10
M  V30 10 1 10 11
M  V30 11 2 11 12
M  V30 12 1 12 13
M  V30 13 1 13 14
M  V30 14 2 13 15
M  V30 15 1 15 16
M  V30 16 1 16 17
M  V30 17 1 17 18
M  V30 18 1 18 19
M  V30 19 1 19 20
M  V30 20 1 20 21
M  V30 21 1 19 22
M  V30 22 1 22 23
M  V30 23 2 23 24
M  V30 24 1 23 25
M  V30 25 1 25 26
M  V30 26 2 26 27
M  V30 27 1 8 28
M  V30 28 2 28 29
M  V30 29 1 4 30
M  V30 30 2 30 31
M  V30 31 1 31 2
M  V30 32 1 29 5
M  V30 33 1 15 9
M  V30 34 1 21 16
M  V30 35 1 26 19
M  V30 36 1 1 32
M  V30 37 1 1 33
M  V30 38 1 1 34
M  V30 39 1 3 35
M  V30 40 1 6 36
M  V30 41 1 7 37
M  V30 42 1 10 38
M  V30 43 1 12 39
M  V30 44 1 17 40
M  V30 45 1 17 41
M  V30 46 1 18 42
M  V30 47 1 18 43
M  V30 48 1 20 44
M  V30 49 1 20 45
M  V30 50 1 21 46
M  V30 51 1 21 47
M  V30 52 1 22 48
M  V30 53 1 25 49
M  V30 54 1 28 50
M  V30 55 1 29 51
M  V30 56 1 30 52
M  V30 END BOND
M  V30 END CTAB
M  END
>  <Dataset>  (652) 
ChEMBL_Kinases

>  <Ligand_Instance>  (652) 
nan

>  <PDB_ID>  (652) 
nan

>  <Standardized_SMILES>  (652) 
Cn1cc(-c2ccc(-c3cncc(Cl)c3N3CCC4(CC3)NC(=O)NC4=O)cc2)cn1

>  <Name>  (652) 
nan

>  <Pocket>  (652) 
nan

>  <ATP_Site>  (652) 
nan

>  <Peripheral>  (652) 
nan

>  <Num_H_Atoms_ProtBoundConf>  (652) 
nan

>  <Num_Resolved_Atoms>  (652) 
nan

>  <Num_Not_Resolved_Atoms>  (652) 
nan

$$$$
CHEMBL499006
     RDKit          3D

  0  0  0  0  0  0  0  0  0  0999 V3000
M  V30 BEGIN CTAB
M  V30 COUNTS 40 43 0 0 0
M  V30 BEGIN ATOM
M  V30 1 C -0.502381 -4.614214 1.987012 0
M  V30 2 O 0.229427 -4.840047 0.776111 0
M  V30 3 C 1.053705 -3.837417 0.283262 0
M  V30 4 C 1.166049 -2.635639 0.953931 0
M  V30 5 C 1.979207 -1.604970 0.496417 0
M  V30 6 C 2.716518 -1.766022 -0.677367 0
M  V30 7 C 3.565489 -0.655949 -1.133436 0
M  V30 8 S 2.744241 0.501963 -2.244047 0
M  V30 9 C 1.431068 1.419022 -1.456385 0
M  V30 10 N 0.730655 2.325354 -2.184521 0
M  V30 11 N -0.171819 2.847324 -1.345397 0
M  V30 12 C -0.037927 2.284030 -0.132600 0
M  V30 13 C -0.825663 2.574350 1.055489 0
M  V30 14 C -0.632403 1.956512 2.272187 0
M  V30 15 C -1.357030 2.208940 3.404067 0
M  V30 16 C -2.381931 3.150636 3.392157 0
M  V30 17 N -3.217045 3.579209 4.314505 0
M  V30 18 C -4.052071 4.356441 4.275047 0
M  V30 19 S -3.945594 4.924647 2.439924 0
M  V30 20 C -2.549779 3.757128 2.142887 0
M  V30 21 C -1.825673 3.518262 0.974817 0
M  V30 22 O 0.945419 1.421394 -0.238400 0
M  V30 23 C 2.614370 -2.963774 -1.360081 0
M  V30 24 C 1.790454 -3.981442 -0.878125 0
M  V30 25 C 1.657061 -5.288612 -1.592382 0
M  V30 26 F 0.323107 -5.438363 -1.932361 0
M  V30 27 F 2.474337 -5.340413 -2.684961 0
M  V30 28 F 1.923462 -6.309669 -0.678927 0
M  V30 29 H 0.169803 -4.345400 2.819831 0
M  V30 30 H -1.091435 -5.504006 2.224642 0
M  V30 31 H -1.125996 -3.704491 1.784641 0
M  V30 32 H 0.577333 -2.540313 1.867662 0
M  V30 33 H 1.973898 -0.737930 1.106772 0
M  V30 34 H 4.479610 -0.998703 -1.664236 0
M  V30 35 H 3.945425 -0.045052 -0.262226 0
M  V30 36 H 0.175356 1.208535 2.298143 0
M  V30 37 H -1.107359 1.655141 4.301803 0
M  V30 38 H -4.718096 4.645425 5.156605 0
M  V30 39 H -2.092278 4.076728 0.106191 0
M  V30 40 H 3.171964 -3.107060 -2.262822 0
M  V30 END ATOM
M  V30 BEGIN BOND
M  V30 1 1 1 2
M  V30 2 1 2 3
M  V30 3 2 3 4
M  V30 4 1 4 5
M  V30 5 2 5 6
M  V30 6 1 6 7
M  V30 7 1 7 8
M  V30 8 1 8 9
M  V30 9 2 9 10
M  V30 10 1 10 11
M  V30 11 2 11 12
M  V30 12 1 12 13
M  V30 13 2 13 14
M  V30 14 1 14 15
M  V30 15 2 15 16
M  V30 16 1 16 17
M  V30 17 2 17 18
M  V30 18 1 18 19
M  V30 19 1 19 20
M  V30 20 2 20 21
M  V30 21 1 12 22
M  V30 22 1 6 23
M  V30 23 2 23 24
M  V30 24 1 24 25
M  V30 25 1 25 26
M  V30 26 1 25 27
M  V30 27 1 25 28
M  V30 28 1 24 3
M  V30 29 1 22 9
M  V30 30 1 21 13
M  V30 31 1 20 16
M  V30 32 1 1 29
M  V30 33 1 1 30
M  V30 34 1 1 31
M  V30 35 1 4 32
M  V30 36 1 5 33
M  V30 37 1 7 34
M  V30 38 1 7 35
M  V30 39 1 14 36
M  V30 40 1 15 37
M  V30 41 1 18 38
M  V30 42 1 21 39
M  V30 43 1 23 40
M  V30 END BOND
M  V30 END CTAB
M  END
>  <Dataset>  (653) 
ChEMBL_Kinases

>  <Ligand_Instance>  (653) 
nan

>  <PDB_ID>  (653) 
nan

>  <Standardized_SMILES>  (653) 
COc1ccc(CSc2nnc(-c3ccc4ncsc4c3)o2)cc1C(F)(F)F

>  <Name>  (653) 
nan

>  <Pocket>  (653) 
nan

>  <ATP_Site>  (653) 
nan

>  <Peripheral>  (653) 
nan

>  <Num_H_Atoms_ProtBoundConf>  (653) 
nan

>  <Num_Resolved_Atoms>  (653) 
nan

>  <Num_Not_Resolved_Atoms>  (653) 
nan

$$$$
CHEMBL3800174
     RDKit          3D

  0  0  0  0  0  0  0  0  0  0999 V3000
M  V30 BEGIN CTAB
M  V30 COUNTS 38 41 0 0 0
M  V30 BEGIN ATOM
M  V30 1 C -1.127395 -1.874551 5.036358 0
M  V30 2 S 0.397476 -0.885197 5.035376 0
M  V30 3 C 1.015424 -0.807769 3.385882 0
M  V30 4 S 2.190065 -1.990913 2.592609 0
M  V30 5 C 2.246513 -1.207367 1.075264 0
M  V30 6 C 3.046206 -1.661731 -0.082945 0
M  V30 7 C 3.830638 -2.793211 -0.011870 0
M  V30 8 C 4.397204 -2.855533 -1.289401 0
M  V30 9 N 3.973388 -1.829213 -2.058225 0
M  V30 10 N 3.151682 -1.124461 -1.286811 0
M  V30 11 C 1.408139 -0.091907 1.164133 0
M  V30 12 C 0.777487 0.119466 2.336114 0
M  V30 13 C -0.105787 1.272224 2.461092 0
M  V30 14 O -0.721307 1.511281 3.550120 0
M  V30 15 N -0.306692 2.164440 1.372227 0
M  V30 16 C -0.153094 1.530425 0.076183 0
M  V30 17 C -1.293826 0.725849 -0.346233 0
M  V30 18 C -2.536911 1.316438 -0.152519 0
M  V30 19 C -3.694728 0.639928 -0.518994 0
M  V30 20 C -3.578659 -0.630362 -1.078858 0
M  V30 21 F -4.703760 -1.299558 -1.440334 0
M  V30 22 C -2.346528 -1.258257 -1.289787 0
M  V30 23 C -1.234008 -0.533316 -0.904279 0
M  V30 24 C 1.173781 0.865505 0.053032 0
M  V30 25 H -1.771715 -1.626248 5.927113 0
M  V30 26 H -1.779843 -1.649110 4.152203 0
M  V30 27 H -0.898262 -2.957673 5.040807 0
M  V30 28 H 4.032439 -3.519052 0.771662 0
M  V30 29 H 5.095386 -3.594892 -1.697618 0
M  V30 30 H 4.234823 -1.630678 -3.048029 0
M  V30 31 H -0.543233 3.181844 1.549434 0
M  V30 32 H -0.080274 2.391260 -0.645196 0
M  V30 33 H -2.752475 2.295583 0.271825 0
M  V30 34 H -4.702022 1.056758 -0.389615 0
M  V30 35 H -2.253807 -2.225977 -1.715981 0
M  V30 36 H -0.212379 -0.924206 -1.021461 0
M  V30 37 H 1.940328 1.676173 0.146853 0
M  V30 38 H 1.360446 0.402876 -0.937951 0
M  V30 END ATOM
M  V30 BEGIN BOND
M  V30 1 1 1 2
M  V30 2 1 2 3
M  V30 3 1 3 4
M  V30 4 1 4 5
M  V30 5 1 5 6
M  V30 6 1 6 7
M  V30 7 2 7 8
M  V30 8 1 8 9
M  V30 9 1 9 10
M  V30 10 2 5 11
M  V30 11 1 11 12
M  V30 12 1 12 13
M  V30 13 2 13 14
M  V30 14 1 13 15
M  V30 15 1 15 16
M  V30 16 1 16 17
M  V30 17 2 17 18
M  V30 18 1 18 19
M  V30 19 2 19 20
M  V30 20 1 20 21
M  V30 21 1 20 22
M  V30 22 2 22 23
M  V30 23 1 16 24
M  V30 24 2 12 3
M  V30 25 1 23 17
M  V30 26 2 10 6
M  V30 27 1 24 11
M  V30 28 1 1 25
M  V30 29 1 1 26
M  V30 30 1 1 27
M  V30 31 1 7 28
M  V30 32 1 8 29
M  V30 33 1 9 30
M  V30 34 1 15 31
M  V30 35 1 16 32
M  V30 36 1 18 33
M  V30 37 1 19 34
M  V30 38 1 22 35
M  V30 39 1 23 36
M  V30 40 1 24 37
M  V30 41 1 24 38
M  V30 END BOND
M  V30 END CTAB
M  END
>  <Dataset>  (654) 
ChEMBL_Kinases

>  <Ligand_Instance>  (654) 
nan

>  <PDB_ID>  (654) 
nan

>  <Standardized_SMILES>  (654) 
CSc1sc(-c2cc[nH]n2)c2c1C(=O)NC(c1ccc(F)cc1)C2

>  <Name>  (654) 
nan

>  <Pocket>  (654) 
nan

>  <ATP_Site>  (654) 
nan

>  <Peripheral>  (654) 
nan

>  <Num_H_Atoms_ProtBoundConf>  (654) 
nan

>  <Num_Resolved_Atoms>  (654) 
nan

>  <Num_Not_Resolved_Atoms>  (654) 
nan

$$$$
CHEMBL49902
     RDKit          3D

  0  0  0  0  0  0  0  0  0  0999 V3000
M  V30 BEGIN CTAB
M  V30 COUNTS 60 61 0 0 0
M  V30 BEGIN ATOM
M  V30 1 C -0.000900 -4.410605 3.750985 0
M  V30 2 C 1.042081 -3.569591 3.060015 0
M  V30 3 C 0.375358 -2.443142 2.249393 0
M  V30 4 C 1.498197 -1.696913 1.625401 0
M  V30 5 C 1.118549 -0.514730 0.756932 0
M  V30 6 C 2.313979 0.176808 0.171968 0
M  V30 7 C 3.374830 0.756002 0.965396 0
M  V30 8 C 3.131283 1.826236 1.952538 0
M  V30 9 C 4.500875 2.193515 2.571284 0
M  V30 10 C 0.320330 0.466350 1.526489 0
M  V30 11 C -1.131316 0.543235 1.343643 0
M  V30 12 C -1.774408 -0.453392 0.412291 0 CFG=1
M  V30 13 C -3.177297 0.096609 0.249217 0
M  V30 14 C -3.959233 -0.961034 -0.450479 0
M  V30 15 O -4.838632 -1.555680 0.243391 0
M  V30 16 N -3.835529 -1.382337 -1.805021 0
M  V30 17 C -2.620867 -1.188738 -2.611966 0 CFG=2
M  V30 18 C -2.733756 -2.201272 -3.736502 0
M  V30 19 O -3.867352 -1.983911 -4.492084 0
M  V30 20 C -1.405187 -1.492382 -1.868122 0
M  V30 21 C -0.962531 -0.555556 -0.783349 0 CFG=1
M  V30 22 C -0.761600 0.792262 -1.440442 0
M  V30 23 C 0.397259 -1.084491 -0.443003 0
M  V30 24 H 0.166901 -4.462742 4.851915 0
M  V30 25 H -0.977410 -3.896654 3.632657 0
M  V30 26 H -0.122046 -5.417045 3.307659 0
M  V30 27 H 1.670612 -4.215203 2.435746 0
M  V30 28 H 1.691956 -3.135524 3.849554 0
M  V30 29 H -0.228886 -1.892199 2.974117 0
M  V30 30 H -0.236948 -3.022656 1.503570 0
M  V30 31 H 2.056769 -2.458918 1.024656 0
M  V30 32 H 2.211069 -1.431779 2.422901 0
M  V30 33 H 2.813794 -0.497340 -0.593715 0
M  V30 34 H 1.936747 1.003862 -0.506595 0
M  V30 35 H 4.052117 1.263886 0.197856 0
M  V30 36 H 4.138261 0.016111 1.369921 0
M  V30 37 H 2.514079 1.578688 2.832633 0
M  V30 38 H 2.738247 2.777470 1.547056 0
M  V30 39 H 4.373832 2.626162 3.575149 0
M  V30 40 H 5.038466 2.927240 1.948616 0
M  V30 41 H 5.139013 1.302259 2.665871 0
M  V30 42 H 0.474645 0.363219 2.643063 0
M  V30 43 H 0.713925 1.515044 1.347737 0
M  V30 44 H -1.463124 1.565374 0.980496 0
M  V30 45 H -1.726984 0.446200 2.305509 0
M  V30 46 H -1.939441 -1.455915 0.866962 0
M  V30 47 H -3.614682 0.363373 1.215341 0
M  V30 48 H -3.225730 0.992076 -0.379750 0
M  V30 49 H -4.668626 -1.851629 -2.221864 0
M  V30 50 H -2.727009 -0.199663 -3.069046 0
M  V30 51 H -2.649694 -3.221277 -3.317471 0
M  V30 52 H -1.848949 -1.992297 -4.402816 0
M  V30 53 H -4.652334 -2.482503 -4.192300 0
M  V30 54 H -0.567528 -1.536246 -2.609832 0
M  V30 55 H -1.501007 -2.527760 -1.475527 0
M  V30 56 H 0.068139 0.689354 -2.199322 0
M  V30 57 H -1.635146 1.152687 -2.002549 0
M  V30 58 H -0.402470 1.580064 -0.754294 0
M  V30 59 H 0.352839 -2.192614 -0.353938 0
M  V30 60 H 0.989142 -0.975311 -1.403072 0
M  V30 END ATOM
M  V30 BEGIN BOND
M  V30 1 1 1 2
M  V30 2 1 2 3
M  V30 3 1 3 4
M  V30 4 1 4 5
M  V30 5 1 5 6
M  V30 6 1 6 7
M  V30 7 1 7 8
M  V30 8 1 8 9
M  V30 9 1 5 10
M  V30 10 1 10 11
M  V30 11 1 11 12
M  V30 12 1 12 13
M  V30 13 1 13 14
M  V30 14 2 14 15
M  V30 15 1 14 16
M  V30 16 1 16 17
M  V30 17 1 17 18
M  V30 18 1 18 19
M  V30 19 1 17 20
M  V30 20 1 20 21
M  V30 21 1 21 22 CFG=3
M  V30 22 1 21 23
M  V30 23 1 23 5
M  V30 24 1 21 12
M  V30 25 1 1 24
M  V30 26 1 1 25
M  V30 27 1 1 26
M  V30 28 1 2 27
M  V30 29 1 2 28
M  V30 30 1 3 29
M  V30 31 1 3 30
M  V30 32 1 4 31
M  V30 33 1 4 32
M  V30 34 1 6 33
M  V30 35 1 6 34
M  V30 36 1 7 35
M  V30 37 1 7 36
M  V30 38 1 8 37
M  V30 39 1 8 38
M  V30 40 1 9 39
M  V30 41 1 9 40
M  V30 42 1 9 41
M  V30 43 1 10 42
M  V30 44 1 10 43
M  V30 45 1 11 44
M  V30 46 1 11 45
M  V30 47 1 12 46 CFG=1
M  V30 48 1 13 47
M  V30 49 1 13 48
M  V30 50 1 16 49
M  V30 51 1 17 50 CFG=3
M  V30 52 1 18 51
M  V30 53 1 18 52
M  V30 54 1 19 53
M  V30 55 1 20 54
M  V30 56 1 20 55
M  V30 57 1 22 56
M  V30 58 1 22 57
M  V30 59 1 22 58
M  V30 60 1 23 59
M  V30 61 1 23 60
M  V30 END BOND
M  V30 END CTAB
M  END
>  <Dataset>  (655) 
ChEMBL_Kinases

>  <Ligand_Instance>  (655) 
nan

>  <PDB_ID>  (655) 
nan

>  <Standardized_SMILES>  (655) 
CCCCC1(CCCC)CC[C@H]2CC(=O)N[C@H](CO)C[C@]2(C)C1

>  <Name>  (655) 
nan

>  <Pocket>  (655) 
nan

>  <ATP_Site>  (655) 
nan

>  <Peripheral>  (655) 
nan

>  <Num_H_Atoms_ProtBoundConf>  (655) 
nan

>  <Num_Resolved_Atoms>  (655) 
nan

>  <Num_Not_Resolved_Atoms>  (655) 
nan

$$$$
CHEMBL3800129
     RDKit          3D

  0  0  0  0  0  0  0  0  0  0999 V3000
M  V30 BEGIN CTAB
M  V30 COUNTS 34 36 0 0 0
M  V30 BEGIN ATOM
M  V30 1 C -2.456632 -2.733901 1.197821 0
M  V30 2 C -1.455777 -1.836707 0.554227 0
M  V30 3 C -0.451606 -1.270518 1.534491 0 CFG=1
M  V30 4 C 0.261239 -2.457249 2.149566 0
M  V30 5 N 1.242086 -3.061115 1.288873 0
M  V30 6 C 2.103401 -2.122806 0.658256 0
M  V30 7 O 3.225439 -2.584746 0.320927 0
M  V30 8 C 1.686103 -0.745927 0.436751 0
M  V30 9 C 2.562972 0.136348 -0.204194 0
M  V30 10 S 4.175269 0.043775 -0.859462 0
M  V30 11 C 4.052104 -0.467403 -2.612899 0
M  V30 12 S 1.646164 1.653284 -0.278258 0
M  V30 13 C 0.106895 0.969859 0.582410 0
M  V30 14 C -1.035642 1.836002 0.797219 0
M  V30 15 C -2.267889 1.639245 1.328904 0
M  V30 16 C -3.042124 2.774678 1.340726 0
M  V30 17 N -2.218786 3.681128 0.786749 0
M  V30 18 N -1.051844 3.163544 0.463313 0
M  V30 19 C 0.446635 -0.321999 0.833934 0
M  V30 20 H -3.498811 -2.515822 0.854933 0
M  V30 21 H -2.432311 -2.559329 2.292348 0
M  V30 22 H -2.250460 -3.809745 1.001138 0
M  V30 23 H -0.911205 -2.407140 -0.225906 0
M  V30 24 H -1.932575 -0.990192 -0.019869 0
M  V30 25 H -0.946725 -0.794697 2.413961 0
M  V30 26 H 0.757848 -2.092132 3.083993 0
M  V30 27 H -0.490709 -3.188785 2.502747 0
M  V30 28 H 1.264371 -4.105792 1.181452 0
M  V30 29 H 3.202497 0.072269 -3.115800 0
M  V30 30 H 3.771930 -1.539081 -2.634023 0
M  V30 31 H 4.974208 -0.231653 -3.177535 0
M  V30 32 H -2.566299 0.690473 1.682308 0
M  V30 33 H -4.051382 2.925069 1.696722 0
M  V30 34 H -2.419990 4.707579 0.602419 0
M  V30 END ATOM
M  V30 BEGIN BOND
M  V30 1 1 1 2
M  V30 2 1 2 3
M  V30 3 1 3 4
M  V30 4 1 4 5
M  V30 5 1 5 6
M  V30 6 2 6 7
M  V30 7 1 6 8
M  V30 8 2 8 9
M  V30 9 1 9 10
M  V30 10 1 10 11
M  V30 11 1 9 12
M  V30 12 1 12 13
M  V30 13 1 13 14
M  V30 14 1 14 15
M  V30 15 2 15 16
M  V30 16 1 16 17
M  V30 17 1 17 18
M  V30 18 2 13 19
M  V30 19 1 19 3
M  V30 20 1 19 8
M  V30 21 2 18 14
M  V30 22 1 1 20
M  V30 23 1 1 21
M  V30 24 1 1 22
M  V30 25 1 2 23
M  V30 26 1 2 24
M  V30 27 1 3 25 CFG=1
M  V30 28 1 4 26
M  V30 29 1 4 27
M  V30 30 1 5 28
M  V30 31 1 11 29
M  V30 32 1 11 30
M  V30 33 1 11 31
M  V30 34 1 15 32
M  V30 35 1 16 33
M  V30 36 1 17 34
M  V30 END BOND
M  V30 END CTAB
M  END
>  <Dataset>  (656) 
ChEMBL_Kinases

>  <Ligand_Instance>  (656) 
nan

>  <PDB_ID>  (656) 
nan

>  <Standardized_SMILES>  (656) 
CC[C@H]1CNC(=O)c2c(SC)sc(-c3cc[nH]n3)c21

>  <Name>  (656) 
nan

>  <Pocket>  (656) 
nan

>  <ATP_Site>  (656) 
nan

>  <Peripheral>  (656) 
nan

>  <Num_H_Atoms_ProtBoundConf>  (656) 
nan

>  <Num_Resolved_Atoms>  (656) 
nan

>  <Num_Not_Resolved_Atoms>  (656) 
nan

$$$$
CHEMBL3800116
     RDKit          3D

  0  0  0  0  0  0  0  0  0  0999 V3000
M  V30 BEGIN CTAB
M  V30 COUNTS 54 58 0 0 0
M  V30 BEGIN ATOM
M  V30 1 C -1.715639 -2.346472 4.499980 0
M  V30 2 C -0.722087 -2.674210 3.348173 0
M  V30 3 C -0.790006 -4.129538 3.065379 0
M  V30 4 N 0.581735 -2.455024 3.982056 0
M  V30 5 C 1.509557 -1.398069 3.771143 0
M  V30 6 O 2.545436 -1.321846 4.441515 0
M  V30 7 C 1.105935 -0.463481 2.718254 0
M  V30 8 C 1.969259 0.575837 2.465394 0
M  V30 9 C 1.663165 1.492405 1.484162 0
M  V30 10 C 0.490476 1.342927 0.775482 0
M  V30 11 N 0.183627 2.291869 -0.238862 0
M  V30 12 C -0.651115 3.312339 -0.150101 0
M  V30 13 O -1.356184 3.693889 0.807174 0
M  V30 14 N -0.668521 3.977443 -1.334108 0
M  V30 15 C 0.173064 3.372456 -2.202564 0
M  V30 16 N 0.559425 3.577680 -3.489961 0
M  V30 17 C 1.466608 2.717248 -4.041911 0
M  V30 18 C 2.032916 1.636149 -3.385736 0
M  V30 19 C 1.632014 1.438793 -2.079349 0
M  V30 20 C 0.713263 2.295137 -1.492449 0
M  V30 21 C -0.319708 0.273765 1.091462 0
M  V30 22 C -0.085148 -0.683144 2.056165 0
M  V30 23 N -1.006747 -1.758131 2.287811 0
M  V30 24 C -2.169752 -1.939184 1.484323 0
M  V30 25 C -2.124934 -3.053974 0.465174 0
M  V30 26 C -1.067370 -2.775032 -0.535113 0
M  V30 27 C 0.249402 -3.108570 -0.569089 0
M  V30 28 C 1.119005 -2.770007 -1.579601 0
M  V30 29 C 0.681664 -2.041951 -2.659521 0
M  V30 30 C -0.639061 -1.653012 -2.721231 0
M  V30 31 C -1.447053 -2.030863 -1.670552 0
M  V30 32 H -2.575507 -3.019348 4.327360 0
M  V30 33 H -1.266459 -2.604260 5.478346 0
M  V30 34 H -1.952385 -1.276815 4.522908 0
M  V30 35 H -0.332045 -4.719282 3.933427 0
M  V30 36 H -1.871440 -4.446999 3.155123 0
M  V30 37 H -0.263093 -4.510950 2.206086 0
M  V30 38 H 0.866168 -3.180324 4.692205 0
M  V30 39 H 2.880967 0.682048 3.024934 0
M  V30 40 H 2.356314 2.293217 1.309212 0
M  V30 41 H -1.199763 4.828288 -1.650178 0
M  V30 42 H 1.778422 2.873345 -5.063011 0
M  V30 43 H 2.742744 1.008615 -3.901395 0
M  V30 44 H 2.075075 0.594810 -1.569058 0
M  V30 45 H -1.204776 0.252245 0.474049 0
M  V30 46 H -2.998223 -2.248650 2.215370 0
M  V30 47 H -2.492471 -1.080001 0.903017 0
M  V30 48 H -3.113376 -2.963832 -0.085223 0
M  V30 49 H -2.121717 -4.062550 0.845062 0
M  V30 50 H 0.623733 -3.668285 0.243341 0
M  V30 51 H 2.152120 -3.088564 -1.505527 0
M  V30 52 H 1.377518 -1.789576 -3.436255 0
M  V30 53 H -1.004997 -1.090324 -3.543011 0
M  V30 54 H -2.479073 -1.701689 -1.761583 0
M  V30 END ATOM
M  V30 BEGIN BOND
M  V30 1 1 1 2
M  V30 2 1 2 3
M  V30 3 1 2 4
M  V30 4 1 4 5
M  V30 5 2 5 6
M  V30 6 1 5 7
M  V30 7 2 7 8
M  V30 8 1 8 9
M  V30 9 2 9 10
M  V30 10 1 10 11
M  V30 11 1 11 12
M  V30 12 2 12 13
M  V30 13 1 12 14
M  V30 14 1 14 15
M  V30 15 2 15 16
M  V30 16 1 16 17
M  V30 17 2 17 18
M  V30 18 1 18 19
M  V30 19 2 19 20
M  V30 20 1 10 21
M  V30 21 2 21 22
M  V30 22 1 22 23
M  V30 23 1 23 24
M  V30 24 1 24 25
M  V30 25 1 25 26
M  V30 26 2 26 27
M  V30 27 1 27 28
M  V30 28 2 28 29
M  V30 29 1 29 30
M  V30 30 2 30 31
M  V30 31 1 23 2
M  V30 32 1 31 26
M  V30 33 1 22 7
M  V30 34 1 20 11
M  V30 35 1 20 15
M  V30 36 1 1 32
M  V30 37 1 1 33
M  V30 38 1 1 34
M  V30 39 1 3 35
M  V30 40 1 3 36
M  V30 41 1 3 37
M  V30 42 1 4 38
M  V30 43 1 8 39
M  V30 44 1 9 40
M  V30 45 1 14 41
M  V30 46 1 17 42
M  V30 47 1 18 43
M  V30 48 1 19 44
M  V30 49 1 21 45
M  V30 50 1 24 46
M  V30 51 1 24 47
M  V30 52 1 25 48
M  V30 53 1 25 49
M  V30 54 1 27 50
M  V30 55 1 28 51
M  V30 56 1 29 52
M  V30 57 1 30 53
M  V30 58 1 31 54
M  V30 END BOND
M  V30 END CTAB
M  END
>  <Dataset>  (657) 
ChEMBL_Kinases

>  <Ligand_Instance>  (657) 
nan

>  <PDB_ID>  (657) 
nan

>  <Standardized_SMILES>  (657) 
CC1(C)NC(=O)c2ccc(-n3c(=O)[nH]c4ncccc43)cc2N1CCc1ccccc1

>  <Name>  (657) 
nan

>  <Pocket>  (657) 
nan

>  <ATP_Site>  (657) 
nan

>  <Peripheral>  (657) 
nan

>  <Num_H_Atoms_ProtBoundConf>  (657) 
nan

>  <Num_Resolved_Atoms>  (657) 
nan

>  <Num_Not_Resolved_Atoms>  (657) 
nan

$$$$
CHEMBL49904
     RDKit          3D

  0  0  0  0  0  0  0  0  0  0999 V3000
M  V30 BEGIN CTAB
M  V30 COUNTS 65 65 0 0 0
M  V30 BEGIN ATOM
M  V30 1 C 7.019261 -5.003450 2.611345 0
M  V30 2 C 5.832429 -4.804681 1.704494 0
M  V30 3 C 4.952420 -3.671935 2.207224 0
M  V30 4 C 5.682366 -2.372578 2.273432 0
M  V30 5 C 4.790640 -1.257032 2.775563 0
M  V30 6 C 3.591317 -1.062584 1.861799 0
M  V30 7 C 3.985897 -0.713269 0.470485 0
M  V30 8 C 2.820745 -0.515645 -0.428900 0
M  V30 9 C 1.969672 -1.725133 -0.554131 0
M  V30 10 C 0.787225 -1.522768 -1.475838 0
M  V30 11 C -0.128604 -0.419857 -1.011363 0
M  V30 12 C -1.274673 -0.271024 -1.961628 0
M  V30 13 C -2.254816 0.816969 -1.583471 0
M  V30 14 C -2.801887 0.469399 -0.246030 0
M  V30 15 C -4.098043 0.276951 -0.109914 0
M  V30 16 C -5.213024 0.345853 -1.119204 0
M  V30 17 C -6.347741 0.800023 -0.228856 0
M  V30 18 C -7.692399 0.376905 -0.775197 0
M  V30 19 O -7.735465 -0.984215 -0.983632 0
M  V30 20 C -6.280867 2.299132 -0.039676 0
M  V30 21 O -4.989080 2.601066 0.489906 0
M  V30 22 C -4.566779 3.883051 0.792047 0
M  V30 23 C -3.184139 4.041391 1.341014 0
M  V30 24 O -5.402731 4.819504 0.572649 0
M  V30 25 O -6.162520 0.118595 0.999188 0
M  V30 26 C -4.775590 -0.072013 1.153081 0
M  V30 27 O -4.233181 -0.477536 2.215143 0
M  V30 28 H 7.959377 -4.739515 2.109930 0
M  V30 29 H 6.972062 -4.408055 3.542449 0
M  V30 30 H 7.144577 -6.081688 2.922081 0
M  V30 31 H 5.276460 -5.763753 1.701734 0
M  V30 32 H 6.112126 -4.592687 0.653248 0
M  V30 33 H 4.567944 -3.956246 3.207242 0
M  V30 34 H 4.109846 -3.567351 1.489731 0
M  V30 35 H 6.187373 -2.129040 1.323147 0
M  V30 36 H 6.497422 -2.481872 3.028064 0
M  V30 37 H 4.410484 -1.547281 3.764626 0
M  V30 38 H 5.335467 -0.313396 2.842351 0
M  V30 39 H 2.895442 -1.910235 1.949707 0
M  V30 40 H 3.058676 -0.175060 2.283143 0
M  V30 41 H 4.639047 -1.480819 -0.009994 0
M  V30 42 H 4.616671 0.217782 0.536899 0
M  V30 43 H 3.217943 -0.294385 -1.461674 0
M  V30 44 H 2.268266 0.404514 -0.154571 0
M  V30 45 H 2.594692 -2.510306 -1.074831 0
M  V30 46 H 1.675396 -2.217293 0.391290 0
M  V30 47 H 1.198739 -1.332523 -2.485349 0
M  V30 48 H 0.233509 -2.482045 -1.513172 0
M  V30 49 H -0.458176 -0.528430 0.017164 0
M  V30 50 H 0.462189 0.540239 -1.083985 0
M  V30 51 H -1.869812 -1.227959 -1.883423 0
M  V30 52 H -0.958771 -0.211245 -3.010805 0
M  V30 53 H -3.024033 0.828995 -2.361005 0
M  V30 54 H -1.775570 1.817424 -1.587276 0
M  V30 55 H -2.171887 0.369706 0.623217 0
M  V30 56 H -5.005365 1.049432 -1.935209 0
M  V30 57 H -5.471849 -0.677372 -1.480419 0
M  V30 58 H -8.419470 0.574859 0.066112 0
M  V30 59 H -8.031646 0.973152 -1.624820 0
M  V30 60 H -7.403226 -1.433815 -0.166733 0
M  V30 61 H -6.383913 2.786188 -1.020446 0
M  V30 62 H -7.040249 2.671404 0.661611 0
M  V30 63 H -2.457375 3.442257 0.726691 0
M  V30 64 H -3.079387 3.696751 2.373375 0
M  V30 65 H -2.854478 5.106742 1.295159 0
M  V30 END ATOM
M  V30 BEGIN BOND
M  V30 1 1 1 2
M  V30 2 1 2 3
M  V30 3 1 3 4
M  V30 4 1 4 5
M  V30 5 1 5 6
M  V30 6 1 6 7
M  V30 7 1 7 8
M  V30 8 1 8 9
M  V30 9 1 9 10
M  V30 10 1 10 11
M  V30 11 1 11 12
M  V30 12 1 12 13
M  V30 13 1 13 14
M  V30 14 2 14 15
M  V30 15 1 15 16
M  V30 16 1 16 17
M  V30 17 1 17 18
M  V30 18 1 18 19
M  V30 19 1 17 20
M  V30 20 1 20 21
M  V30 21 1 21 22
M  V30 22 1 22 23
M  V30 23 2 22 24
M  V30 24 1 17 25
M  V30 25 1 25 26
M  V30 26 2 26 27
M  V30 27 1 26 15
M  V30 28 1 1 28
M  V30 29 1 1 29
M  V30 30 1 1 30
M  V30 31 1 2 31
M  V30 32 1 2 32
M  V30 33 1 3 33
M  V30 34 1 3 34
M  V30 35 1 4 35
M  V30 36 1 4 36
M  V30 37 1 5 37
M  V30 38 1 5 38
M  V30 39 1 6 39
M  V30 40 1 6 40
M  V30 41 1 7 41
M  V30 42 1 7 42
M  V30 43 1 8 43
M  V30 44 1 8 44
M  V30 45 1 9 45
M  V30 46 1 9 46
M  V30 47 1 10 47
M  V30 48 1 10 48
M  V30 49 1 11 49
M  V30 50 1 11 50
M  V30 51 1 12 51
M  V30 52 1 12 52
M  V30 53 1 13 53
M  V30 54 1 13 54
M  V30 55 1 14 55
M  V30 56 1 16 56
M  V30 57 1 16 57
M  V30 58 1 18 58
M  V30 59 1 18 59
M  V30 60 1 19 60
M  V30 61 1 20 61
M  V30 62 1 20 62
M  V30 63 1 23 63
M  V30 64 1 23 64
M  V30 65 1 23 65
M  V30 END BOND
M  V30 END CTAB
M  END
>  <Dataset>  (658) 
ChEMBL_Kinases

>  <Ligand_Instance>  (658) 
nan

>  <PDB_ID>  (658) 
nan

>  <Standardized_SMILES>  (658) 
CCCCCCCCCCCCC/C=C1\CC(CO)(COC(C)=O)OC1=O

>  <Name>  (658) 
nan

>  <Pocket>  (658) 
nan

>  <ATP_Site>  (658) 
nan

>  <Peripheral>  (658) 
nan

>  <Num_H_Atoms_ProtBoundConf>  (658) 
nan

>  <Num_Resolved_Atoms>  (658) 
nan

>  <Num_Not_Resolved_Atoms>  (658) 
nan

$$$$
CHEMBL3800105
     RDKit          3D

  0  0  0  0  0  0  0  0  0  0999 V3000
M  V30 BEGIN CTAB
M  V30 COUNTS 59 63 0 0 0
M  V30 BEGIN ATOM
M  V30 1 C 2.789979 -4.127003 6.343673 0
M  V30 2 N 2.804829 -3.745305 4.940800 0
M  V30 3 C 2.335371 -2.622387 4.359794 0
M  V30 4 C 2.574892 -2.710721 3.002326 0
M  V30 5 C 2.181514 -1.645960 2.089167 0
M  V30 6 C 2.923179 -1.391959 0.930865 0
M  V30 7 C 2.511922 -0.373899 0.095294 0
M  V30 8 C 1.388271 0.431398 0.332678 0
M  V30 9 C 1.196132 1.434413 -0.702371 0
M  V30 10 C 2.287365 2.232131 -0.970253 0
M  V30 11 N 2.138020 3.182087 -1.909726 0
M  V30 12 C 0.948005 3.331288 -2.557110 0
M  V30 13 N 1.045784 4.407937 -3.507154 0
M  V30 14 C -0.154976 2.514204 -2.277033 0
M  V30 15 C -1.264570 2.935377 -3.151481 0
M  V30 16 F -1.556844 4.280586 -2.861631 0
M  V30 17 F -0.899222 2.969918 -4.485461 0
M  V30 18 F -2.442290 2.257239 -2.955830 0
M  V30 19 C -0.029134 1.535236 -1.320709 0
M  V30 20 N -1.170541 0.739666 -1.101568 0
M  V30 21 C -2.320249 0.726817 -0.265942 0
M  V30 22 C -2.601202 -0.511454 0.500334 0
M  V30 23 C -2.162598 -1.801735 -0.068683 0
M  V30 24 C -1.704251 -2.792282 1.010248 0
M  V30 25 C -2.969812 -3.572149 1.383665 0
M  V30 26 N -3.682302 -3.730312 0.144765 0
M  V30 27 C -3.349214 -2.551180 -0.573428 0
M  V30 28 O -3.906883 -2.023629 -1.591313 0
M  V30 29 C -1.174947 -1.715470 -1.188260 0
M  V30 30 C -1.248391 -0.427606 -1.955032 0
M  V30 31 C 0.689738 0.143480 1.486995 0
M  V30 32 C 1.091457 -0.858721 2.312435 0
M  V30 33 C 3.203313 -3.922730 2.786875 0
M  V30 34 N 3.324204 -4.520946 3.991273 0
M  V30 35 H 2.873346 -3.189060 6.953051 0
M  V30 36 H 3.652433 -4.791304 6.554027 0
M  V30 37 H 1.845148 -4.669063 6.544179 0
M  V30 38 H 1.859251 -1.820020 4.919263 0
M  V30 39 H 3.781724 -2.005131 0.747191 0
M  V30 40 H 3.167882 -0.265185 -0.781280 0
M  V30 41 H 3.228026 2.096615 -0.442676 0
M  V30 42 H 1.217407 4.119859 -4.496335 0
M  V30 43 H 0.923593 5.330427 -3.026615 0
M  V30 44 H -3.273584 0.952504 -0.825477 0
M  V30 45 H -2.255570 1.599353 0.453737 0
M  V30 46 H -3.707074 -0.604913 0.741646 0
M  V30 47 H -2.153203 -0.449393 1.536894 0
M  V30 48 H -1.407650 -2.276791 1.929325 0
M  V30 49 H -0.948211 -3.441649 0.553022 0
M  V30 50 H -3.553553 -2.974124 2.119278 0
M  V30 51 H -2.707039 -4.532679 1.849132 0
M  V30 52 H -4.313520 -4.458861 -0.261763 0
M  V30 53 H -1.352704 -2.553994 -1.889715 0
M  V30 54 H -0.163942 -1.900196 -0.771056 0
M  V30 55 H -2.191633 -0.389038 -2.540644 0
M  V30 56 H -0.446721 -0.476174 -2.717826 0
M  V30 57 H -0.151115 0.812339 1.602284 0
M  V30 58 H 0.462452 -0.998334 3.198201 0
M  V30 59 H 3.486578 -4.206450 1.793505 0
M  V30 END ATOM
M  V30 BEGIN BOND
M  V30 1 1 1 2
M  V30 2 1 2 3
M  V30 3 2 3 4
M  V30 4 1 4 5
M  V30 5 2 5 6
M  V30 6 1 6 7
M  V30 7 2 7 8
M  V30 8 1 8 9
M  V30 9 2 9 10
M  V30 10 1 10 11
M  V30 11 2 11 12
M  V30 12 1 12 13
M  V30 13 1 12 14
M  V30 14 1 14 15
M  V30 15 1 15 16
M  V30 16 1 15 17
M  V30 17 1 15 18
M  V30 18 2 14 19
M  V30 19 1 19 20
M  V30 20 1 20 21
M  V30 21 1 21 22
M  V30 22 1 22 23
M  V30 23 1 23 24
M  V30 24 1 24 25
M  V30 25 1 25 26
M  V30 26 1 26 27
M  V30 27 2 27 28
M  V30 28 1 23 29
M  V30 29 1 29 30
M  V30 30 1 8 31
M  V30 31 2 31 32
M  V30 32 1 4 33
M  V30 33 2 33 34
M  V30 34 1 34 2
M  V30 35 1 32 5
M  V30 36 1 19 9
M  V30 37 1 30 20
M  V30 38 1 27 23
M  V30 39 1 1 35
M  V30 40 1 1 36
M  V30 41 1 1 37
M  V30 42 1 3 38
M  V30 43 1 6 39
M  V30 44 1 7 40
M  V30 45 1 10 41
M  V30 46 1 13 42
M  V30 47 1 13 43
M  V30 48 1 21 44
M  V30 49 1 21 45
M  V30 50 1 22 46
M  V30 51 1 22 47
M  V30 52 1 24 48
M  V30 53 1 24 49
M  V30 54 1 25 50
M  V30 55 1 25 51
M  V30 56 1 26 52
M  V30 57 1 29 53
M  V30 58 1 29 54
M  V30 59 1 30 55
M  V30 60 1 30 56
M  V30 61 1 31 57
M  V30 62 1 32 58
M  V30 63 1 33 59
M  V30 END BOND
M  V30 END CTAB
M  END
>  <Dataset>  (659) 
ChEMBL_Kinases

>  <Ligand_Instance>  (659) 
nan

>  <PDB_ID>  (659) 
nan

>  <Standardized_SMILES>  (659) 
Cn1cc(-c2ccc(-c3cnc(N)c(C(F)(F)F)c3N3CCC4(CCNC4=O)CC3)cc2)cn1

>  <Name>  (659) 
nan

>  <Pocket>  (659) 
nan

>  <ATP_Site>  (659) 
nan

>  <Peripheral>  (659) 
nan

>  <Num_H_Atoms_ProtBoundConf>  (659) 
nan

>  <Num_Resolved_Atoms>  (659) 
nan

>  <Num_Not_Resolved_Atoms>  (659) 
nan

$$$$
CHEMBL498947
     RDKit          3D

  0  0  0  0  0  0  0  0  0  0999 V3000
M  V30 BEGIN CTAB
M  V30 COUNTS 49 51 0 0 0
M  V30 BEGIN ATOM
M  V30 1 C 2.245608 -5.404452 1.308280 0
M  V30 2 C 1.587813 -4.370021 2.164717 0
M  V30 3 C 0.397080 -4.917025 2.953822 0
M  V30 4 C 2.544007 -3.791547 3.200871 0
M  V30 5 C 1.068475 -3.215657 1.350111 0
M  V30 6 C 1.786167 -2.068012 1.036356 0
M  V30 7 C 0.867287 -1.335187 0.282373 0
M  V30 8 N 1.145636 -0.054966 -0.277581 0
M  V30 9 C 0.932268 1.190816 0.330955 0
M  V30 10 O 0.446636 1.065955 1.477663 0
M  V30 11 N 1.261434 2.390064 -0.356554 0
M  V30 12 C 1.052630 3.667521 0.243640 0
M  V30 13 C 2.021708 4.293920 1.007423 0
M  V30 14 C 1.846725 5.525288 1.597478 0
M  V30 15 C 0.629507 6.144833 1.399588 0
M  V30 16 Cl 0.416964 7.724117 2.161561 0
M  V30 17 C -0.369864 5.565635 0.648091 0
M  V30 18 C -0.166777 4.314092 0.059426 0
M  V30 19 N -0.287218 -1.978399 0.155805 0
M  V30 20 C -1.487213 -1.630411 -0.509189 0
M  V30 21 C -1.575479 -0.864644 -1.650925 0
M  V30 22 C -2.735654 -0.531999 -2.288191 0
M  V30 23 C -3.927213 -0.997932 -1.750354 0
M  V30 24 C -3.930857 -1.772040 -0.607883 0
M  V30 25 N -5.159809 -2.239881 -0.071956 0
M  V30 26 C -2.719226 -2.069937 -0.015436 0
M  V30 27 N -0.163588 -3.139461 0.814820 0
M  V30 28 H 3.059616 -5.857484 1.904196 0
M  V30 29 H 1.515079 -6.174486 1.012582 0
M  V30 30 H 2.722191 -4.883010 0.458468 0
M  V30 31 H -0.274009 -5.520971 2.328583 0
M  V30 32 H 0.762150 -5.463506 3.823808 0
M  V30 33 H -0.188054 -4.010198 3.252439 0
M  V30 34 H 2.136164 -2.801448 3.542261 0
M  V30 35 H 2.516406 -4.465434 4.076856 0
M  V30 36 H 3.556205 -3.721030 2.790466 0
M  V30 37 H 2.801618 -1.818895 1.313844 0
M  V30 38 H 1.554056 -0.056603 -1.250559 0
M  V30 39 H 1.666519 2.346555 -1.324926 0
M  V30 40 H 2.958562 3.762041 1.129938 0
M  V30 41 H 2.674721 5.928389 2.178541 0
M  V30 42 H -1.320152 6.095552 0.518636 0
M  V30 43 H -0.954392 3.859850 -0.531636 0
M  V30 44 H -0.654911 -0.495686 -2.079721 0
M  V30 45 H -2.743247 0.071442 -3.180087 0
M  V30 46 H -4.827769 -0.716072 -2.279939 0
M  V30 47 H -5.603204 -2.851651 -0.819070 0
M  V30 48 H -5.721484 -2.146865 0.824424 0
M  V30 49 H -2.770215 -2.688614 0.891584 0
M  V30 END ATOM
M  V30 BEGIN BOND
M  V30 1 1 1 2
M  V30 2 1 2 3
M  V30 3 1 2 4
M  V30 4 1 2 5
M  V30 5 1 5 6
M  V30 6 2 6 7
M  V30 7 1 7 8
M  V30 8 1 8 9
M  V30 9 2 9 10
M  V30 10 1 9 11
M  V30 11 1 11 12
M  V30 12 2 12 13
M  V30 13 1 13 14
M  V30 14 2 14 15
M  V30 15 1 15 16
M  V30 16 1 15 17
M  V30 17 2 17 18
M  V30 18 1 7 19
M  V30 19 1 19 20
M  V30 20 2 20 21
M  V30 21 1 21 22
M  V30 22 2 22 23
M  V30 23 1 23 24
M  V30 24 1 24 25
M  V30 25 2 24 26
M  V30 26 1 19 27
M  V30 27 2 27 5
M  V30 28 1 18 12
M  V30 29 1 26 20
M  V30 30 1 1 28
M  V30 31 1 1 29
M  V30 32 1 1 30
M  V30 33 1 3 31
M  V30 34 1 3 32
M  V30 35 1 3 33
M  V30 36 1 4 34
M  V30 37 1 4 35
M  V30 38 1 4 36
M  V30 39 1 6 37
M  V30 40 1 8 38
M  V30 41 1 11 39
M  V30 42 1 13 40
M  V30 43 1 14 41
M  V30 44 1 17 42
M  V30 45 1 18 43
M  V30 46 1 21 44
M  V30 47 1 22 45
M  V30 48 1 23 46
M  V30 49 1 25 47
M  V30 50 1 25 48
M  V30 51 1 26 49
M  V30 END BOND
M  V30 END CTAB
M  END
>  <Dataset>  (660) 
ChEMBL_Kinases

>  <Ligand_Instance>  (660) 
nan

>  <PDB_ID>  (660) 
nan

>  <Standardized_SMILES>  (660) 
CC(C)(C)c1cc(NC(=O)Nc2ccc(Cl)cc2)n(-c2cccc(N)c2)n1

>  <Name>  (660) 
nan

>  <Pocket>  (660) 
nan

>  <ATP_Site>  (660) 
nan

>  <Peripheral>  (660) 
nan

>  <Num_H_Atoms_ProtBoundConf>  (660) 
nan

>  <Num_Resolved_Atoms>  (660) 
nan

>  <Num_Not_Resolved_Atoms>  (660) 
nan

$$$$
CHEMBL3805006
     RDKit          3D

  0  0  0  0  0  0  0  0  0  0999 V3000
M  V30 BEGIN CTAB
M  V30 COUNTS 51 54 0 0 0
M  V30 BEGIN ATOM
M  V30 1 C 4.334045 3.886482 2.569785 0
M  V30 2 N 5.163557 2.715985 2.699846 0
M  V30 3 N 6.386989 2.829926 3.237137 0
M  V30 4 C 6.969534 1.606714 3.253157 0
M  V30 5 C 6.027030 0.758365 2.696460 0
M  V30 6 Cl 6.170885 -0.984553 2.429937 0
M  V30 7 C 4.875608 1.454297 2.341569 0
M  V30 8 C 3.680310 0.960584 1.744849 0
M  V30 9 C 3.146854 -0.206180 2.253366 0
M  V30 10 C 1.987721 -0.767749 1.742557 0
M  V30 11 C 1.322274 -0.166045 0.692789 0
M  V30 12 C 0.096566 -0.644036 0.057837 0
M  V30 13 O -0.460206 -0.026930 -0.913381 0
M  V30 14 N -0.599187 -1.827288 0.443822 0
M  V30 15 C -1.818557 -2.257740 -0.225149 0
M  V30 16 C -2.935482 -1.316148 0.023554 0
M  V30 17 C -3.236737 -1.128396 1.375052 0
M  V30 18 C -4.253049 -0.275703 1.759368 0
M  V30 19 C -5.017203 0.428728 0.845061 0
M  V30 20 Cl -6.313369 1.520488 1.251488 0
M  V30 21 C -4.712830 0.238244 -0.501032 0
M  V30 22 Cl -5.569841 1.043404 -1.812388 0
M  V30 23 C -3.698618 -0.613053 -0.876383 0
M  V30 24 C -1.511370 -2.489391 -1.662541 0
M  V30 25 C -2.369383 -3.498076 -2.341222 0
M  V30 26 N -2.593780 -4.714699 -1.623250 0
M  V30 27 C -3.189031 -4.373700 -0.335882 0
M  V30 28 C -2.184129 -3.572408 0.424714 0
M  V30 29 C 1.864395 1.000778 0.191475 0
M  V30 30 C 3.017571 1.562553 0.697127 0
M  V30 31 H 3.286999 3.666198 2.362899 0
M  V30 32 H 4.800578 4.633446 1.870436 0
M  V30 33 H 4.324045 4.428015 3.561935 0
M  V30 34 H 7.941164 1.262825 3.598320 0
M  V30 35 H 3.583121 -0.761370 3.073168 0
M  V30 36 H 1.567823 -1.662185 2.123213 0
M  V30 37 H -0.139608 -2.344919 1.252672 0
M  V30 38 H -2.777537 -1.566966 2.257240 0
M  V30 39 H -4.563185 -0.063198 2.783514 0
M  V30 40 H -3.435077 -0.779555 -1.909717 0
M  V30 41 H -0.429675 -2.805141 -1.719019 0
M  V30 42 H -1.583797 -1.549430 -2.278833 0
M  V30 43 H -3.321726 -3.025552 -2.664556 0
M  V30 44 H -1.826992 -3.779016 -3.291980 0
M  V30 45 H -3.209450 -5.312746 -2.187924 0
M  V30 46 H -3.434536 -5.255393 0.256386 0
M  V30 47 H -4.103507 -3.780583 -0.470318 0
M  V30 48 H -2.581988 -3.423162 1.467251 0
M  V30 49 H -1.244458 -4.172638 0.560474 0
M  V30 50 H 1.401301 1.543541 -0.640619 0
M  V30 51 H 3.413639 2.476666 0.280398 0
M  V30 END ATOM
M  V30 BEGIN BOND
M  V30 1 1 1 2
M  V30 2 1 2 3
M  V30 3 2 3 4
M  V30 4 1 4 5
M  V30 5 1 5 6
M  V30 6 2 5 7
M  V30 7 1 7 8
M  V30 8 2 8 9
M  V30 9 1 9 10
M  V30 10 2 10 11
M  V30 11 1 11 12
M  V30 12 2 12 13
M  V30 13 1 12 14
M  V30 14 1 14 15
M  V30 15 1 15 16
M  V30 16 2 16 17
M  V30 17 1 17 18
M  V30 18 2 18 19
M  V30 19 1 19 20
M  V30 20 1 19 21
M  V30 21 1 21 22
M  V30 22 2 21 23
M  V30 23 1 15 24
M  V30 24 1 24 25
M  V30 25 1 25 26
M  V30 26 1 26 27
M  V30 27 1 27 28
M  V30 28 1 11 29
M  V30 29 2 29 30
M  V30 30 1 7 2
M  V30 31 1 30 8
M  V30 32 1 28 15
M  V30 33 1 23 16
M  V30 34 1 1 31
M  V30 35 1 1 32
M  V30 36 1 1 33
M  V30 37 1 4 34
M  V30 38 1 9 35
M  V30 39 1 10 36
M  V30 40 1 14 37
M  V30 41 1 17 38
M  V30 42 1 18 39
M  V30 43 1 23 40
M  V30 44 1 24 41
M  V30 45 1 24 42
M  V30 46 1 25 43
M  V30 47 1 25 44
M  V30 48 1 26 45
M  V30 49 1 27 46
M  V30 50 1 27 47
M  V30 51 1 28 48
M  V30 52 1 28 49
M  V30 53 1 29 50
M  V30 54 1 30 51
M  V30 END BOND
M  V30 END CTAB
M  END
>  <Dataset>  (661) 
ChEMBL_Kinases

>  <Ligand_Instance>  (661) 
nan

>  <PDB_ID>  (661) 
nan

>  <Standardized_SMILES>  (661) 
Cn1ncc(Cl)c1-c1ccc(C(=O)NC2(c3ccc(Cl)c(Cl)c3)CCNCC2)cc1

>  <Name>  (661) 
nan

>  <Pocket>  (661) 
nan

>  <ATP_Site>  (661) 
nan

>  <Peripheral>  (661) 
nan

>  <Num_H_Atoms_ProtBoundConf>  (661) 
nan

>  <Num_Resolved_Atoms>  (661) 
nan

>  <Num_Not_Resolved_Atoms>  (661) 
nan

$$$$
CHEMBL498385
     RDKit          3D

  0  0  0  0  0  0  0  0  0  0999 V3000
M  V30 BEGIN CTAB
M  V30 COUNTS 30 33 0 0 0
M  V30 BEGIN ATOM
M  V30 1 I -0.567671 -2.869693 6.359675 0
M  V30 2 C -0.273883 -2.808751 4.275815 0
M  V30 3 C 0.614478 -3.654388 3.644530 0
M  V30 4 C 0.781408 -3.585329 2.271286 0
M  V30 5 C 0.068954 -2.672120 1.484109 0
M  V30 6 O 0.405206 -2.795575 0.161689 0
M  V30 7 C -0.067047 -2.059612 -0.893338 0
M  V30 8 C -0.730291 -2.683965 -1.912424 0
M  V30 9 N -1.255011 -2.121061 -3.014149 0
M  V30 10 C -1.111440 -0.790119 -3.127924 0
M  V30 11 C -0.442537 -0.126680 -2.109726 0
M  V30 12 S -0.059709 1.684056 -1.930930 0
M  V30 13 C 0.765400 1.496296 -0.394915 0
M  V30 14 C 1.357187 2.616185 0.353757 0
M  V30 15 N 0.528059 3.528580 0.881831 0
M  V30 16 N 1.242360 4.439067 1.505062 0
M  V30 17 N 2.501868 4.138204 1.392502 0
M  V30 18 N 2.597293 3.020979 0.688442 0
M  V30 19 C 0.720939 0.167571 -0.100966 0
M  V30 20 C 0.103722 -0.693078 -0.968264 0
M  V30 21 C -0.814237 -1.835727 2.134820 0
M  V30 22 C -0.975741 -1.909528 3.502204 0
M  V30 23 H 1.151088 -4.349189 4.275903 0
M  V30 24 H 1.518221 -4.315243 1.904743 0
M  V30 25 H -0.860988 -3.777286 -1.841957 0
M  V30 26 H -1.480765 -0.202786 -3.956746 0
M  V30 27 H 3.304672 4.677173 1.785154 0
M  V30 28 H 1.186614 -0.146274 0.824406 0
M  V30 29 H -1.318055 -1.169005 1.448912 0
M  V30 30 H -1.687219 -1.219844 3.939404 0
M  V30 END ATOM
M  V30 BEGIN BOND
M  V30 1 1 1 2
M  V30 2 2 2 3
M  V30 3 1 3 4
M  V30 4 2 4 5
M  V30 5 1 5 6
M  V30 6 1 6 7
M  V30 7 2 7 8
M  V30 8 1 8 9
M  V30 9 2 9 10
M  V30 10 1 10 11
M  V30 11 1 11 12
M  V30 12 1 12 13
M  V30 13 1 13 14
M  V30 14 1 14 15
M  V30 15 2 15 16
M  V30 16 1 16 17
M  V30 17 1 17 18
M  V30 18 2 13 19
M  V30 19 1 19 20
M  V30 20 1 5 21
M  V30 21 2 21 22
M  V30 22 1 22 2
M  V30 23 1 20 7
M  V30 24 2 20 11
M  V30 25 2 18 14
M  V30 26 1 3 23
M  V30 27 1 4 24
M  V30 28 1 8 25
M  V30 29 1 10 26
M  V30 30 1 17 27
M  V30 31 1 19 28
M  V30 32 1 21 29
M  V30 33 1 22 30
M  V30 END BOND
M  V30 END CTAB
M  END
>  <Dataset>  (662) 
ChEMBL_Kinases

>  <Ligand_Instance>  (662) 
nan

>  <PDB_ID>  (662) 
nan

>  <Standardized_SMILES>  (662) 
Ic1ccc(Oc2cncc3sc(-c4nn[nH]n4)cc23)cc1

>  <Name>  (662) 
nan

>  <Pocket>  (662) 
nan

>  <ATP_Site>  (662) 
nan

>  <Peripheral>  (662) 
nan

>  <Num_H_Atoms_ProtBoundConf>  (662) 
nan

>  <Num_Resolved_Atoms>  (662) 
nan

>  <Num_Not_Resolved_Atoms>  (662) 
nan

$$$$
CHEMBL591673
     RDKit          3D

  0  0  0  0  0  0  0  0  0  0999 V3000
M  V30 BEGIN CTAB
M  V30 COUNTS 71 75 0 0 0
M  V30 BEGIN ATOM
M  V30 1 C 3.978400 0.345206 7.381218 0
M  V30 2 O 3.336626 -0.892346 7.157839 0
M  V30 3 C 3.101528 -1.286641 5.855231 0
M  V30 4 C 3.467000 -0.527453 4.765930 0
M  V30 5 C 3.222887 -0.934642 3.472099 0
M  V30 6 C 3.719000 -0.033620 2.476368 0
M  V30 7 N 4.624991 0.941536 2.633519 0
M  V30 8 C 4.778585 1.544955 1.445665 0
M  V30 9 C 5.720023 2.684080 1.242673 0
M  V30 10 F 6.949135 2.287487 1.750340 0
M  V30 11 F 5.798166 3.039647 -0.087100 0
M  V30 12 F 5.286458 3.788265 1.946043 0
M  V30 13 N 3.964165 0.936066 0.570981 0
M  V30 14 C 3.269694 -0.074047 1.189534 0
M  V30 15 C 2.293893 -0.684948 0.317719 0
M  V30 16 O 2.433933 -0.792239 -0.956173 0
M  V30 17 N 1.032778 -1.286406 0.470072 0
M  V30 18 C 0.380315 -1.785112 -0.718325 0
M  V30 19 C 0.476829 -3.045323 -1.270258 0
M  V30 20 C -0.241391 -3.297055 -2.418079 0
M  V30 21 C -1.034720 -2.353470 -3.018048 0
M  V30 22 C -1.767269 -2.720204 -4.259527 0
M  V30 23 C -1.144639 -1.071203 -2.471223 0
M  V30 24 N -1.959163 -0.076920 -3.077575 0
M  V30 25 C -3.351166 -0.032253 -3.343583 0
M  V30 26 C -4.229074 -1.027791 -2.977728 0
M  V30 27 C -5.566033 -1.021499 -3.218619 0
M  V30 28 C -6.065999 0.093714 -3.892137 0
M  V30 29 N -7.374221 0.216645 -4.189539 0
M  V30 30 C -7.846116 1.314532 -4.850022 0
M  V30 31 N -7.011812 2.279390 -5.208218 0
M  V30 32 C -7.450054 3.467195 -5.908714 0
M  V30 33 C -5.682546 2.231554 -4.946237 0
M  V30 34 O -4.880884 3.120232 -5.270704 0
M  V30 35 C -5.185068 1.111614 -4.269407 0
M  V30 36 C -3.833122 1.054344 -3.999141 0
M  V30 37 C -0.422527 -0.809567 -1.313718 0
M  V30 38 C 2.596334 -2.146483 3.390432 0
M  V30 39 C 2.210983 -2.942289 4.440120 0
M  V30 40 O 1.579033 -4.154691 4.230170 0
M  V30 41 C 1.255364 -4.727547 3.004852 0
M  V30 42 C 2.467429 -2.506575 5.719969 0
M  V30 43 O 2.086898 -3.293806 6.786255 0
M  V30 44 C 0.826109 -3.205176 7.410919 0
M  V30 45 H 3.520755 1.191573 6.833033 0
M  V30 46 H 5.053491 0.341631 7.164191 0
M  V30 47 H 3.893502 0.554414 8.474188 0
M  V30 48 H 3.951750 0.396180 5.022882 0
M  V30 49 H 5.116449 1.181398 3.521796 0
M  V30 50 H 0.676632 -1.291528 1.479499 0
M  V30 51 H 1.127317 -3.717123 -0.723483 0
M  V30 52 H -0.132735 -4.300188 -2.815884 0
M  V30 53 H -2.688133 -3.267750 -4.056680 0
M  V30 54 H -1.078854 -3.226407 -4.963314 0
M  V30 55 H -2.070007 -1.759634 -4.768998 0
M  V30 56 H -1.315513 0.679752 -3.316102 0
M  V30 57 H -3.867549 -1.906204 -2.452130 0
M  V30 58 H -6.259797 -1.799255 -2.934054 0
M  V30 59 H -8.897800 1.415053 -5.091027 0
M  V30 60 H -8.522727 3.337221 -6.166467 0
M  V30 61 H -7.402694 4.364190 -5.231438 0
M  V30 62 H -6.800904 3.694198 -6.764648 0
M  V30 63 H -3.179206 1.854749 -4.304071 0
M  V30 64 H -0.546106 0.198944 -0.933792 0
M  V30 65 H 2.422677 -2.515960 2.395715 0
M  V30 66 H 1.006416 -3.971001 2.252933 0
M  V30 67 H 2.055843 -5.436471 2.677072 0
M  V30 68 H 0.305586 -5.318390 3.177878 0
M  V30 69 H 0.058331 -3.858090 6.907197 0
M  V30 70 H 0.966920 -3.520503 8.466059 0
M  V30 71 H 0.432882 -2.177385 7.425370 0
M  V30 END ATOM
M  V30 BEGIN BOND
M  V30 1 1 1 2
M  V30 2 1 2 3
M  V30 3 2 3 4
M  V30 4 1 4 5
M  V30 5 1 5 6
M  V30 6 1 6 7
M  V30 7 1 7 8
M  V30 8 1 8 9
M  V30 9 1 9 10
M  V30 10 1 9 11
M  V30 11 1 9 12
M  V30 12 2 8 13
M  V30 13 1 13 14
M  V30 14 1 14 15
M  V30 15 2 15 16
M  V30 16 1 15 17
M  V30 17 1 17 18
M  V30 18 2 18 19
M  V30 19 1 19 20
M  V30 20 2 20 21
M  V30 21 1 21 22
M  V30 22 1 21 23
M  V30 23 1 23 24
M  V30 24 1 24 25
M  V30 25 2 25 26
M  V30 26 1 26 27
M  V30 27 2 27 28
M  V30 28 1 28 29
M  V30 29 2 29 30
M  V30 30 1 30 31
M  V30 31 1 31 32
M  V30 32 1 31 33
M  V30 33 2 33 34
M  V30 34 1 33 35
M  V30 35 2 35 36
M  V30 36 2 23 37
M  V30 37 2 5 38
M  V30 38 1 38 39
M  V30 39 1 39 40
M  V30 40 1 40 41
M  V30 41 2 39 42
M  V30 42 1 42 43
M  V30 43 1 43 44
M  V30 44 1 42 3
M  V30 45 2 14 6
M  V30 46 1 37 18
M  V30 47 1 36 25
M  V30 48 1 35 28
M  V30 49 1 1 45
M  V30 50 1 1 46
M  V30 51 1 1 47
M  V30 52 1 4 48
M  V30 53 1 7 49
M  V30 54 1 17 50
M  V30 55 1 19 51
M  V30 56 1 20 52
M  V30 57 1 22 53
M  V30 58 1 22 54
M  V30 59 1 22 55
M  V30 60 1 24 56
M  V30 61 1 26 57
M  V30 62 1 27 58
M  V30 63 1 30 59
M  V30 64 1 32 60
M  V30 65 1 32 61
M  V30 66 1 32 62
M  V30 67 1 36 63
M  V30 68 1 37 64
M  V30 69 1 38 65
M  V30 70 1 41 66
M  V30 71 1 41 67
M  V30 72 1 41 68
M  V30 73 1 44 69
M  V30 74 1 44 70
M  V30 75 1 44 71
M  V30 END BOND
M  V30 END CTAB
M  END
>  <Dataset>  (663) 
ChEMBL_Kinases

>  <Ligand_Instance>  (663) 
nan

>  <PDB_ID>  (663) 
nan

>  <Standardized_SMILES>  (663) 
COc1cc(-c2[nH]c(C(F)(F)F)nc2C(=O)Nc2ccc(C)c(Nc3ccc4ncn(C)c(=O)c4c3)c2)cc(OC)c1OC

>  <Name>  (663) 
nan

>  <Pocket>  (663) 
nan

>  <ATP_Site>  (663) 
nan

>  <Peripheral>  (663) 
nan

>  <Num_H_Atoms_ProtBoundConf>  (663) 
nan

>  <Num_Resolved_Atoms>  (663) 
nan

>  <Num_Not_Resolved_Atoms>  (663) 
nan

$$$$
CHEMBL498413
     RDKit          3D

  0  0  0  0  0  0  0  0  0  0999 V3000
M  V30 BEGIN CTAB
M  V30 COUNTS 52 55 0 0 0
M  V30 BEGIN ATOM
M  V30 1 C 2.691243 -2.966206 3.798118 0
M  V30 2 N 3.115479 -1.596052 3.970702 0
M  V30 3 C 2.172944 -0.895049 4.789292 0
M  V30 4 C 3.413723 -0.933143 2.719240 0
M  V30 5 C 3.888778 0.469095 3.121680 0
M  V30 6 C 4.596763 -1.626051 2.100769 0
M  V30 7 C 2.246450 -0.819738 1.811743 0
M  V30 8 C 1.788914 0.487233 1.604557 0
M  V30 9 C 0.697701 0.739836 0.764520 0
M  V30 10 N 0.050665 -0.253029 0.128341 0
M  V30 11 C -1.001112 -0.261732 -0.711526 0
M  V30 12 C -1.722196 0.932039 -1.139550 0
M  V30 13 C -1.868697 1.520995 -2.377953 0
M  V30 14 C -2.630179 2.666923 -2.472165 0
M  V30 15 N -3.219460 3.205466 -1.389203 0
M  V30 16 C -3.080405 2.638184 -0.184716 0
M  V30 17 N -3.727090 3.253582 0.924812 0
M  V30 18 N -2.333154 1.502982 -0.058912 0
M  V30 19 C -1.233845 -1.577595 -1.056149 0
M  V30 20 C -2.271553 -2.085218 -1.947152 0
M  V30 21 C -3.187640 -2.869811 -1.236647 0
M  V30 22 C -4.260908 -3.461552 -1.868411 0
M  V30 23 C -4.451474 -3.288234 -3.226141 0
M  V30 24 F -5.434973 -3.784456 -4.011751 0
M  V30 25 C -3.540568 -2.512855 -3.911804 0
M  V30 26 C -2.459948 -1.911155 -3.302158 0
M  V30 27 N -0.304441 -2.313446 -0.403786 0
M  V30 28 C 0.489547 -1.508396 0.326658 0
M  V30 29 C 1.561540 -1.799280 1.146569 0
M  V30 30 H 3.318696 -3.512584 3.062965 0
M  V30 31 H 2.891288 -3.451642 4.805311 0
M  V30 32 H 1.597918 -3.079083 3.632772 0
M  V30 33 H 1.517848 -0.287559 4.133568 0
M  V30 34 H 1.524730 -1.614514 5.318201 0
M  V30 35 H 2.666274 -0.292028 5.576217 0
M  V30 36 H 4.215194 1.072189 2.272851 0
M  V30 37 H 4.821238 0.273574 3.725332 0
M  V30 38 H 3.202515 0.965491 3.818196 0
M  V30 39 H 5.255364 -1.953137 2.947069 0
M  V30 40 H 5.159733 -0.909367 1.470223 0
M  V30 41 H 4.338724 -2.559176 1.555002 0
M  V30 42 H 2.209966 1.377609 2.047758 0
M  V30 43 H 0.334777 1.756783 0.597672 0
M  V30 44 H -1.341390 0.977742 -3.131561 0
M  V30 45 H -2.697910 3.073706 -3.493471 0
M  V30 46 H -4.586663 2.762300 1.269479 0
M  V30 47 H -3.486374 4.119055 1.456844 0
M  V30 48 H -3.178377 -3.101423 -0.169734 0
M  V30 49 H -5.007277 -4.078377 -1.388039 0
M  V30 50 H -3.578337 -2.297881 -4.988064 0
M  V30 51 H -1.705707 -1.300804 -3.738375 0
M  V30 52 H 1.906004 -2.790756 1.294497 0
M  V30 END ATOM
M  V30 BEGIN BOND
M  V30 1 1 1 2
M  V30 2 1 2 3
M  V30 3 1 2 4
M  V30 4 1 4 5
M  V30 5 1 4 6
M  V30 6 1 4 7
M  V30 7 1 7 8
M  V30 8 2 8 9
M  V30 9 1 9 10
M  V30 10 1 10 11
M  V30 11 1 11 12
M  V30 12 2 12 13
M  V30 13 1 13 14
M  V30 14 2 14 15
M  V30 15 1 15 16
M  V30 16 1 16 17
M  V30 17 2 16 18
M  V30 18 2 11 19
M  V30 19 1 19 20
M  V30 20 2 20 21
M  V30 21 1 21 22
M  V30 22 2 22 23
M  V30 23 1 23 24
M  V30 24 1 23 25
M  V30 25 2 25 26
M  V30 26 1 19 27
M  V30 27 2 27 28
M  V30 28 1 28 29
M  V30 29 2 29 7
M  V30 30 1 28 10
M  V30 31 1 18 12
M  V30 32 1 26 20
M  V30 33 1 1 30
M  V30 34 1 1 31
M  V30 35 1 1 32
M  V30 36 1 3 33
M  V30 37 1 3 34
M  V30 38 1 3 35
M  V30 39 1 5 36
M  V30 40 1 5 37
M  V30 41 1 5 38
M  V30 42 1 6 39
M  V30 43 1 6 40
M  V30 44 1 6 41
M  V30 45 1 8 42
M  V30 46 1 9 43
M  V30 47 1 13 44
M  V30 48 1 14 45
M  V30 49 1 17 46
M  V30 50 1 17 47
M  V30 51 1 21 48
M  V30 52 1 22 49
M  V30 53 1 25 50
M  V30 54 1 26 51
M  V30 55 1 29 52
M  V30 END BOND
M  V30 END CTAB
M  END
>  <Dataset>  (664) 
ChEMBL_Kinases

>  <Ligand_Instance>  (664) 
nan

>  <PDB_ID>  (664) 
nan

>  <Standardized_SMILES>  (664) 
CN(C)C(C)(C)c1ccn2c(-c3ccnc(N)n3)c(-c3ccc(F)cc3)nc2c1

>  <Name>  (664) 
nan

>  <Pocket>  (664) 
nan

>  <ATP_Site>  (664) 
nan

>  <Peripheral>  (664) 
nan

>  <Num_H_Atoms_ProtBoundConf>  (664) 
nan

>  <Num_Resolved_Atoms>  (664) 
nan

>  <Num_Not_Resolved_Atoms>  (664) 
nan

$$$$
CHEMBL498414
     RDKit          3D

  0  0  0  0  0  0  0  0  0  0999 V3000
M  V30 BEGIN CTAB
M  V30 COUNTS 49 52 0 0 0
M  V30 BEGIN ATOM
M  V30 1 C 0.378772 -1.359463 5.684607 0
M  V30 2 C 1.450720 -1.210352 4.638015 0
M  V30 3 C 2.090941 -2.598313 4.501179 0
M  V30 4 C 2.557353 -0.276612 5.074067 0
M  V30 5 N 3.207042 -0.738733 6.262661 0
M  V30 6 C 0.922883 -0.829558 3.303108 0
M  V30 7 C 0.782674 0.495485 2.944875 0
M  V30 8 C 0.286827 0.775676 1.690463 0
M  V30 9 N -0.045097 -0.222893 0.854360 0
M  V30 10 C -0.537511 -0.092704 -0.390844 0
M  V30 11 C -0.871130 1.039212 -1.239700 0
M  V30 12 C -1.864075 1.906336 -0.800924 0
M  V30 13 C -2.185431 2.993397 -1.611581 0
M  V30 14 N -1.579023 3.244758 -2.801823 0
M  V30 15 C -0.617910 2.369938 -3.184506 0
M  V30 16 N 0.138587 2.446291 -4.388183 0
M  V30 17 N -0.302725 1.325812 -2.415682 0
M  V30 18 C -0.734204 -1.370668 -0.884354 0
M  V30 19 C -1.223762 -1.972164 -2.119454 0
M  V30 20 C -0.588014 -1.803401 -3.320327 0
M  V30 21 C -1.096591 -2.400406 -4.479735 0
M  V30 22 C -2.246031 -3.158047 -4.385373 0
M  V30 23 F -2.713250 -3.726217 -5.543546 0
M  V30 24 C -2.944898 -3.374333 -3.206261 0
M  V30 25 C -2.379400 -2.754165 -2.117298 0
M  V30 26 N -0.359704 -2.237171 0.064575 0
M  V30 27 C 0.074421 -1.547732 1.160207 0
M  V30 28 C 0.571981 -1.830414 2.418793 0
M  V30 29 H 0.446988 -2.322441 6.254856 0
M  V30 30 H -0.650241 -1.359768 5.239393 0
M  V30 31 H 0.387057 -0.532075 6.435923 0
M  V30 32 H 1.329822 -3.402126 4.602000 0
M  V30 33 H 2.584377 -2.602004 3.497698 0
M  V30 34 H 2.830137 -2.767168 5.315314 0
M  V30 35 H 2.132327 0.735783 5.233387 0
M  V30 36 H 3.300540 -0.229260 4.254609 0
M  V30 37 H 3.448887 0.026751 6.933893 0
M  V30 38 H 4.143087 -1.175494 6.024847 0
M  V30 39 H 1.045288 1.307424 3.607842 0
M  V30 40 H 0.180304 1.815997 1.417024 0
M  V30 41 H -2.415433 1.806102 0.130296 0
M  V30 42 H -2.944799 3.741193 -1.376447 0
M  V30 43 H 1.173400 2.576811 -4.203131 0
M  V30 44 H -0.240481 2.385724 -5.351930 0
M  V30 45 H 0.299902 -1.221444 -3.406531 0
M  V30 46 H -0.585519 -2.263078 -5.436322 0
M  V30 47 H -3.831312 -3.960606 -3.142768 0
M  V30 48 H -2.879145 -2.881142 -1.146344 0
M  V30 49 H 0.664271 -2.880187 2.654671 0
M  V30 END ATOM
M  V30 BEGIN BOND
M  V30 1 1 1 2
M  V30 2 1 2 3
M  V30 3 1 2 4
M  V30 4 1 4 5
M  V30 5 1 2 6
M  V30 6 1 6 7
M  V30 7 2 7 8
M  V30 8 1 8 9
M  V30 9 1 9 10
M  V30 10 1 10 11
M  V30 11 2 11 12
M  V30 12 1 12 13
M  V30 13 2 13 14
M  V30 14 1 14 15
M  V30 15 1 15 16
M  V30 16 2 15 17
M  V30 17 2 10 18
M  V30 18 1 18 19
M  V30 19 2 19 20
M  V30 20 1 20 21
M  V30 21 2 21 22
M  V30 22 1 22 23
M  V30 23 1 22 24
M  V30 24 2 24 25
M  V30 25 1 18 26
M  V30 26 2 26 27
M  V30 27 1 27 28
M  V30 28 2 28 6
M  V30 29 1 27 9
M  V30 30 1 17 11
M  V30 31 1 25 19
M  V30 32 1 1 29
M  V30 33 1 1 30
M  V30 34 1 1 31
M  V30 35 1 3 32
M  V30 36 1 3 33
M  V30 37 1 3 34
M  V30 38 1 4 35
M  V30 39 1 4 36
M  V30 40 1 5 37
M  V30 41 1 5 38
M  V30 42 1 7 39
M  V30 43 1 8 40
M  V30 44 1 12 41
M  V30 45 1 13 42
M  V30 46 1 16 43
M  V30 47 1 16 44
M  V30 48 1 20 45
M  V30 49 1 21 46
M  V30 50 1 24 47
M  V30 51 1 25 48
M  V30 52 1 28 49
M  V30 END BOND
M  V30 END CTAB
M  END
>  <Dataset>  (665) 
ChEMBL_Kinases

>  <Ligand_Instance>  (665) 
nan

>  <PDB_ID>  (665) 
nan

>  <Standardized_SMILES>  (665) 
CC(C)(CN)c1ccn2c(-c3ccnc(N)n3)c(-c3ccc(F)cc3)nc2c1

>  <Name>  (665) 
nan

>  <Pocket>  (665) 
nan

>  <ATP_Site>  (665) 
nan

>  <Peripheral>  (665) 
nan

>  <Num_H_Atoms_ProtBoundConf>  (665) 
nan

>  <Num_Resolved_Atoms>  (665) 
nan

>  <Num_Not_Resolved_Atoms>  (665) 
nan

$$$$
CHEMBL498441
     RDKit          3D

  0  0  0  0  0  0  0  0  0  0999 V3000
M  V30 BEGIN CTAB
M  V30 COUNTS 50 53 0 0 0
M  V30 BEGIN ATOM
M  V30 1 O -0.052849 -2.471684 1.205987 0
M  V30 2 C 0.544366 -3.057540 0.268111 0
M  V30 3 O 1.534774 -2.379385 -0.442271 0
M  V30 4 C 1.868352 -1.049053 -0.117141 0
M  V30 5 C 2.855780 -0.737505 0.814093 0
M  V30 6 C 3.062221 0.603868 1.019761 0
M  V30 7 O 4.057368 0.923733 1.958327 0
M  V30 8 C 2.359416 1.591505 0.367351 0
M  V30 9 C 1.392593 1.264077 -0.544645 0
M  V30 10 C 1.152836 -0.071063 -0.781587 0
M  V30 11 O 0.749097 2.333181 -1.140586 0
M  V30 12 C 0.471335 3.476322 -0.336724 0
M  V30 13 C -0.525596 3.137689 0.693485 0
M  V30 14 C -0.540130 3.440630 2.027958 0
M  V30 15 C -1.589603 3.014485 2.813873 0
M  V30 16 O -1.553241 3.349429 4.158810 0
M  V30 17 C -2.646953 2.285324 2.320776 0
M  V30 18 O -3.684578 1.871625 3.130535 0
M  V30 19 C -2.635752 1.978289 0.977057 0
M  V30 20 O -3.711953 1.236849 0.478254 0
M  V30 21 C -1.589879 2.397744 0.171430 0
M  V30 22 C 1.764328 4.010742 0.184703 0
M  V30 23 C 2.714980 2.990329 0.713746 0
M  V30 24 C 0.172219 -4.434252 -0.039584 0
M  V30 25 C -0.820805 -5.006171 0.727983 0
M  V30 26 C -1.219994 -6.311434 0.485775 0
M  V30 27 O -2.203528 -6.890512 1.239542 0
M  V30 28 C -0.609793 -7.020948 -0.529273 0
M  V30 29 O -1.043520 -8.332622 -0.737880 0
M  V30 30 C 0.395654 -6.447275 -1.309208 0
M  V30 31 O 0.980184 -7.207625 -2.322877 0
M  V30 32 C 0.787212 -5.136598 -1.056077 0
M  V30 33 H 3.387782 -1.529197 1.307570 0
M  V30 34 H 3.732275 1.280455 2.855465 0
M  V30 35 H 0.383990 -0.304088 -1.506594 0
M  V30 36 H 0.028155 4.290895 -0.963731 0
M  V30 37 H 0.314976 4.012745 2.351400 0
M  V30 38 H -2.261907 3.047337 4.798643 0
M  V30 39 H -3.622180 1.053027 3.736598 0
M  V30 40 H -3.844845 0.273590 0.820603 0
M  V30 41 H -1.697841 2.093473 -0.863842 0
M  V30 42 H 2.260589 4.555337 -0.668632 0
M  V30 43 H 1.537345 4.819169 0.915115 0
M  V30 44 H 2.813902 3.020996 1.819870 0
M  V30 45 H 3.747428 3.150336 0.286403 0
M  V30 46 H -1.318210 -4.472277 1.532625 0
M  V30 47 H -2.858132 -6.427146 1.824532 0
M  V30 48 H -2.030161 -8.560137 -0.819983 0
M  V30 49 H 0.317322 -7.622043 -2.993378 0
M  V30 50 H 1.576494 -4.676061 -1.663105 0
M  V30 END ATOM
M  V30 BEGIN BOND
M  V30 1 2 1 2
M  V30 2 1 2 3
M  V30 3 1 3 4
M  V30 4 2 4 5
M  V30 5 1 5 6
M  V30 6 1 6 7
M  V30 7 2 6 8
M  V30 8 1 8 9
M  V30 9 2 9 10
M  V30 10 1 9 11
M  V30 11 1 11 12
M  V30 12 1 12 13
M  V30 13 2 13 14
M  V30 14 1 14 15
M  V30 15 1 15 16
M  V30 16 2 15 17
M  V30 17 1 17 18
M  V30 18 1 17 19
M  V30 19 1 19 20
M  V30 20 2 19 21
M  V30 21 1 12 22
M  V30 22 1 22 23
M  V30 23 1 2 24
M  V30 24 2 24 25
M  V30 25 1 25 26
M  V30 26 1 26 27
M  V30 27 2 26 28
M  V30 28 1 28 29
M  V30 29 1 28 30
M  V30 30 1 30 31
M  V30 31 2 30 32
M  V30 32 1 10 4
M  V30 33 1 21 13
M  V30 34 1 32 24
M  V30 35 1 23 8
M  V30 36 1 5 33
M  V30 37 1 7 34
M  V30 38 1 10 35
M  V30 39 1 12 36
M  V30 40 1 14 37
M  V30 41 1 16 38
M  V30 42 1 18 39
M  V30 43 1 20 40
M  V30 44 1 21 41
M  V30 45 1 22 42
M  V30 46 1 22 43
M  V30 47 1 23 44
M  V30 48 1 23 45
M  V30 49 1 25 46
M  V30 50 1 27 47
M  V30 51 1 29 48
M  V30 52 1 31 49
M  V30 53 1 32 50
M  V30 END BOND
M  V30 END CTAB
M  END
>  <Dataset>  (666) 
ChEMBL_Kinases

>  <Ligand_Instance>  (666) 
nan

>  <PDB_ID>  (666) 
nan

>  <Standardized_SMILES>  (666) 
O=C(Oc1cc(O)c2c(c1)OC(c1cc(O)c(O)c(O)c1)CC2)c1cc(O)c(O)c(O)c1

>  <Name>  (666) 
nan

>  <Pocket>  (666) 
nan

>  <ATP_Site>  (666) 
nan

>  <Peripheral>  (666) 
nan

>  <Num_H_Atoms_ProtBoundConf>  (666) 
nan

>  <Num_Resolved_Atoms>  (666) 
nan

>  <Num_Not_Resolved_Atoms>  (666) 
nan

$$$$
CHEMBL380402
     RDKit          3D

  0  0  0  0  0  0  0  0  0  0999 V3000
M  V30 BEGIN CTAB
M  V30 COUNTS 42 44 0 0 0
M  V30 BEGIN ATOM
M  V30 1 C -2.100040 -6.686375 -1.587264 0
M  V30 2 N -1.248281 -6.199749 -2.630766 0
M  V30 3 C -0.008144 -5.743547 -2.102195 0
M  V30 4 N 1.129933 -6.434743 -1.907806 0
M  V30 5 C 2.200464 -5.805442 -1.389852 0
M  V30 6 C 2.226815 -4.456268 -1.027801 0
M  V30 7 C 1.033459 -3.802294 -1.250175 0
M  V30 8 C 0.934592 -2.358855 -0.904756 0
M  V30 9 C -0.050105 -1.489102 -1.001801 0
M  V30 10 C 0.121445 -0.204775 -0.608863 0
M  V30 11 C 1.333833 0.130142 -0.121222 0
M  V30 12 C 1.943660 1.392242 0.410487 0
M  V30 13 O 3.127473 1.348334 0.789540 0
M  V30 14 N 1.052507 2.466663 0.397839 0
M  V30 15 C 1.516653 3.750378 0.888272 0
M  V30 16 C 1.941996 3.662243 2.338687 0
M  V30 17 C 0.857869 3.236977 3.247008 0
M  V30 18 C 0.555007 1.941932 3.605030 0
M  V30 19 C -0.485355 1.637354 4.466069 0
M  V30 20 C -1.271450 2.643335 5.006702 0
M  V30 21 F -2.302725 2.439417 5.851500 0
M  V30 22 C -0.940588 3.927779 4.627225 0
M  V30 23 C 0.098143 4.291473 3.762214 0
M  V30 24 S 2.260352 -1.447600 -0.228780 0
M  V30 25 N -0.042617 -4.418884 -1.766630 0
M  V30 26 H -3.093457 -6.939503 -2.028534 0
M  V30 27 H -1.609990 -7.552097 -1.109794 0
M  V30 28 H -2.224384 -5.907897 -0.779258 0
M  V30 29 H -1.274372 -6.082906 -3.668140 0
M  V30 30 H 3.091489 -6.417675 -1.256277 0
M  V30 31 H 3.101224 -3.993338 -0.618113 0
M  V30 32 H -1.003198 -1.843788 -1.409086 0
M  V30 33 H -0.612483 0.591548 -0.642421 0
M  V30 34 H 0.068411 2.425404 0.061663 0
M  V30 35 H 2.457711 4.054742 0.338286 0
M  V30 36 H 0.789833 4.554864 0.712054 0
M  V30 37 H 2.353160 4.663674 2.625402 0
M  V30 38 H 2.796640 2.971028 2.417043 0
M  V30 39 H 1.163504 1.164297 3.187444 0
M  V30 40 H -0.707146 0.616302 4.734685 0
M  V30 41 H -1.552690 4.741980 5.045467 0
M  V30 42 H 0.235742 5.340187 3.558628 0
M  V30 END ATOM
M  V30 BEGIN BOND
M  V30 1 1 1 2
M  V30 2 1 2 3
M  V30 3 2 3 4
M  V30 4 1 4 5
M  V30 5 2 5 6
M  V30 6 1 6 7
M  V30 7 1 7 8
M  V30 8 2 8 9
M  V30 9 1 9 10
M  V30 10 2 10 11
M  V30 11 1 11 12
M  V30 12 2 12 13
M  V30 13 1 12 14
M  V30 14 1 14 15
M  V30 15 1 15 16
M  V30 16 1 16 17
M  V30 17 2 17 18
M  V30 18 1 18 19
M  V30 19 2 19 20
M  V30 20 1 20 21
M  V30 21 1 20 22
M  V30 22 2 22 23
M  V30 23 1 11 24
M  V30 24 2 7 25
M  V30 25 1 25 3
M  V30 26 1 24 8
M  V30 27 1 23 17
M  V30 28 1 1 26
M  V30 29 1 1 27
M  V30 30 1 1 28
M  V30 31 1 2 29
M  V30 32 1 5 30
M  V30 33 1 6 31
M  V30 34 1 9 32
M  V30 35 1 10 33
M  V30 36 1 14 34
M  V30 37 1 15 35
M  V30 38 1 15 36
M  V30 39 1 16 37
M  V30 40 1 16 38
M  V30 41 1 18 39
M  V30 42 1 19 40
M  V30 43 1 22 41
M  V30 44 1 23 42
M  V30 END BOND
M  V30 END CTAB
M  END
>  <Dataset>  (667) 
ChEMBL_Kinases

>  <Ligand_Instance>  (667) 
nan

>  <PDB_ID>  (667) 
nan

>  <Standardized_SMILES>  (667) 
CNc1nccc(-c2ccc(C(=O)NCCc3ccc(F)cc3)s2)n1

>  <Name>  (667) 
nan

>  <Pocket>  (667) 
nan

>  <ATP_Site>  (667) 
nan

>  <Peripheral>  (667) 
nan

>  <Num_H_Atoms_ProtBoundConf>  (667) 
nan

>  <Num_Resolved_Atoms>  (667) 
nan

>  <Num_Not_Resolved_Atoms>  (667) 
nan

$$$$
CHEMBL498553
     RDKit          3D

  0  0  0  0  0  0  0  0  0  0999 V3000
M  V30 BEGIN CTAB
M  V30 COUNTS 56 60 0 0 0
M  V30 BEGIN ATOM
M  V30 1 C 3.533460 -1.336515 6.698720 0
M  V30 2 C 4.107948 -0.965195 5.372284 0
M  V30 3 N 3.946797 -1.936738 4.334249 0
M  V30 4 C 4.478111 -1.615855 3.068219 0
M  V30 5 C 3.485867 -1.582158 1.936395 0
M  V30 6 C 2.114276 -1.308569 2.512478 0
M  V30 7 C 1.133888 -0.992805 1.466060 0
M  V30 8 C 0.591761 0.276930 1.510175 0
M  V30 9 C -0.347779 0.639203 0.542211 0
M  V30 10 N -0.678350 -0.272081 -0.388517 0
M  V30 11 C -1.558740 -0.161946 -1.425472 0
M  V30 12 C -2.363031 1.007912 -1.765271 0
M  V30 13 C -2.141695 1.605356 -2.989822 0
M  V30 14 C -2.879285 2.715593 -3.353965 0
M  V30 15 N -3.812570 3.203894 -2.501110 0
M  V30 16 C -4.029083 2.615549 -1.297660 0
M  V30 17 N -5.021550 3.170289 -0.441384 0
M  V30 18 N -3.317629 1.549498 -0.953382 0
M  V30 19 C -1.585070 -1.349691 -2.132912 0
M  V30 20 C -2.409848 -1.606015 -3.308333 0
M  V30 21 C -3.766175 -1.535136 -3.029497 0
M  V30 22 C -4.710466 -1.753746 -4.038415 0
M  V30 23 C -4.274285 -2.045025 -5.333340 0
M  V30 24 F -5.169149 -2.260684 -6.326924 0
M  V30 25 C -2.918625 -2.105724 -5.566507 0
M  V30 26 C -1.979661 -1.892307 -4.581210 0
M  V30 27 N -0.707045 -2.170621 -1.502628 0
M  V30 28 C -0.153968 -1.523987 -0.444679 0
M  V30 29 C 0.789846 -1.923423 0.507491 0
M  V30 30 C 1.745438 -2.492734 3.346688 0
M  V30 31 C 2.780589 -2.728554 4.399365 0
M  V30 32 H 3.981389 -0.621279 7.449053 0
M  V30 33 H 3.841252 -2.344435 7.048428 0
M  V30 34 H 2.434110 -1.153615 6.788096 0
M  V30 35 H 3.726411 0.051670 5.123923 0
M  V30 36 H 5.210406 -0.809361 5.509818 0
M  V30 37 H 5.316936 -2.280962 2.822519 0
M  V30 38 H 4.907767 -0.572581 3.115805 0
M  V30 39 H 3.738317 -0.825997 1.157125 0
M  V30 40 H 3.448781 -2.584058 1.459256 0
M  V30 41 H 2.241692 -0.431409 3.186938 0
M  V30 42 H 0.854709 1.022185 2.262076 0
M  V30 43 H -0.781191 1.630658 0.563990 0
M  V30 44 H -1.403257 1.209170 -3.650660 0
M  V30 45 H -2.668314 3.154283 -4.333785 0
M  V30 46 H -5.994899 2.894591 -0.162472 0
M  V30 47 H -4.698985 4.070829 0.019982 0
M  V30 48 H -4.226116 -1.316798 -2.062925 0
M  V30 49 H -5.783673 -1.719156 -3.914362 0
M  V30 50 H -2.539326 -2.327889 -6.553041 0
M  V30 51 H -0.909492 -1.923832 -4.691094 0
M  V30 52 H 1.223013 -2.908749 0.488897 0
M  V30 53 H 0.709224 -2.426212 3.761068 0
M  V30 54 H 1.709066 -3.389446 2.666566 0
M  V30 55 H 3.115228 -3.807809 4.378418 0
M  V30 56 H 2.286479 -2.620376 5.375922 0
M  V30 END ATOM
M  V30 BEGIN BOND
M  V30 1 1 1 2
M  V30 2 1 2 3
M  V30 3 1 3 4
M  V30 4 1 4 5
M  V30 5 1 5 6
M  V30 6 1 6 7
M  V30 7 1 7 8
M  V30 8 2 8 9
M  V30 9 1 9 10
M  V30 10 1 10 11
M  V30 11 1 11 12
M  V30 12 2 12 13
M  V30 13 1 13 14
M  V30 14 2 14 15
M  V30 15 1 15 16
M  V30 16 1 16 17
M  V30 17 2 16 18
M  V30 18 2 11 19
M  V30 19 1 19 20
M  V30 20 2 20 21
M  V30 21 1 21 22
M  V30 22 2 22 23
M  V30 23 1 23 24
M  V30 24 1 23 25
M  V30 25 2 25 26
M  V30 26 1 19 27
M  V30 27 2 27 28
M  V30 28 1 28 29
M  V30 29 1 6 30
M  V30 30 1 30 31
M  V30 31 1 31 3
M  V30 32 2 29 7
M  V30 33 1 28 10
M  V30 34 1 18 12
M  V30 35 1 26 20
M  V30 36 1 1 32
M  V30 37 1 1 33
M  V30 38 1 1 34
M  V30 39 1 2 35
M  V30 40 1 2 36
M  V30 41 1 4 37
M  V30 42 1 4 38
M  V30 43 1 5 39
M  V30 44 1 5 40
M  V30 45 1 6 41
M  V30 46 1 8 42
M  V30 47 1 9 43
M  V30 48 1 13 44
M  V30 49 1 14 45
M  V30 50 1 17 46
M  V30 51 1 17 47
M  V30 52 1 21 48
M  V30 53 1 22 49
M  V30 54 1 25 50
M  V30 55 1 26 51
M  V30 56 1 29 52
M  V30 57 1 30 53
M  V30 58 1 30 54
M  V30 59 1 31 55
M  V30 60 1 31 56
M  V30 END BOND
M  V30 END CTAB
M  END
>  <Dataset>  (668) 
ChEMBL_Kinases

>  <Ligand_Instance>  (668) 
nan

>  <PDB_ID>  (668) 
nan

>  <Standardized_SMILES>  (668) 
CCN1CCC(c2ccn3c(-c4ccnc(N)n4)c(-c4ccc(F)cc4)nc3c2)CC1

>  <Name>  (668) 
nan

>  <Pocket>  (668) 
nan

>  <ATP_Site>  (668) 
nan

>  <Peripheral>  (668) 
nan

>  <Num_H_Atoms_ProtBoundConf>  (668) 
nan

>  <Num_Resolved_Atoms>  (668) 
nan

>  <Num_Not_Resolved_Atoms>  (668) 
nan

$$$$
CHEMBL380328
     RDKit          3D

  0  0  0  0  0  0  0  0  0  0999 V3000
M  V30 BEGIN CTAB
M  V30 COUNTS 45 47 0 0 0
M  V30 BEGIN ATOM
M  V30 1 N -0.236582 -1.612512 0.218744 0
M  V30 2 C 0.484742 -1.312499 1.385937 0
M  V30 3 N 1.741409 -1.503397 1.481624 0
M  V30 4 C 2.552484 -2.046143 0.404089 0
M  V30 5 C 3.031431 -0.920308 -0.479976 0
M  V30 6 C 3.882409 -1.378466 -1.629606 0
M  V30 7 C 4.904254 -0.357717 -2.050443 0
M  V30 8 C 4.516712 1.054603 -1.794208 0
M  V30 9 C 3.872812 1.335514 -0.481287 0
M  V30 10 C 3.847179 0.049235 0.329067 0
M  V30 11 C -0.373221 -0.784815 2.399109 0
M  V30 12 C 0.211703 -0.455290 3.578914 0
M  V30 13 O 1.549809 -0.534959 4.017148 0
M  V30 14 N -0.387895 0.089025 4.762073 0
M  V30 15 S -2.119668 0.155525 4.095630 0
M  V30 16 C -1.720383 -0.501513 2.508828 0
M  V30 17 N -2.634646 -0.704609 1.506521 0
M  V30 18 C -4.000243 -0.402798 1.666674 0
M  V30 19 C -4.780915 0.489035 0.948942 0
M  V30 20 C -6.115181 0.684692 1.216925 0
M  V30 21 C -6.727260 -0.017503 2.230708 0
M  V30 22 Cl -8.421254 0.289390 2.505260 0
M  V30 23 C -5.965475 -0.924682 2.972442 0
M  V30 24 C -4.615506 -1.110023 2.687102 0
M  V30 25 Cl -3.897990 -2.304464 3.763934 0
M  V30 26 H -0.767994 -1.822592 -0.633785 0
M  V30 27 H -0.114707 -2.541456 -0.243034 0
M  V30 28 H 3.400982 -2.642669 0.790620 0
M  V30 29 H 1.943678 -2.719859 -0.254067 0
M  V30 30 H 2.119451 -0.423853 -0.910480 0
M  V30 31 H 4.453429 -2.276795 -1.265793 0
M  V30 32 H 3.267827 -1.750008 -2.483527 0
M  V30 33 H 5.041741 -0.482652 -3.152073 0
M  V30 34 H 5.906671 -0.586529 -1.607031 0
M  V30 35 H 3.873748 1.495627 -2.597358 0
M  V30 36 H 5.472610 1.655851 -1.834705 0
M  V30 37 H 4.358462 2.146304 0.083486 0
M  V30 38 H 2.792126 1.638137 -0.594416 0
M  V30 39 H 3.350068 0.209525 1.314406 0
M  V30 40 H 4.874321 -0.342579 0.434734 0
M  V30 41 H 2.266225 -0.160530 3.429500 0
M  V30 42 H -2.667378 -1.052600 0.540037 0
M  V30 43 H -4.224916 1.004039 0.166165 0
M  V30 44 H -6.571217 1.418906 0.557826 0
M  V30 45 H -6.545021 -1.414592 3.735488 0
M  V30 END ATOM
M  V30 BEGIN BOND
M  V30 1 1 1 2
M  V30 2 2 2 3
M  V30 3 1 3 4
M  V30 4 1 4 5
M  V30 5 1 5 6
M  V30 6 1 6 7
M  V30 7 1 7 8
M  V30 8 1 8 9
M  V30 9 1 9 10
M  V30 10 1 2 11
M  V30 11 1 11 12
M  V30 12 1 12 13
M  V30 13 2 12 14
M  V30 14 1 14 15
M  V30 15 1 15 16
M  V30 16 1 16 17
M  V30 17 1 17 18
M  V30 18 2 18 19
M  V30 19 1 19 20
M  V30 20 2 20 21
M  V30 21 1 21 22
M  V30 22 1 21 23
M  V30 23 2 23 24
M  V30 24 1 24 25
M  V30 25 1 10 5
M  V30 26 2 16 11
M  V30 27 1 24 18
M  V30 28 1 1 26
M  V30 29 1 1 27
M  V30 30 1 4 28
M  V30 31 1 4 29
M  V30 32 1 5 30
M  V30 33 1 6 31
M  V30 34 1 6 32
M  V30 35 1 7 33
M  V30 36 1 7 34
M  V30 37 1 8 35
M  V30 38 1 8 36
M  V30 39 1 9 37
M  V30 40 1 9 38
M  V30 41 1 10 39
M  V30 42 1 10 40
M  V30 43 1 13 41
M  V30 44 1 17 42
M  V30 45 1 19 43
M  V30 46 1 20 44
M  V30 47 1 23 45
M  V30 END BOND
M  V30 END CTAB
M  END
>  <Dataset>  (669) 
ChEMBL_Kinases

>  <Ligand_Instance>  (669) 
nan

>  <PDB_ID>  (669) 
nan

>  <Standardized_SMILES>  (669) 
N/C(=N\CC1CCCCC1)c1c(O)nsc1Nc1ccc(Cl)cc1Cl

>  <Name>  (669) 
nan

>  <Pocket>  (669) 
nan

>  <ATP_Site>  (669) 
nan

>  <Peripheral>  (669) 
nan

>  <Num_H_Atoms_ProtBoundConf>  (669) 
nan

>  <Num_Resolved_Atoms>  (669) 
nan

>  <Num_Not_Resolved_Atoms>  (669) 
nan

$$$$
CHEMBL380279
     RDKit          3D

  0  0  0  0  0  0  0  0  0  0999 V3000
M  V30 BEGIN CTAB
M  V30 COUNTS 39 40 0 0 0
M  V30 BEGIN ATOM
M  V30 1 C 3.741110 -4.419891 0.701079 0
M  V30 2 O 3.218799 -3.650198 -0.388711 0
M  V30 3 C 1.861553 -3.406529 -0.493954 0
M  V30 4 C 0.952188 -3.883723 0.429068 0
M  V30 5 C -0.391932 -3.606539 0.269541 0
M  V30 6 C -0.848161 -2.848979 -0.813558 0
M  V30 7 O -2.191229 -2.587519 -0.948780 0
M  V30 8 C -3.131240 -3.073692 -0.005948 0
M  V30 9 C 0.112599 -2.397048 -1.707811 0
M  V30 10 C -0.452696 -1.590520 -2.842133 0
M  V30 11 C -0.769349 -0.247110 -2.252983 0
M  V30 12 O -0.343852 -0.644380 -1.118131 0
M  V30 13 N -1.315943 0.965088 -2.750249 0
M  V30 14 C -1.340902 1.857576 -1.627061 0
M  V30 15 C -0.327527 2.719542 -1.256082 0
M  V30 16 C -0.576243 3.486288 -0.132961 0
M  V30 17 N 0.447827 4.382910 0.273244 0
M  V30 18 C -1.779444 3.355179 0.534101 0
M  V30 19 C -2.024676 4.166125 1.710533 0
M  V30 20 N -2.237598 4.807254 2.656383 0
M  V30 21 C -2.775224 2.483540 0.139037 0
M  V30 22 Br -4.404169 2.362913 1.113541 0
M  V30 23 N -2.526880 1.727408 -0.970655 0
M  V30 24 C 1.463564 -2.652650 -1.583199 0
M  V30 25 H 4.845048 -4.342119 0.736496 0
M  V30 26 H 3.284849 -3.969833 1.631095 0
M  V30 27 H 3.448098 -5.481152 0.574659 0
M  V30 28 H 1.308662 -4.476502 1.276572 0
M  V30 29 H -1.088283 -3.992669 1.009039 0
M  V30 30 H -4.167679 -2.820120 -0.308592 0
M  V30 31 H -2.922067 -2.515341 0.942686 0
M  V30 32 H -3.052257 -4.147497 0.200504 0
M  V30 33 H -1.358845 -2.106188 -3.226340 0
M  V30 34 H 0.255323 -1.532484 -3.680646 0
M  V30 35 H -1.513336 0.798853 -3.755602 0
M  V30 36 H 0.550643 2.718620 -1.862859 0
M  V30 37 H 0.565438 5.422531 0.271312 0
M  V30 38 H 1.284836 3.884814 0.669411 0
M  V30 39 H 2.146881 -2.255620 -2.336244 0
M  V30 END ATOM
M  V30 BEGIN BOND
M  V30 1 1 1 2
M  V30 2 1 2 3
M  V30 3 2 3 4
M  V30 4 1 4 5
M  V30 5 2 5 6
M  V30 6 1 6 7
M  V30 7 1 7 8
M  V30 8 1 6 9
M  V30 9 1 9 10
M  V30 10 1 10 11
M  V30 11 2 11 12
M  V30 12 1 11 13
M  V30 13 1 13 14
M  V30 14 2 14 15
M  V30 15 1 15 16
M  V30 16 1 16 17
M  V30 17 2 16 18
M  V30 18 1 18 19
M  V30 19 3 19 20
M  V30 20 1 18 21
M  V30 21 1 21 22
M  V30 22 2 21 23
M  V30 23 2 9 24
M  V30 24 1 24 3
M  V30 25 1 23 14
M  V30 26 1 1 25
M  V30 27 1 1 26
M  V30 28 1 1 27
M  V30 29 1 4 28
M  V30 30 1 5 29
M  V30 31 1 8 30
M  V30 32 1 8 31
M  V30 33 1 8 32
M  V30 34 1 10 33
M  V30 35 1 10 34
M  V30 36 1 13 35
M  V30 37 1 15 36
M  V30 38 1 17 37
M  V30 39 1 17 38
M  V30 40 1 24 39
M  V30 END BOND
M  V30 END CTAB
M  END
>  <Dataset>  (670) 
ChEMBL_Kinases

>  <Ligand_Instance>  (670) 
nan

>  <PDB_ID>  (670) 
nan

>  <Standardized_SMILES>  (670) 
COc1ccc(OC)c(CC(=O)Nc2cc(N)c(C#N)c(Br)n2)c1

>  <Name>  (670) 
nan

>  <Pocket>  (670) 
nan

>  <ATP_Site>  (670) 
nan

>  <Peripheral>  (670) 
nan

>  <Num_H_Atoms_ProtBoundConf>  (670) 
nan

>  <Num_Resolved_Atoms>  (670) 
nan

>  <Num_Not_Resolved_Atoms>  (670) 
nan

$$$$
CHEMBL3800405
     RDKit          3D

  0  0  0  0  0  0  0  0  0  0999 V3000
M  V30 BEGIN CTAB
M  V30 COUNTS 38 41 0 0 0
M  V30 BEGIN ATOM
M  V30 1 C 0.477374 -3.356364 1.443887 0
M  V30 2 C 0.205877 -2.256206 2.472626 0 CFG=1
M  V30 3 C 1.324622 -2.251096 3.493730 0
M  V30 4 N 2.528031 -1.898989 2.724886 0
M  V30 5 C 2.418338 -0.641860 2.066359 0
M  V30 6 O 3.503577 0.022418 1.931278 0
M  V30 7 C 1.120551 -0.127569 1.563044 0
M  V30 8 C 0.924624 1.058231 0.922278 0
M  V30 9 S 2.177594 2.336934 0.543191 0
M  V30 10 C 2.992721 2.061521 -1.013670 0
M  V30 11 C 2.164723 2.202509 -2.242138 0
M  V30 12 C 0.975524 1.322620 -2.454615 0
M  V30 13 C 0.781661 2.738130 -2.102076 0
M  V30 14 S -0.808523 1.043075 0.602149 0
M  V30 15 C -1.113998 -0.493083 1.326612 0
M  V30 16 C -2.488179 -1.081823 1.365167 0
M  V30 17 C -3.622949 -0.494322 0.850856 0
M  V30 18 C -4.609992 -1.425623 1.135407 0
M  V30 19 N -4.109195 -2.495462 1.773423 0
M  V30 20 N -2.792883 -2.285335 1.917665 0
M  V30 21 C 0.071426 -0.941609 1.779267 0
M  V30 22 H -0.414738 -3.993693 1.301242 0
M  V30 23 H 0.692189 -2.889787 0.461100 0
M  V30 24 H 1.316540 -3.996854 1.743142 0
M  V30 25 H -0.706520 -2.568787 3.016900 0
M  V30 26 H 1.111630 -1.541733 4.296383 0
M  V30 27 H 1.422086 -3.296235 3.850165 0
M  V30 28 H 3.408814 -2.479457 2.635716 0
M  V30 29 H 3.956220 2.627026 -1.108537 0
M  V30 30 H 3.346926 0.981802 -1.007068 0
M  V30 31 H 2.744252 2.415964 -3.179785 0
M  V30 32 H 0.713492 1.021248 -3.505736 0
M  V30 33 H 0.839848 0.475313 -1.767938 0
M  V30 34 H 0.468442 3.104472 -1.120996 0
M  V30 35 H 0.452167 3.421371 -2.935301 0
M  V30 36 H -3.709623 0.459257 0.350211 0
M  V30 37 H -5.654703 -1.251228 0.848917 0
M  V30 38 H -4.633224 -3.345909 2.104439 0
M  V30 END ATOM
M  V30 BEGIN BOND
M  V30 1 1 1 2
M  V30 2 1 2 3
M  V30 3 1 3 4
M  V30 4 1 4 5
M  V30 5 2 5 6
M  V30 6 1 5 7
M  V30 7 2 7 8
M  V30 8 1 8 9
M  V30 9 1 9 10
M  V30 10 1 10 11
M  V30 11 1 11 12
M  V30 12 1 12 13
M  V30 13 1 8 14
M  V30 14 1 14 15
M  V30 15 1 15 16
M  V30 16 1 16 17
M  V30 17 2 17 18
M  V30 18 1 18 19
M  V30 19 1 19 20
M  V30 20 2 15 21
M  V30 21 1 21 2
M  V30 22 1 21 7
M  V30 23 1 13 11
M  V30 24 2 20 16
M  V30 25 1 1 22
M  V30 26 1 1 23
M  V30 27 1 1 24
M  V30 28 1 2 25 CFG=1
M  V30 29 1 3 26
M  V30 30 1 3 27
M  V30 31 1 4 28
M  V30 32 1 10 29
M  V30 33 1 10 30
M  V30 34 1 11 31
M  V30 35 1 12 32
M  V30 36 1 12 33
M  V30 37 1 13 34
M  V30 38 1 13 35
M  V30 39 1 17 36
M  V30 40 1 18 37
M  V30 41 1 19 38
M  V30 END BOND
M  V30 END CTAB
M  END
>  <Dataset>  (671) 
ChEMBL_Kinases

>  <Ligand_Instance>  (671) 
nan

>  <PDB_ID>  (671) 
nan

>  <Standardized_SMILES>  (671) 
C[C@H]1CNC(=O)c2c(SCC3CC3)sc(-c3cc[nH]n3)c21

>  <Name>  (671) 
nan

>  <Pocket>  (671) 
nan

>  <ATP_Site>  (671) 
nan

>  <Peripheral>  (671) 
nan

>  <Num_H_Atoms_ProtBoundConf>  (671) 
nan

>  <Num_Resolved_Atoms>  (671) 
nan

>  <Num_Not_Resolved_Atoms>  (671) 
nan

$$$$
CHEMBL380165
     RDKit          3D

  0  0  0  0  0  0  0  0  0  0999 V3000
M  V30 BEGIN CTAB
M  V30 COUNTS 47 49 0 0 0
M  V30 BEGIN ATOM
M  V30 1 C 2.568726 -5.755498 1.415664 0
M  V30 2 N 4.028352 -5.805293 1.398498 0
M  V30 3 C 4.759815 -4.612158 1.156713 0
M  V30 4 N 6.101972 -4.564000 1.123379 0
M  V30 5 C 6.801838 -3.452099 0.897668 0
M  V30 6 C 6.166419 -2.249546 0.678707 0
M  V30 7 C 4.789326 -2.292748 0.711558 0
M  V30 8 C 3.913401 -1.093475 0.497253 0
M  V30 9 C 4.210505 0.242113 0.239133 0
M  V30 10 C 3.140076 1.059802 0.100924 0
M  V30 11 C 1.900137 0.591942 0.209341 0
M  V30 12 C 0.673493 1.443977 0.067755 0
M  V30 13 O 0.732299 2.655228 -0.163574 0
M  V30 14 N -0.512506 0.697741 0.229476 0
M  V30 15 C -1.894163 1.226055 0.152868 0 CFG=1
M  V30 16 C -2.592147 0.661922 -1.034184 0
M  V30 17 N -2.641097 -0.771665 -1.019059 0
M  V30 18 C -2.517020 1.032923 1.490454 0
M  V30 19 C -3.877381 1.510707 1.687246 0
M  V30 20 C -3.849586 2.816091 2.222608 0
M  V30 21 C -4.964826 3.584186 2.497827 0
M  V30 22 C -6.219319 3.082098 2.248267 0
M  V30 23 Cl -7.698010 3.927974 2.541972 0
M  V30 24 C -6.294084 1.812410 1.726612 0
M  V30 25 C -5.157806 1.086418 1.470020 0
M  V30 26 Cl -5.261844 -0.525711 0.865552 0
M  V30 27 S 2.051636 -1.104791 0.528980 0
M  V30 28 N 4.139565 -3.435808 0.942463 0
M  V30 29 H 2.222801 -5.686474 2.460281 0
M  V30 30 H 2.110948 -6.640215 0.896704 0
M  V30 31 H 2.224492 -4.865231 0.811419 0
M  V30 32 H 4.559372 -6.687037 1.557294 0
M  V30 33 H 7.878531 -3.360345 0.860857 0
M  V30 34 H 6.519512 -1.252742 0.480895 0
M  V30 35 H 5.275016 0.426108 0.187299 0
M  V30 36 H 3.381058 2.121263 -0.103709 0
M  V30 37 H -0.564302 -0.336257 0.425299 0
M  V30 38 H -1.718460 2.318788 -0.062584 0
M  V30 39 H -3.623912 1.083727 -1.049083 0
M  V30 40 H -2.139055 0.959830 -1.996244 0
M  V30 41 H -2.313814 -1.220196 -0.149687 0
M  V30 42 H -2.307241 -1.197097 -1.903996 0
M  V30 43 H -2.484130 -0.095595 1.677309 0
M  V30 44 H -1.797141 1.412581 2.252481 0
M  V30 45 H -2.947241 3.387284 2.487428 0
M  V30 46 H -4.957495 4.583447 2.907133 0
M  V30 47 H -7.226626 1.335094 1.498377 0
M  V30 END ATOM
M  V30 BEGIN BOND
M  V30 1 1 1 2
M  V30 2 1 2 3
M  V30 3 2 3 4
M  V30 4 1 4 5
M  V30 5 2 5 6
M  V30 6 1 6 7
M  V30 7 1 7 8
M  V30 8 2 8 9
M  V30 9 1 9 10
M  V30 10 2 10 11
M  V30 11 1 11 12
M  V30 12 2 12 13
M  V30 13 1 12 14
M  V30 14 1 14 15
M  V30 15 1 15 16
M  V30 16 1 16 17
M  V30 17 1 15 18
M  V30 18 1 18 19
M  V30 19 2 19 20
M  V30 20 1 20 21
M  V30 21 2 21 22
M  V30 22 1 22 23
M  V30 23 1 22 24
M  V30 24 2 24 25
M  V30 25 1 25 26
M  V30 26 1 11 27
M  V30 27 2 7 28
M  V30 28 1 28 3
M  V30 29 1 27 8
M  V30 30 1 25 19
M  V30 31 1 1 29
M  V30 32 1 1 30
M  V30 33 1 1 31
M  V30 34 1 2 32
M  V30 35 1 5 33
M  V30 36 1 6 34
M  V30 37 1 9 35
M  V30 38 1 10 36
M  V30 39 1 14 37
M  V30 40 1 15 38 CFG=3
M  V30 41 1 16 39
M  V30 42 1 16 40
M  V30 43 1 17 41
M  V30 44 1 17 42
M  V30 45 1 18 43
M  V30 46 1 18 44
M  V30 47 1 20 45
M  V30 48 1 21 46
M  V30 49 1 24 47
M  V30 END BOND
M  V30 END CTAB
M  END
>  <Dataset>  (672) 
ChEMBL_Kinases

>  <Ligand_Instance>  (672) 
nan

>  <PDB_ID>  (672) 
nan

>  <Standardized_SMILES>  (672) 
CNc1nccc(-c2ccc(C(=O)N[C@@H](CN)Cc3ccc(Cl)cc3Cl)s2)n1

>  <Name>  (672) 
nan

>  <Pocket>  (672) 
nan

>  <ATP_Site>  (672) 
nan

>  <Peripheral>  (672) 
nan

>  <Num_H_Atoms_ProtBoundConf>  (672) 
nan

>  <Num_Resolved_Atoms>  (672) 
nan

>  <Num_Not_Resolved_Atoms>  (672) 
nan

$$$$
CHEMBL498592
     RDKit          3D

  0  0  0  0  0  0  0  0  0  0999 V3000
M  V30 BEGIN CTAB
M  V30 COUNTS 30 32 0 0 0
M  V30 BEGIN ATOM
M  V30 1 O 2.707707 -3.567458 3.219540 0
M  V30 2 C 1.458649 -3.815234 3.320346 0
M  V30 3 N 1.119435 -4.913975 4.147168 0
M  V30 4 O 2.136696 -5.584275 4.741008 0
M  V30 5 C 0.387389 -3.102014 2.689300 0
M  V30 6 C 0.392446 -2.012662 1.845331 0
M  V30 7 C -0.768714 -1.478598 1.346553 0
M  V30 8 C -0.958614 -0.385301 0.485285 0
M  V30 9 O 0.135182 0.257755 0.066766 0
M  V30 10 C 0.477925 1.283542 -0.703308 0
M  V30 11 C -0.099025 2.246533 -1.491974 0
M  V30 12 C 0.542339 3.228792 -2.206465 0
M  V30 13 C 1.915132 3.233002 -2.109316 0
M  V30 14 I 2.884812 4.752407 -3.216166 0
M  V30 15 C 2.616976 2.313010 -1.344844 0
M  V30 16 C 1.880316 1.345623 -0.648852 0
M  V30 17 C -2.285604 -0.150283 0.206184 0
M  V30 18 N -3.398795 -0.755280 0.593787 0
M  V30 19 C -3.251109 -1.808586 1.420976 0
M  V30 20 C -1.920178 -2.143168 1.777531 0
M  V30 21 S -1.355661 -3.476796 2.852449 0
M  V30 22 H 0.130792 -5.239529 4.327285 0
M  V30 23 H 2.542739 -6.134740 4.039510 0
M  V30 24 H 1.383298 -1.636180 1.625916 0
M  V30 25 H -1.156685 2.170906 -1.510713 0
M  V30 26 H -0.068199 3.896124 -2.768400 0
M  V30 27 H 3.682093 2.464207 -1.384142 0
M  V30 28 H 2.623404 0.728421 -0.116076 0
M  V30 29 H -2.529007 0.677218 -0.452977 0
M  V30 30 H -4.022864 -2.410600 1.831205 0
M  V30 END ATOM
M  V30 BEGIN BOND
M  V30 1 2 1 2
M  V30 2 1 2 3
M  V30 3 1 3 4
M  V30 4 1 2 5
M  V30 5 2 5 6
M  V30 6 1 6 7
M  V30 7 2 7 8
M  V30 8 1 8 9
M  V30 9 1 9 10
M  V30 10 2 10 11
M  V30 11 1 11 12
M  V30 12 2 12 13
M  V30 13 1 13 14
M  V30 14 1 13 15
M  V30 15 2 15 16
M  V30 16 1 8 17
M  V30 17 2 17 18
M  V30 18 1 18 19
M  V30 19 2 19 20
M  V30 20 1 20 21
M  V30 21 1 21 5
M  V30 22 1 20 7
M  V30 23 1 16 10
M  V30 24 1 3 22
M  V30 25 1 4 23
M  V30 26 1 6 24
M  V30 27 1 11 25
M  V30 28 1 12 26
M  V30 29 1 15 27
M  V30 30 1 16 28
M  V30 31 1 17 29
M  V30 32 1 19 30
M  V30 END BOND
M  V30 END CTAB
M  END
>  <Dataset>  (673) 
ChEMBL_Kinases

>  <Ligand_Instance>  (673) 
nan

>  <PDB_ID>  (673) 
nan

>  <Standardized_SMILES>  (673) 
O=C(NO)c1cc2c(Oc3ccc(I)cc3)cncc2s1

>  <Name>  (673) 
nan

>  <Pocket>  (673) 
nan

>  <ATP_Site>  (673) 
nan

>  <Peripheral>  (673) 
nan

>  <Num_H_Atoms_ProtBoundConf>  (673) 
nan

>  <Num_Resolved_Atoms>  (673) 
nan

>  <Num_Not_Resolved_Atoms>  (673) 
nan

$$$$
CHEMBL498599
     RDKit          3D

  0  0  0  0  0  0  0  0  0  0999 V3000
M  V30 BEGIN CTAB
M  V30 COUNTS 30 33 0 0 0
M  V30 BEGIN ATOM
M  V30 1 Br -1.424477 -3.504465 5.869564 0
M  V30 2 C -0.640454 -3.199479 4.169172 0
M  V30 3 C -1.034782 -3.888342 3.044784 0
M  V30 4 C -0.438590 -3.642650 1.801916 0
M  V30 5 C 0.579566 -2.688298 1.656884 0
M  V30 6 O 0.982965 -2.646340 0.358886 0
M  V30 7 C 0.494658 -1.947019 -0.697652 0
M  V30 8 C 0.052998 -2.755306 -1.753163 0
M  V30 9 N -0.483457 -2.375959 -2.940843 0
M  V30 10 C -0.603545 -1.048077 -3.120542 0
M  V30 11 C -0.179321 -0.205033 -2.102166 0
M  V30 12 S -0.180683 1.613210 -1.980705 0
M  V30 13 C 0.528782 1.688232 -0.370703 0
M  V30 14 C 0.772227 2.977133 0.268225 0
M  V30 15 N -0.028331 4.053705 0.193379 0
M  V30 16 N 0.523181 5.013347 0.893515 0
M  V30 17 N 1.663816 4.617537 1.434019 0
M  V30 18 N 1.815944 3.357468 1.045867 0
M  V30 19 C 0.717805 0.398777 -0.031402 0
M  V30 20 C 0.364246 -0.589036 -0.898745 0
M  V30 21 C 0.951859 -2.015382 2.803263 0
M  V30 22 C 0.360266 -2.265578 4.012207 0
M  V30 23 H -1.820902 -4.614288 3.197045 0
M  V30 24 H -0.876434 -4.281342 1.020132 0
M  V30 25 H 0.109284 -3.857164 -1.702196 0
M  V30 26 H -1.007575 -0.582444 -4.002513 0
M  V30 27 H 2.380022 5.082674 2.045469 0
M  V30 28 H 1.154942 0.283505 0.948276 0
M  V30 29 H 1.741925 -1.308669 2.595451 0
M  V30 30 H 0.726943 -1.687857 4.825480 0
M  V30 END ATOM
M  V30 BEGIN BOND
M  V30 1 1 1 2
M  V30 2 2 2 3
M  V30 3 1 3 4
M  V30 4 2 4 5
M  V30 5 1 5 6
M  V30 6 1 6 7
M  V30 7 2 7 8
M  V30 8 1 8 9
M  V30 9 2 9 10
M  V30 10 1 10 11
M  V30 11 1 11 12
M  V30 12 1 12 13
M  V30 13 1 13 14
M  V30 14 1 14 15
M  V30 15 2 15 16
M  V30 16 1 16 17
M  V30 17 1 17 18
M  V30 18 2 13 19
M  V30 19 1 19 20
M  V30 20 1 5 21
M  V30 21 2 21 22
M  V30 22 1 22 2
M  V30 23 1 20 7
M  V30 24 2 20 11
M  V30 25 2 18 14
M  V30 26 1 3 23
M  V30 27 1 4 24
M  V30 28 1 8 25
M  V30 29 1 10 26
M  V30 30 1 17 27
M  V30 31 1 19 28
M  V30 32 1 21 29
M  V30 33 1 22 30
M  V30 END BOND
M  V30 END CTAB
M  END
>  <Dataset>  (674) 
ChEMBL_Kinases

>  <Ligand_Instance>  (674) 
nan

>  <PDB_ID>  (674) 
nan

>  <Standardized_SMILES>  (674) 
Brc1ccc(Oc2cncc3sc(-c4nn[nH]n4)cc23)cc1

>  <Name>  (674) 
nan

>  <Pocket>  (674) 
nan

>  <ATP_Site>  (674) 
nan

>  <Peripheral>  (674) 
nan

>  <Num_H_Atoms_ProtBoundConf>  (674) 
nan

>  <Num_Resolved_Atoms>  (674) 
nan

>  <Num_Not_Resolved_Atoms>  (674) 
nan

$$$$
CHEMBL498604
     RDKit          3D

  0  0  0  0  0  0  0  0  0  0999 V3000
M  V30 BEGIN CTAB
M  V30 COUNTS 37 39 0 0 0
M  V30 BEGIN ATOM
M  V30 1 C -0.061119 -3.275362 1.163866 0
M  V30 2 C 1.203176 -3.628824 0.442355 0 CFG=2
M  V30 3 C 2.012541 -4.708343 1.092551 0
M  V30 4 O 3.108329 -4.996344 0.266896 0
M  V30 5 N 2.076636 -2.463082 0.300723 0
M  V30 6 C 1.939104 -1.216685 -0.363855 0
M  V30 7 C 2.735376 -0.910443 -1.464545 0
M  V30 8 C 2.580316 0.311120 -2.099563 0
M  V30 9 C 1.628367 1.228312 -1.635354 0
M  V30 10 N 1.265067 2.456274 -2.031446 0
M  V30 11 C 0.293262 2.872835 -1.210904 0
M  V30 12 C 0.009467 1.895110 -0.249175 0
M  V30 13 C -0.930730 1.816495 0.862100 0
M  V30 14 C -1.177978 2.775482 1.821104 0
M  V30 15 C -2.125082 2.534060 2.801758 0
M  V30 16 C -2.813306 1.323713 2.802419 0
M  V30 17 C -3.799929 1.082410 3.825349 0
M  V30 18 N -4.618266 0.888629 4.644893 0
M  V30 19 C -2.593915 0.339700 1.860150 0
M  V30 20 C -1.641162 0.606512 0.891258 0
M  V30 21 N 0.879324 0.893152 -0.569958 0
M  V30 22 N 1.081443 -0.277350 -0.021480 0
M  V30 23 H -0.853033 -3.002755 0.443480 0
M  V30 24 H 0.140389 -2.436047 1.876830 0
M  V30 25 H -0.446274 -4.114073 1.793040 0
M  V30 26 H 0.957516 -3.939764 -0.601421 0
M  V30 27 H 1.440875 -5.607395 1.332535 0
M  V30 28 H 2.475509 -4.329091 2.048451 0
M  V30 29 H 2.941876 -4.625736 -0.650477 0
M  V30 30 H 3.037191 -2.397686 0.727111 0
M  V30 31 H 3.477073 -1.633325 -1.821863 0
M  V30 32 H 3.175963 0.587609 -2.949522 0
M  V30 33 H -0.273181 3.818153 -1.192300 0
M  V30 34 H -0.590543 3.664834 1.722688 0
M  V30 35 H -2.301157 3.306300 3.544064 0
M  V30 36 H -3.131541 -0.584620 1.875769 0
M  V30 37 H -1.503937 -0.210200 0.165443 0
M  V30 END ATOM
M  V30 BEGIN BOND
M  V30 1 1 1 2
M  V30 2 1 2 3
M  V30 3 1 3 4
M  V30 4 1 2 5
M  V30 5 1 5 6
M  V30 6 1 6 7
M  V30 7 2 7 8
M  V30 8 1 8 9
M  V30 9 2 9 10
M  V30 10 1 10 11
M  V30 11 2 11 12
M  V30 12 1 12 13
M  V30 13 2 13 14
M  V30 14 1 14 15
M  V30 15 2 15 16
M  V30 16 1 16 17
M  V30 17 3 17 18
M  V30 18 1 16 19
M  V30 19 2 19 20
M  V30 20 1 12 21
M  V30 21 1 21 22
M  V30 22 2 22 6
M  V30 23 1 21 9
M  V30 24 1 20 13
M  V30 25 1 1 23
M  V30 26 1 1 24
M  V30 27 1 1 25
M  V30 28 1 2 26 CFG=3
M  V30 29 1 3 27
M  V30 30 1 3 28
M  V30 31 1 4 29
M  V30 32 1 5 30
M  V30 33 1 7 31
M  V30 34 1 8 32
M  V30 35 1 11 33
M  V30 36 1 14 34
M  V30 37 1 15 35
M  V30 38 1 19 36
M  V30 39 1 20 37
M  V30 END BOND
M  V30 END CTAB
M  END
>  <Dataset>  (675) 
ChEMBL_Kinases

>  <Ligand_Instance>  (675) 
nan

>  <PDB_ID>  (675) 
nan

>  <Standardized_SMILES>  (675) 
C[C@H](CO)Nc1ccc2ncc(-c3ccc(C#N)cc3)n2n1

>  <Name>  (675) 
nan

>  <Pocket>  (675) 
nan

>  <ATP_Site>  (675) 
nan

>  <Peripheral>  (675) 
nan

>  <Num_H_Atoms_ProtBoundConf>  (675) 
nan

>  <Num_Resolved_Atoms>  (675) 
nan

>  <Num_Not_Resolved_Atoms>  (675) 
nan

$$$$
CHEMBL380093
     RDKit          3D

  0  0  0  0  0  0  0  0  0  0999 V3000
M  V30 BEGIN CTAB
M  V30 COUNTS 37 39 0 0 0
M  V30 BEGIN ATOM
M  V30 1 C 0.493242 -5.658919 3.205814 0
M  V30 2 O 1.253605 -5.932881 2.020807 0
M  V30 3 C 1.641952 -4.846988 1.258059 0
M  V30 4 C 1.346182 -3.535929 1.563699 0
M  V30 5 C 1.744405 -2.446439 0.781235 0
M  V30 6 C 1.363401 -1.135193 1.278021 0
M  V30 7 C 0.720909 -0.167518 0.663605 0
M  V30 8 C 0.250672 -0.270481 -0.707033 0
M  V30 9 O 0.357493 -1.241471 -1.481612 0
M  V30 10 N -0.375205 0.965130 -1.022256 0
M  V30 11 N -0.301884 1.814856 0.111287 0
M  V30 12 C -0.869284 3.116907 0.027839 0
M  V30 13 C -0.337720 4.319124 -0.386880 0
M  V30 14 C -1.128557 5.450778 -0.360168 0
M  V30 15 C -2.453326 5.390869 0.079843 0
M  V30 16 Cl -3.395038 6.870227 0.085839 0
M  V30 17 C -3.005206 4.176255 0.503345 0
M  V30 18 Cl -4.672570 4.191596 1.039387 0
M  V30 19 C -2.189210 3.059518 0.465688 0
M  V30 20 C 0.368593 1.148082 1.170440 0
M  V30 21 O 0.588618 1.638491 2.298523 0
M  V30 22 C 2.460472 -2.773249 -0.325423 0
M  V30 23 C 2.776436 -4.068507 -0.665542 0
M  V30 24 C 2.371034 -5.122441 0.121685 0
M  V30 25 O 2.686766 -6.439248 -0.217536 0
M  V30 26 H -0.403927 -5.028883 2.935229 0
M  V30 27 H 0.198440 -6.579456 3.716206 0
M  V30 28 H 1.083711 -5.068200 3.936109 0
M  V30 29 H 0.767553 -3.401579 2.474209 0
M  V30 30 H 1.656945 -0.931451 2.310181 0
M  V30 31 H -0.806131 1.155369 -1.963164 0
M  V30 32 H 0.682509 4.210301 -0.693225 0
M  V30 33 H -0.638422 6.353503 -0.700026 0
M  V30 34 H -2.750954 2.183144 0.822073 0
M  V30 35 H 2.815486 -1.986220 -0.951224 0
M  V30 36 H 3.353080 -4.232180 -1.571605 0
M  V30 37 H 1.943575 -7.133341 -0.380457 0
M  V30 END ATOM
M  V30 BEGIN BOND
M  V30 1 1 1 2
M  V30 2 1 2 3
M  V30 3 2 3 4
M  V30 4 1 4 5
M  V30 5 1 5 6
M  V30 6 2 6 7
M  V30 7 1 7 8
M  V30 8 2 8 9
M  V30 9 1 8 10
M  V30 10 1 10 11
M  V30 11 1 11 12
M  V30 12 2 12 13
M  V30 13 1 13 14
M  V30 14 2 14 15
M  V30 15 1 15 16
M  V30 16 1 15 17
M  V30 17 1 17 18
M  V30 18 2 17 19
M  V30 19 1 11 20
M  V30 20 2 20 21
M  V30 21 2 5 22
M  V30 22 1 22 23
M  V30 23 2 23 24
M  V30 24 1 24 25
M  V30 25 1 24 3
M  V30 26 1 20 7
M  V30 27 1 19 12
M  V30 28 1 1 26
M  V30 29 1 1 27
M  V30 30 1 1 28
M  V30 31 1 4 29
M  V30 32 1 6 30
M  V30 33 1 10 31
M  V30 34 1 13 32
M  V30 35 1 14 33
M  V30 36 1 19 34
M  V30 37 1 22 35
M  V30 38 1 23 36
M  V30 39 1 25 37
M  V30 END BOND
M  V30 END CTAB
M  END
>  <Dataset>  (676) 
ChEMBL_Kinases

>  <Ligand_Instance>  (676) 
nan

>  <PDB_ID>  (676) 
nan

>  <Standardized_SMILES>  (676) 
COc1cc(/C=C2\C(=O)NN(c3ccc(Cl)c(Cl)c3)C2=O)ccc1O

>  <Name>  (676) 
nan

>  <Pocket>  (676) 
nan

>  <ATP_Site>  (676) 
nan

>  <Peripheral>  (676) 
nan

>  <Num_H_Atoms_ProtBoundConf>  (676) 
nan

>  <Num_Resolved_Atoms>  (676) 
nan

>  <Num_Not_Resolved_Atoms>  (676) 
nan

$$$$
CHEMBL380073
     RDKit          3D

  0  0  0  0  0  0  0  0  0  0999 V3000
M  V30 BEGIN CTAB
M  V30 COUNTS 24 25 0 0 0
M  V30 BEGIN ATOM
M  V30 1 N 0.447935 -1.532446 4.671904 0
M  V30 2 C 1.307290 -2.086869 3.683265 0
M  V30 3 O 2.088379 -3.032056 3.947455 0
M  V30 4 C 1.274070 -1.538554 2.333078 0
M  V30 5 N 0.502262 -0.533076 1.882969 0
M  V30 6 C 0.754077 -0.309235 0.575562 0
M  V30 7 C 0.106835 0.704550 -0.251401 0
M  V30 8 C 0.459431 0.827614 -1.580032 0
M  V30 9 C -0.141598 1.779145 -2.374703 0
M  V30 10 C -1.106705 2.633533 -1.876325 0
M  V30 11 Cl -1.926179 3.874911 -2.812327 0
M  V30 12 C -1.421093 2.467627 -0.543673 0
M  V30 13 C -0.851471 1.535149 0.290279 0
M  V30 14 O 1.663467 -1.163321 0.234708 0
M  V30 15 C 2.022552 -1.934732 1.244139 0
M  V30 16 N 2.968657 -2.993846 1.338905 0
M  V30 17 H -0.312998 -2.247543 4.529080 0
M  V30 18 H 0.360586 -0.763985 5.373619 0
M  V30 19 H 1.200777 0.210101 -2.065028 0
M  V30 20 H 0.118438 1.901143 -3.436871 0
M  V30 21 H -2.177411 3.113355 -0.090346 0
M  V30 22 H -1.136070 1.452623 1.318398 0
M  V30 23 H 3.682919 -2.974475 2.106257 0
M  V30 24 H 2.967989 -3.797867 0.655100 0
M  V30 END ATOM
M  V30 BEGIN BOND
M  V30 1 1 1 2
M  V30 2 2 2 3
M  V30 3 1 2 4
M  V30 4 1 4 5
M  V30 5 2 5 6
M  V30 6 1 6 7
M  V30 7 2 7 8
M  V30 8 1 8 9
M  V30 9 2 9 10
M  V30 10 1 10 11
M  V30 11 1 10 12
M  V30 12 2 12 13
M  V30 13 1 6 14
M  V30 14 1 14 15
M  V30 15 1 15 16
M  V30 16 2 15 4
M  V30 17 1 13 7
M  V30 18 1 1 17
M  V30 19 1 1 18
M  V30 20 1 8 19
M  V30 21 1 9 20
M  V30 22 1 12 21
M  V30 23 1 13 22
M  V30 24 1 16 23
M  V30 25 1 16 24
M  V30 END BOND
M  V30 END CTAB
M  END
>  <Dataset>  (677) 
ChEMBL_Kinases

>  <Ligand_Instance>  (677) 
nan

>  <PDB_ID>  (677) 
nan

>  <Standardized_SMILES>  (677) 
NC(=O)c1nc(-c2ccc(Cl)cc2)oc1N

>  <Name>  (677) 
nan

>  <Pocket>  (677) 
nan

>  <ATP_Site>  (677) 
nan

>  <Peripheral>  (677) 
nan

>  <Num_H_Atoms_ProtBoundConf>  (677) 
nan

>  <Num_Resolved_Atoms>  (677) 
nan

>  <Num_Not_Resolved_Atoms>  (677) 
nan

$$$$
CHEMBL498759
     RDKit          3D

  0  0  0  0  0  0  0  0  0  0999 V3000
M  V30 BEGIN CTAB
M  V30 COUNTS 68 72 0 0 0
M  V30 BEGIN ATOM
M  V30 1 C 6.360978 -0.039778 2.762102 0
M  V30 2 C 7.189700 -1.100370 2.149643 0
M  V30 3 C 6.677292 -1.969036 1.081643 0
M  V30 4 C 5.546041 -2.845797 1.315389 0
M  V30 5 C 4.173856 -2.334056 1.541189 0
M  V30 6 C 3.585514 -1.580485 0.362475 0
M  V30 7 N 4.207398 -0.357307 0.013416 0
M  V30 8 C 3.925968 0.117243 -1.340637 0
M  V30 9 C 2.460583 -0.053953 -1.690628 0
M  V30 10 C 1.575682 0.719726 -0.788333 0
M  V30 11 C 0.178553 0.269382 -0.666980 0
M  V30 12 C -0.236550 -1.026778 -0.527409 0
M  V30 13 C -1.537666 -1.459141 -0.402769 0
M  V30 14 N -2.514206 -0.543638 -0.416339 0
M  V30 15 C -3.851743 -0.646975 -0.315118 0
M  V30 16 C -4.611685 -1.884085 -0.153019 0
M  V30 17 C -5.532241 -2.469481 -0.958521 0
M  V30 18 C -6.100989 -3.648327 -0.553892 0
M  V30 19 N -5.766106 -4.234699 0.621808 0
M  V30 20 C -4.858406 -3.647943 1.405854 0
M  V30 21 N -4.505973 -4.278230 2.656302 0
M  V30 22 N -4.289515 -2.491590 1.025412 0
M  V30 23 C -4.394391 0.640197 -0.387859 0
M  V30 24 C -5.787203 1.053722 -0.327576 0
M  V30 25 C -6.841857 0.863066 -1.178869 0
M  V30 26 C -8.097636 1.348708 -0.904967 0
M  V30 27 C -8.378683 2.060070 0.244313 0
M  V30 28 F -9.617978 2.530859 0.500293 0
M  V30 29 C -7.318464 2.262818 1.118978 0
M  V30 30 C -6.059338 1.774536 0.842496 0
M  V30 31 N -3.340527 1.496044 -0.534522 0
M  V30 32 C -2.213647 0.761937 -0.549523 0
M  V30 33 C -0.896403 1.171903 -0.673053 0
M  V30 34 C 2.146809 0.917812 0.594288 0
M  V30 35 C 3.592445 0.751756 0.791097 0
M  V30 36 H 7.065110 0.487363 3.508615 0
M  V30 37 H 5.529242 -0.340451 3.389645 0
M  V30 38 H 6.127398 0.783494 2.037758 0
M  V30 39 H 8.115761 -0.583904 1.717547 0
M  V30 40 H 7.569320 -1.756598 3.007586 0
M  V30 41 H 7.566086 -2.618078 0.766072 0
M  V30 42 H 6.525086 -1.308120 0.148254 0
M  V30 43 H 5.518005 -3.658174 0.483935 0
M  V30 44 H 5.828050 -3.526261 2.201287 0
M  V30 45 H 3.530962 -3.281419 1.686417 0
M  V30 46 H 4.039122 -1.801890 2.482558 0
M  V30 47 H 2.503690 -1.425976 0.655007 0
M  V30 48 H 3.529111 -2.330938 -0.451716 0
M  V30 49 H 4.249389 1.175315 -1.373164 0
M  V30 50 H 4.532904 -0.474801 -2.061524 0
M  V30 51 H 2.307141 -1.141104 -1.715578 0
M  V30 52 H 2.375473 0.283267 -2.746967 0
M  V30 53 H 1.508598 1.765499 -1.195214 0
M  V30 54 H 0.492013 -1.813329 -0.513383 0
M  V30 55 H -1.803705 -2.502924 -0.295504 0
M  V30 56 H -5.719431 -1.929386 -1.853841 0
M  V30 57 H -6.827372 -4.100038 -1.199867 0
M  V30 58 H -3.537639 -4.594026 2.884482 0
M  V30 59 H -5.218188 -4.450124 3.402354 0
M  V30 60 H -6.544830 0.298921 -2.060899 0
M  V30 61 H -8.869808 1.148296 -1.639747 0
M  V30 62 H -7.554144 2.825931 2.022055 0
M  V30 63 H -5.332319 2.013167 1.621380 0
M  V30 64 H -0.671217 2.243968 -0.781366 0
M  V30 65 H 1.616233 0.251620 1.311469 0
M  V30 66 H 1.892636 1.948947 0.993249 0
M  V30 67 H 4.198700 1.635169 0.584126 0
M  V30 68 H 3.771791 0.467611 1.863057 0
M  V30 END ATOM
M  V30 BEGIN BOND
M  V30 1 1 1 2
M  V30 2 1 2 3
M  V30 3 1 3 4
M  V30 4 1 4 5
M  V30 5 1 5 6
M  V30 6 1 6 7
M  V30 7 1 7 8
M  V30 8 1 8 9
M  V30 9 1 9 10
M  V30 10 1 10 11
M  V30 11 1 11 12
M  V30 12 2 12 13
M  V30 13 1 13 14
M  V30 14 1 14 15
M  V30 15 1 15 16
M  V30 16 2 16 17
M  V30 17 1 17 18
M  V30 18 2 18 19
M  V30 19 1 19 20
M  V30 20 1 20 21
M  V30 21 2 20 22
M  V30 22 2 15 23
M  V30 23 1 23 24
M  V30 24 2 24 25
M  V30 25 1 25 26
M  V30 26 2 26 27
M  V30 27 1 27 28
M  V30 28 1 27 29
M  V30 29 2 29 30
M  V30 30 1 23 31
M  V30 31 2 31 32
M  V30 32 1 32 33
M  V30 33 1 10 34
M  V30 34 1 34 35
M  V30 35 1 35 7
M  V30 36 2 33 11
M  V30 37 1 32 14
M  V30 38 1 22 16
M  V30 39 1 30 24
M  V30 40 1 1 36
M  V30 41 1 1 37
M  V30 42 1 1 38
M  V30 43 1 2 39
M  V30 44 1 2 40
M  V30 45 1 3 41
M  V30 46 1 3 42
M  V30 47 1 4 43
M  V30 48 1 4 44
M  V30 49 1 5 45
M  V30 50 1 5 46
M  V30 51 1 6 47
M  V30 52 1 6 48
M  V30 53 1 8 49
M  V30 54 1 8 50
M  V30 55 1 9 51
M  V30 56 1 9 52
M  V30 57 1 10 53
M  V30 58 1 12 54
M  V30 59 1 13 55
M  V30 60 1 17 56
M  V30 61 1 18 57
M  V30 62 1 21 58
M  V30 63 1 21 59
M  V30 64 1 25 60
M  V30 65 1 26 61
M  V30 66 1 29 62
M  V30 67 1 30 63
M  V30 68 1 33 64
M  V30 69 1 34 65
M  V30 70 1 34 66
M  V30 71 1 35 67
M  V30 72 1 35 68
M  V30 END BOND
M  V30 END CTAB
M  END
>  <Dataset>  (678) 
ChEMBL_Kinases

>  <Ligand_Instance>  (678) 
nan

>  <PDB_ID>  (678) 
nan

>  <Standardized_SMILES>  (678) 
CCCCCCN1CCC(c2ccn3c(-c4ccnc(N)n4)c(-c4ccc(F)cc4)nc3c2)CC1

>  <Name>  (678) 
nan

>  <Pocket>  (678) 
nan

>  <ATP_Site>  (678) 
nan

>  <Peripheral>  (678) 
nan

>  <Num_H_Atoms_ProtBoundConf>  (678) 
nan

>  <Num_Resolved_Atoms>  (678) 
nan

>  <Num_Not_Resolved_Atoms>  (678) 
nan

$$$$
CHEMBL3800533
     RDKit          3D

  0  0  0  0  0  0  0  0  0  0999 V3000
M  V30 BEGIN CTAB
M  V30 COUNTS 58 62 0 0 0
M  V30 BEGIN ATOM
M  V30 1 C -0.249321 -3.494365 4.377984 0
M  V30 2 C 1.247622 -3.165526 4.366941 0
M  V30 3 C 2.013573 -4.094685 3.486732 0
M  V30 4 N 1.442946 -1.775220 4.007390 0
M  V30 5 N 1.646699 -0.778588 4.878157 0
M  V30 6 C 1.788981 0.374202 4.231447 0
M  V30 7 C 1.679380 0.162018 2.873483 0
M  V30 8 C 1.731681 0.926977 1.700867 0
M  V30 9 C 1.568838 0.338228 0.435097 0
M  V30 10 C 1.686717 1.399679 -0.551830 0
M  V30 11 C 2.710159 2.324099 -0.561594 0
M  V30 12 N 2.773771 3.289828 -1.496775 0
M  V30 13 C 1.835555 3.390584 -2.463470 0
M  V30 14 N 1.976337 4.437005 -3.410661 0
M  V30 15 C 0.785810 2.464913 -2.476697 0
M  V30 16 Cl -0.357311 2.731966 -3.802999 0
M  V30 17 C 0.704810 1.454524 -1.511634 0
M  V30 18 N -0.441473 0.659988 -1.753455 0
M  V30 19 C -1.628801 1.114730 -1.054304 0
M  V30 20 C -2.042617 0.057399 -0.028575 0
M  V30 21 C -2.264171 -1.255541 -0.734361 0
M  V30 22 C -1.681112 -2.442503 -0.041724 0
M  V30 23 C -2.648493 -3.587404 -0.322834 0
M  V30 24 N -3.899189 -2.968633 -0.701801 0
M  V30 25 C -3.735454 -1.569626 -0.627387 0
M  V30 26 O -4.690755 -0.763338 -0.493993 0
M  V30 27 C -1.957351 -1.209232 -2.188748 0
M  V30 28 C -0.695809 -0.527976 -2.581740 0
M  V30 29 C 1.358657 -1.001688 0.387377 0
M  V30 30 C 1.306505 -1.755413 1.534688 0
M  V30 31 C 1.460327 -1.216764 2.781402 0
M  V30 32 H -0.685873 -2.955644 3.512529 0
M  V30 33 H -0.412868 -4.580639 4.345806 0
M  V30 34 H -0.655514 -3.002581 5.292536 0
M  V30 35 H 1.575942 -3.320294 5.413872 0
M  V30 36 H 1.280511 -4.678999 2.878308 0
M  V30 37 H 2.814934 -3.636777 2.888191 0
M  V30 38 H 2.533826 -4.885129 4.103730 0
M  V30 39 H 1.963160 1.337871 4.669021 0
M  V30 40 H 1.910198 1.980386 1.969951 0
M  V30 41 H 3.429201 2.195002 0.232637 0
M  V30 42 H 2.830917 4.581012 -4.004489 0
M  V30 43 H 1.235022 5.147320 -3.589227 0
M  V30 44 H -1.542862 2.085447 -0.573318 0
M  V30 45 H -2.476684 1.114608 -1.798160 0
M  V30 46 H -1.325375 0.003354 0.806021 0
M  V30 47 H -2.976990 0.453660 0.420247 0
M  V30 48 H -0.753634 -2.712182 -0.624720 0
M  V30 49 H -1.494257 -2.315674 1.031832 0
M  V30 50 H -2.832110 -4.219714 0.566192 0
M  V30 51 H -2.338770 -4.222685 -1.164473 0
M  V30 52 H -4.707055 -3.558727 -0.963157 0
M  V30 53 H -2.841960 -0.722178 -2.688590 0
M  V30 54 H -1.889256 -2.283519 -2.531862 0
M  V30 55 H 0.181080 -1.155661 -2.727269 0
M  V30 56 H -0.895644 -0.074867 -3.603023 0
M  V30 57 H 1.256063 -1.329213 -0.621631 0
M  V30 58 H 1.136096 -2.801670 1.389328 0
M  V30 END ATOM
M  V30 BEGIN BOND
M  V30 1 1 1 2
M  V30 2 1 2 3
M  V30 3 1 2 4
M  V30 4 1 4 5
M  V30 5 2 5 6
M  V30 6 1 6 7
M  V30 7 2 7 8
M  V30 8 1 8 9
M  V30 9 1 9 10
M  V30 10 2 10 11
M  V30 11 1 11 12
M  V30 12 2 12 13
M  V30 13 1 13 14
M  V30 14 1 13 15
M  V30 15 1 15 16
M  V30 16 2 15 17
M  V30 17 1 17 18
M  V30 18 1 18 19
M  V30 19 1 19 20
M  V30 20 1 20 21
M  V30 21 1 21 22
M  V30 22 1 22 23
M  V30 23 1 23 24
M  V30 24 1 24 25
M  V30 25 2 25 26
M  V30 26 1 21 27
M  V30 27 1 27 28
M  V30 28 2 9 29
M  V30 29 1 29 30
M  V30 30 2 30 31
M  V30 31 1 31 4
M  V30 32 1 31 7
M  V30 33 1 17 10
M  V30 34 1 28 18
M  V30 35 1 25 21
M  V30 36 1 1 32
M  V30 37 1 1 33
M  V30 38 1 1 34
M  V30 39 1 2 35
M  V30 40 1 3 36
M  V30 41 1 3 37
M  V30 42 1 3 38
M  V30 43 1 6 39
M  V30 44 1 8 40
M  V30 45 1 11 41
M  V30 46 1 14 42
M  V30 47 1 14 43
M  V30 48 1 19 44
M  V30 49 1 19 45
M  V30 50 1 20 46
M  V30 51 1 20 47
M  V30 52 1 22 48
M  V30 53 1 22 49
M  V30 54 1 23 50
M  V30 55 1 23 51
M  V30 56 1 24 52
M  V30 57 1 27 53
M  V30 58 1 27 54
M  V30 59 1 28 55
M  V30 60 1 28 56
M  V30 61 1 29 57
M  V30 62 1 30 58
M  V30 END BOND
M  V30 END CTAB
M  END
>  <Dataset>  (679) 
ChEMBL_Kinases

>  <Ligand_Instance>  (679) 
nan

>  <PDB_ID>  (679) 
nan

>  <Standardized_SMILES>  (679) 
CC(C)n1ncc2cc(-c3cnc(N)c(Cl)c3N3CCC4(CCNC4=O)CC3)ccc21

>  <Name>  (679) 
nan

>  <Pocket>  (679) 
nan

>  <ATP_Site>  (679) 
nan

>  <Peripheral>  (679) 
nan

>  <Num_H_Atoms_ProtBoundConf>  (679) 
nan

>  <Num_Resolved_Atoms>  (679) 
nan

>  <Num_Not_Resolved_Atoms>  (679) 
nan

$$$$
CHEMBL498760
     RDKit          3D

  0  0  0  0  0  0  0  0  0  0999 V3000
M  V30 BEGIN CTAB
M  V30 COUNTS 63 68 0 0 0
M  V30 BEGIN ATOM
M  V30 1 N 3.878008 -0.248996 4.688389 0
M  V30 2 C 3.919280 0.106535 3.294615 0
M  V30 3 N 5.060874 -0.077391 2.604789 0
M  V30 4 C 5.144939 0.244616 1.287591 0
M  V30 5 C 4.046206 0.759602 0.675842 0
M  V30 6 C 2.861044 0.961548 1.350234 0
M  V30 7 C 1.591091 1.498576 0.877846 0
M  V30 8 C 1.376339 2.772777 0.450016 0
M  V30 9 C 2.274586 3.914184 0.336158 0
M  V30 10 C 3.381075 4.119055 -0.460238 0
M  V30 11 C 4.074773 5.307419 -0.376645 0
M  V30 12 C 3.718556 6.328953 0.477921 0
M  V30 13 F 4.491017 7.435018 0.452009 0
M  V30 14 C 2.602906 6.127834 1.283749 0
M  V30 15 C 1.889118 4.934607 1.213943 0
M  V30 16 N 0.064553 2.862360 0.098000 0
M  V30 17 C -0.539131 1.657717 0.302113 0
M  V30 18 C -1.857053 1.235943 0.097274 0
M  V30 19 C -2.200958 -0.087564 0.398998 0
M  V30 20 C -3.599077 -0.445385 0.165698 0
M  V30 21 C -3.733029 -1.182419 -1.153110 0
M  V30 22 C -3.094983 -2.538748 -1.134286 0
M  V30 23 N -3.517360 -3.295217 -0.023494 0
M  V30 24 C -3.741203 -4.688843 -0.221730 0
M  V30 25 C -2.587145 -5.471015 -0.667742 0
M  V30 26 C -2.289842 -5.668732 -1.999843 0
M  V30 27 C -1.178606 -6.423127 -2.391959 0
M  V30 28 C -0.342144 -6.995175 -1.454751 0
M  V30 29 C -0.667894 -6.778012 -0.120164 0
M  V30 30 C -1.764205 -6.033769 0.292748 0
M  V30 31 C -4.586680 -2.680999 0.683404 0
M  V30 32 C -4.235704 -1.303450 1.209084 0
M  V30 33 C -1.186035 -0.871823 0.881697 0
M  V30 34 C 0.114485 -0.469902 1.087956 0
M  V30 35 N 0.412068 0.826016 0.782649 0
M  V30 36 N 2.837433 0.620899 2.664591 0
M  V30 37 H 3.317124 -1.140579 4.645225 0
M  V30 38 H 4.424338 0.543427 5.098392 0
M  V30 39 H 6.038255 0.117612 0.684068 0
M  V30 40 H 3.997580 1.046393 -0.355143 0
M  V30 41 H 3.584652 3.277755 -1.093180 0
M  V30 42 H 4.941413 5.381134 -1.047910 0
M  V30 43 H 2.334060 6.939588 1.950917 0
M  V30 44 H 1.034703 4.917957 1.906296 0
M  V30 45 H -2.532445 1.971251 -0.286213 0
M  V30 46 H -4.225505 0.488236 0.032361 0
M  V30 47 H -3.337663 -0.561559 -1.996965 0
M  V30 48 H -4.812220 -1.327147 -1.429893 0
M  V30 49 H -1.967574 -2.393447 -1.133832 0
M  V30 50 H -3.365772 -3.003102 -2.122997 0
M  V30 51 H -4.244991 -5.134280 0.664183 0
M  V30 52 H -4.515451 -4.777105 -1.040688 0
M  V30 53 H -2.891427 -5.257743 -2.775670 0
M  V30 54 H -0.953180 -6.574104 -3.449058 0
M  V30 55 H 0.518265 -7.579734 -1.747742 0
M  V30 56 H -0.007237 -7.229576 0.627027 0
M  V30 57 H -1.922697 -5.929565 1.355796 0
M  V30 58 H -4.928177 -3.283104 1.567132 0
M  V30 59 H -5.456951 -2.565924 0.010617 0
M  V30 60 H -5.137418 -0.803338 1.609644 0
M  V30 61 H -3.585240 -1.475098 2.100833 0
M  V30 62 H -1.422288 -1.878264 1.123620 0
M  V30 63 H 0.843080 -1.155342 1.470122 0
M  V30 END ATOM
M  V30 BEGIN BOND
M  V30 1 1 1 2
M  V30 2 2 2 3
M  V30 3 1 3 4
M  V30 4 2 4 5
M  V30 5 1 5 6
M  V30 6 1 6 7
M  V30 7 2 7 8
M  V30 8 1 8 9
M  V30 9 2 9 10
M  V30 10 1 10 11
M  V30 11 2 11 12
M  V30 12 1 12 13
M  V30 13 1 12 14
M  V30 14 2 14 15
M  V30 15 1 8 16
M  V30 16 2 16 17
M  V30 17 1 17 18
M  V30 18 2 18 19
M  V30 19 1 19 20
M  V30 20 1 20 21
M  V30 21 1 21 22
M  V30 22 1 22 23
M  V30 23 1 23 24
M  V30 24 1 24 25
M  V30 25 2 25 26
M  V30 26 1 26 27
M  V30 27 2 27 28
M  V30 28 1 28 29
M  V30 29 2 29 30
M  V30 30 1 23 31
M  V30 31 1 31 32
M  V30 32 1 19 33
M  V30 33 2 33 34
M  V30 34 1 34 35
M  V30 35 2 6 36
M  V30 36 1 36 2
M  V30 37 1 35 7
M  V30 38 1 15 9
M  V30 39 1 35 17
M  V30 40 1 32 20
M  V30 41 1 30 25
M  V30 42 1 1 37
M  V30 43 1 1 38
M  V30 44 1 4 39
M  V30 45 1 5 40
M  V30 46 1 10 41
M  V30 47 1 11 42
M  V30 48 1 14 43
M  V30 49 1 15 44
M  V30 50 1 18 45
M  V30 51 1 20 46
M  V30 52 1 21 47
M  V30 53 1 21 48
M  V30 54 1 22 49
M  V30 55 1 22 50
M  V30 56 1 24 51
M  V30 57 1 24 52
M  V30 58 1 26 53
M  V30 59 1 27 54
M  V30 60 1 28 55
M  V30 61 1 29 56
M  V30 62 1 30 57
M  V30 63 1 31 58
M  V30 64 1 31 59
M  V30 65 1 32 60
M  V30 66 1 32 61
M  V30 67 1 33 62
M  V30 68 1 34 63
M  V30 END BOND
M  V30 END CTAB
M  END
>  <Dataset>  (680) 
ChEMBL_Kinases

>  <Ligand_Instance>  (680) 
nan

>  <PDB_ID>  (680) 
nan

>  <Standardized_SMILES>  (680) 
Nc1nccc(-c2c(-c3ccc(F)cc3)nc3cc(C4CCN(Cc5ccccc5)CC4)ccn23)n1

>  <Name>  (680) 
nan

>  <Pocket>  (680) 
nan

>  <ATP_Site>  (680) 
nan

>  <Peripheral>  (680) 
nan

>  <Num_H_Atoms_ProtBoundConf>  (680) 
nan

>  <Num_Resolved_Atoms>  (680) 
nan

>  <Num_Not_Resolved_Atoms>  (680) 
nan

$$$$
CHEMBL380044
     RDKit          3D

  0  0  0  0  0  0  0  0  0  0999 V3000
M  V30 BEGIN CTAB
M  V30 COUNTS 29 29 0 0 0
M  V30 BEGIN ATOM
M  V30 1 C -1.418769 -0.355797 3.308288 0
M  V30 2 C -0.343665 0.693113 3.384344 0
M  V30 3 N -0.159725 1.421342 2.142356 0
M  V30 4 C 0.209550 0.709962 0.967151 0
M  V30 5 N 0.401743 -0.611918 0.933982 0
M  V30 6 C 0.752511 -1.295926 -0.176705 0
M  V30 7 N 0.944889 -2.709852 -0.149977 0
M  V30 8 C 0.763430 -3.410052 1.074989 0
M  V30 9 C 0.979241 -4.870584 1.027201 0
M  V30 10 O 0.438166 -2.719516 2.075405 0
M  V30 11 C 0.922031 -0.585011 -1.346591 0
M  V30 12 C 0.749484 0.781187 -1.426119 0
M  V30 13 N 0.918142 1.537547 -2.620421 0
M  V30 14 C 0.392064 1.383185 -0.236328 0
M  V30 15 C 0.183144 2.821036 -0.201372 0
M  V30 16 N 0.005661 3.971996 -0.181334 0
M  V30 17 H -2.338900 0.032317 3.828094 0
M  V30 18 H -1.723347 -0.621948 2.286659 0
M  V30 19 H -1.137649 -1.294048 3.828891 0
M  V30 20 H 0.619812 0.120511 3.517092 0
M  V30 21 H -0.445017 1.357596 4.251136 0
M  V30 22 H -0.290877 2.439607 2.095125 0
M  V30 23 H 1.211313 -3.195928 -1.018237 0
M  V30 24 H 0.950009 -5.327651 2.042418 0
M  V30 25 H 0.157915 -5.334147 0.452308 0
M  V30 26 H 1.905946 -5.080456 0.472270 0
M  V30 27 H 1.204348 -1.102971 -2.260354 0
M  V30 28 H 1.912237 1.854850 -2.414265 0
M  V30 29 H -0.040790 1.339160 -3.007312 0
M  V30 END ATOM
M  V30 BEGIN BOND
M  V30 1 1 1 2
M  V30 2 1 2 3
M  V30 3 1 3 4
M  V30 4 2 4 5
M  V30 5 1 5 6
M  V30 6 1 6 7
M  V30 7 1 7 8
M  V30 8 1 8 9
M  V30 9 2 8 10
M  V30 10 2 6 11
M  V30 11 1 11 12
M  V30 12 1 12 13
M  V30 13 2 12 14
M  V30 14 1 14 15
M  V30 15 3 15 16
M  V30 16 1 14 4
M  V30 17 1 1 17
M  V30 18 1 1 18
M  V30 19 1 1 19
M  V30 20 1 2 20
M  V30 21 1 2 21
M  V30 22 1 3 22
M  V30 23 1 7 23
M  V30 24 1 9 24
M  V30 25 1 9 25
M  V30 26 1 9 26
M  V30 27 1 11 27
M  V30 28 1 13 28
M  V30 29 1 13 29
M  V30 END BOND
M  V30 END CTAB
M  END
>  <Dataset>  (681) 
ChEMBL_Kinases

>  <Ligand_Instance>  (681) 
nan

>  <PDB_ID>  (681) 
nan

>  <Standardized_SMILES>  (681) 
CCNc1nc(NC(C)=O)cc(N)c1C#N

>  <Name>  (681) 
nan

>  <Pocket>  (681) 
nan

>  <ATP_Site>  (681) 
nan

>  <Peripheral>  (681) 
nan

>  <Num_H_Atoms_ProtBoundConf>  (681) 
nan

>  <Num_Resolved_Atoms>  (681) 
nan

>  <Num_Not_Resolved_Atoms>  (681) 
nan

$$$$
CHEMBL3800432
     RDKit          3D

  0  0  0  0  0  0  0  0  0  0999 V3000
M  V30 BEGIN CTAB
M  V30 COUNTS 57 61 0 0 0
M  V30 BEGIN ATOM
M  V30 1 C 2.387519 -3.626206 5.644305 0
M  V30 2 N 2.713849 -3.618719 4.255370 0
M  V30 3 C 2.524847 -2.622284 3.239892 0
M  V30 4 C 1.665843 -1.553441 3.399795 0
M  V30 5 C 1.505301 -0.615268 2.407453 0
M  V30 6 C 2.185786 -0.692293 1.213876 0
M  V30 7 C 2.135229 0.180887 0.049556 0
M  V30 8 C 3.431911 0.599922 -0.288017 0
M  V30 9 N 3.740499 1.429587 -1.316685 0
M  V30 10 C 2.705956 1.878304 -2.064180 0
M  V30 11 C 1.426070 1.477845 -1.747917 0
M  V30 12 Cl 0.155612 2.115394 -2.741390 0
M  V30 13 C 1.076542 0.636552 -0.711903 0
M  V30 14 N -0.187888 0.196643 -0.336850 0
M  V30 15 C -0.769977 -1.006026 -0.778039 0
M  V30 16 C -1.917796 -0.709121 -1.693440 0
M  V30 17 C -2.915438 0.117939 -0.977947 0
M  V30 18 C -2.416489 1.208660 -0.102093 0
M  V30 19 C -1.097582 0.937684 0.557393 0
M  V30 20 O -3.712519 -0.764168 -0.169450 0
M  V30 21 C -4.942950 -0.103659 -0.019512 0
M  V30 22 O -5.722997 -0.382361 0.930422 0
M  V30 23 N -5.062168 0.850793 -1.096450 0
M  V30 24 C -3.950077 0.536399 -1.968583 0
M  V30 25 C -4.366218 -0.729551 -2.727012 0
M  V30 26 C -3.587989 1.553156 -2.960097 0
M  V30 27 C 3.042828 -1.804658 1.118937 0
M  V30 28 C 3.236612 -2.783689 2.105127 0
M  V30 29 C 4.119748 -3.968247 2.062476 0
M  V30 30 S 3.484664 -4.939161 3.409256 0
M  V30 31 O 2.450280 -5.916769 2.987058 0
M  V30 32 O 4.574647 -5.547297 4.233552 0
M  V30 33 H 3.160282 -4.077106 6.289710 0
M  V30 34 H 2.250702 -2.572744 6.001794 0
M  V30 35 H 1.390514 -4.115831 5.805094 0
M  V30 36 H 1.069619 -1.367017 4.280112 0
M  V30 37 H 0.857855 0.228354 2.503918 0
M  V30 38 H 4.363721 0.315017 0.230737 0
M  V30 39 H 2.900754 2.546549 -2.901037 0
M  V30 40 H -1.224697 -1.560673 0.098987 0
M  V30 41 H -0.103606 -1.741869 -1.241258 0
M  V30 42 H -1.524067 -0.286891 -2.640284 0
M  V30 43 H -2.393645 -1.720518 -1.895717 0
M  V30 44 H -2.335534 2.187551 -0.620085 0
M  V30 45 H -3.162517 1.373043 0.708141 0
M  V30 46 H -0.632855 1.858281 0.955558 0
M  V30 47 H -1.256348 0.263135 1.424627 0
M  V30 48 H -5.849858 1.530538 -1.059725 0
M  V30 49 H -3.660998 -0.894124 -3.569808 0
M  V30 50 H -5.386506 -0.591648 -3.173185 0
M  V30 51 H -4.429395 -1.596941 -2.044624 0
M  V30 52 H -3.272765 1.087624 -3.936383 0
M  V30 53 H -4.507809 2.141966 -3.247757 0
M  V30 54 H -2.838704 2.295658 -2.710656 0
M  V30 55 H 3.619165 -1.925233 0.186173 0
M  V30 56 H 3.935604 -4.527731 1.120329 0
M  V30 57 H 5.179445 -3.699985 2.211524 0
M  V30 END ATOM
M  V30 BEGIN BOND
M  V30 1 1 1 2
M  V30 2 1 2 3
M  V30 3 2 3 4
M  V30 4 1 4 5
M  V30 5 2 5 6
M  V30 6 1 6 7
M  V30 7 2 7 8
M  V30 8 1 8 9
M  V30 9 2 9 10
M  V30 10 1 10 11
M  V30 11 1 11 12
M  V30 12 2 11 13
M  V30 13 1 13 14
M  V30 14 1 14 15
M  V30 15 1 15 16
M  V30 16 1 16 17
M  V30 17 1 17 18
M  V30 18 1 18 19
M  V30 19 1 17 20
M  V30 20 1 20 21
M  V30 21 2 21 22
M  V30 22 1 21 23
M  V30 23 1 23 24
M  V30 24 1 24 25
M  V30 25 1 24 26
M  V30 26 1 6 27
M  V30 27 2 27 28
M  V30 28 1 28 29
M  V30 29 1 29 30
M  V30 30 2 30 31
M  V30 31 2 30 32
M  V30 32 1 30 2
M  V30 33 1 28 3
M  V30 34 1 13 7
M  V30 35 1 19 14
M  V30 36 1 24 17
M  V30 37 1 1 33
M  V30 38 1 1 34
M  V30 39 1 1 35
M  V30 40 1 4 36
M  V30 41 1 5 37
M  V30 42 1 8 38
M  V30 43 1 10 39
M  V30 44 1 15 40
M  V30 45 1 15 41
M  V30 46 1 16 42
M  V30 47 1 16 43
M  V30 48 1 18 44
M  V30 49 1 18 45
M  V30 50 1 19 46
M  V30 51 1 19 47
M  V30 52 1 23 48
M  V30 53 1 25 49
M  V30 54 1 25 50
M  V30 55 1 25 51
M  V30 56 1 26 52
M  V30 57 1 26 53
M  V30 58 1 26 54
M  V30 59 1 27 55
M  V30 60 1 29 56
M  V30 61 1 29 57
M  V30 END BOND
M  V30 END CTAB
M  END
>  <Dataset>  (682) 
ChEMBL_Kinases

>  <Ligand_Instance>  (682) 
nan

>  <PDB_ID>  (682) 
nan

>  <Standardized_SMILES>  (682) 
CN1c2ccc(-c3cncc(Cl)c3N3CCC4(CC3)OC(=O)NC4(C)C)cc2CS1(=O)=O

>  <Name>  (682) 
nan

>  <Pocket>  (682) 
nan

>  <ATP_Site>  (682) 
nan

>  <Peripheral>  (682) 
nan

>  <Num_H_Atoms_ProtBoundConf>  (682) 
nan

>  <Num_Resolved_Atoms>  (682) 
nan

>  <Num_Not_Resolved_Atoms>  (682) 
nan

$$$$
CHEMBL380196
     RDKit          3D

  0  0  0  0  0  0  0  0  0  0999 V3000
M  V30 BEGIN CTAB
M  V30 COUNTS 54 58 0 0 0
M  V30 BEGIN ATOM
M  V30 1 N -1.190338 -2.798011 -1.240624 0
M  V30 2 C -0.443552 -4.012321 -1.237393 0
M  V30 3 C 0.677698 -4.175289 -0.454078 0
M  V30 4 C 1.059427 -3.036103 0.370949 0
M  V30 5 C 1.386991 -3.350602 1.668560 0
M  V30 6 N 1.760317 -2.359568 2.528765 0
M  V30 7 C 1.791026 -1.091929 2.055787 0
M  V30 8 C 1.470496 -0.731160 0.761788 0
M  V30 9 O 1.521051 0.590861 0.333660 0
M  V30 10 C 1.924635 1.537565 1.319570 0
M  V30 11 C 1.966981 2.938940 0.828605 0 CFG=1
M  V30 12 N 2.911335 2.977635 -0.279126 0
M  V30 13 C 0.674813 3.592980 0.504245 0
M  V30 14 C -0.288118 3.724284 1.594476 0
M  V30 15 C -0.447159 4.899161 2.330140 0
M  V30 16 N -1.369101 4.762685 3.284066 0
M  V30 17 C -1.867861 3.523752 3.244114 0
M  V30 18 C -2.831506 2.825315 3.965962 0
M  V30 19 C -3.109552 1.519203 3.638777 0
M  V30 20 C -2.455912 0.860020 2.599696 0
M  V30 21 C -1.513284 1.598546 1.920963 0
M  V30 22 C -1.196712 2.908064 2.208521 0
M  V30 23 C 1.089887 -1.739836 -0.115999 0
M  V30 24 C 1.349592 -5.398484 -0.512092 0
M  V30 25 C 0.886153 -6.401460 -1.337393 0
M  V30 26 C -0.240803 -6.257713 -2.134156 0
M  V30 27 C -0.660804 -7.297481 -2.943751 0
M  V30 28 N -1.762382 -7.047784 -3.671550 0
M  V30 29 C -2.455355 -5.918413 -3.673798 0
M  V30 30 C -2.009378 -4.904306 -2.856324 0
M  V30 31 C -0.906905 -5.034260 -2.071579 0
M  V30 32 H -1.511190 -2.095356 -1.943136 0
M  V30 33 H -1.457151 -2.619596 -0.251722 0
M  V30 34 H 1.366307 -4.362203 2.060198 0
M  V30 35 H 2.093605 -0.349827 2.780677 0
M  V30 36 H 1.330388 1.470171 2.248962 0
M  V30 37 H 2.979705 1.274985 1.616250 0
M  V30 38 H 2.479825 3.526347 1.657622 0
M  V30 39 H 3.495706 3.820517 -0.197592 0
M  V30 40 H 2.338214 3.124454 -1.156860 0
M  V30 41 H 0.932528 4.620826 0.112845 0
M  V30 42 H 0.212781 3.093693 -0.383490 0
M  V30 43 H 0.079057 5.855951 2.204381 0
M  V30 44 H -1.691268 5.474650 3.979506 0
M  V30 45 H -3.342804 3.341825 4.779433 0
M  V30 46 H -3.873953 1.006608 4.231426 0
M  V30 47 H -2.717296 -0.160273 2.392342 0
M  V30 48 H -1.013003 1.087815 1.112963 0
M  V30 49 H 0.825728 -1.540331 -1.138561 0
M  V30 50 H 2.224549 -5.480029 0.120559 0
M  V30 51 H 1.423847 -7.344267 -1.366996 0
M  V30 52 H -0.130809 -8.247699 -2.982743 0
M  V30 53 H -3.337163 -5.748623 -4.270635 0
M  V30 54 H -2.538324 -3.977382 -2.827510 0
M  V30 END ATOM
M  V30 BEGIN BOND
M  V30 1 1 1 2
M  V30 2 2 2 3
M  V30 3 1 3 4
M  V30 4 2 4 5
M  V30 5 1 5 6
M  V30 6 2 6 7
M  V30 7 1 7 8
M  V30 8 1 8 9
M  V30 9 1 9 10
M  V30 10 1 10 11
M  V30 11 1 11 12
M  V30 12 1 11 13
M  V30 13 1 13 14
M  V30 14 2 14 15
M  V30 15 1 15 16
M  V30 16 1 16 17
M  V30 17 2 17 18
M  V30 18 1 18 19
M  V30 19 2 19 20
M  V30 20 1 20 21
M  V30 21 2 21 22
M  V30 22 2 8 23
M  V30 23 1 3 24
M  V30 24 2 24 25
M  V30 25 1 25 26
M  V30 26 2 26 27
M  V30 27 1 27 28
M  V30 28 2 28 29
M  V30 29 1 29 30
M  V30 30 2 30 31
M  V30 31 1 31 2
M  V30 32 1 23 4
M  V30 33 1 31 26
M  V30 34 1 22 14
M  V30 35 1 22 17
M  V30 36 1 1 32
M  V30 37 1 1 33
M  V30 38 1 5 34
M  V30 39 1 7 35
M  V30 40 1 10 36
M  V30 41 1 10 37
M  V30 42 1 11 38 CFG=1
M  V30 43 1 12 39
M  V30 44 1 12 40
M  V30 45 1 13 41
M  V30 46 1 13 42
M  V30 47 1 15 43
M  V30 48 1 16 44
M  V30 49 1 18 45
M  V30 50 1 19 46
M  V30 51 1 20 47
M  V30 52 1 21 48
M  V30 53 1 23 49
M  V30 54 1 24 50
M  V30 55 1 25 51
M  V30 56 1 27 52
M  V30 57 1 29 53
M  V30 58 1 30 54
M  V30 END BOND
M  V30 END CTAB
M  END
>  <Dataset>  (683) 
ChEMBL_Kinases

>  <Ligand_Instance>  (683) 
nan

>  <PDB_ID>  (683) 
nan

>  <Standardized_SMILES>  (683) 
Nc1c(-c2cncc(OC[C@@H](N)Cc3c[nH]c4ccccc34)c2)ccc2cnccc12

>  <Name>  (683) 
nan

>  <Pocket>  (683) 
nan

>  <ATP_Site>  (683) 
nan

>  <Peripheral>  (683) 
nan

>  <Num_H_Atoms_ProtBoundConf>  (683) 
nan

>  <Num_Resolved_Atoms>  (683) 
nan

>  <Num_Not_Resolved_Atoms>  (683) 
nan

$$$$
CHEMBL3799742
     RDKit          3D

  0  0  0  0  0  0  0  0  0  0999 V3000
M  V30 BEGIN CTAB
M  V30 COUNTS 52 56 0 0 0
M  V30 BEGIN ATOM
M  V30 1 C 2.634563 -4.969257 6.172393 0
M  V30 2 N 2.626893 -4.448891 4.802926 0
M  V30 3 C 2.268444 -3.189149 4.469534 0
M  V30 4 C 2.379460 -3.043718 3.091523 0
M  V30 5 C 2.120710 -1.904062 2.216558 0
M  V30 6 C 1.682564 -2.129922 0.929212 0
M  V30 7 C 1.425693 -1.087302 0.068126 0
M  V30 8 C 1.593344 0.255031 0.447570 0
M  V30 9 C 1.381272 1.473631 -0.284905 0
M  V30 10 C 2.650952 2.049574 -0.454140 0
M  V30 11 N 2.830711 3.194063 -1.185603 0
M  V30 12 C 1.723074 3.767036 -1.753790 0
M  V30 13 C 0.504613 3.157493 -1.551606 0
M  V30 14 Cl -0.754239 4.065888 -2.346830 0
M  V30 15 C 0.248616 2.016057 -0.833612 0
M  V30 16 N -1.001967 1.471066 -0.579477 0
M  V30 17 C -1.402459 0.437372 0.285242 0
M  V30 18 C -1.843709 -0.743059 -0.545472 0
M  V30 19 C -3.209619 -0.358044 -1.080183 0
M  V30 20 C -3.407653 1.115663 -1.117433 0
M  V30 21 C -2.168863 1.944942 -1.292752 0
M  V30 22 C -3.402980 -0.919046 -2.469172 0
M  V30 23 N -3.609604 -2.329537 -2.166095 0
M  V30 24 C -4.118757 -2.377160 -0.819939 0
M  V30 25 O -4.467657 -3.409321 -0.151255 0
M  V30 26 O -4.173028 -1.055336 -0.339524 0
M  V30 27 C 2.041743 0.422398 1.770301 0
M  V30 28 C 2.311299 -0.614906 2.668593 0
M  V30 29 C 2.817772 -4.272773 2.637930 0
M  V30 30 N 2.962115 -5.110900 3.687066 0
M  V30 31 H 3.241771 -5.870210 6.266930 0
M  V30 32 H 1.577416 -5.160288 6.507754 0
M  V30 33 H 3.026685 -4.190058 6.837334 0
M  V30 34 H 1.943330 -2.381068 5.091522 0
M  V30 35 H 1.517062 -3.120254 0.525025 0
M  V30 36 H 1.085153 -1.165451 -0.953431 0
M  V30 37 H 3.614406 1.717097 -0.069867 0
M  V30 38 H 1.911561 4.658364 -2.316574 0
M  V30 39 H -0.754988 0.193262 1.141270 0
M  V30 40 H -2.359102 0.774374 0.823722 0
M  V30 41 H -1.918323 -1.647704 0.052103 0
M  V30 42 H -1.218542 -0.871533 -1.464198 0
M  V30 43 H -3.949820 1.449323 -0.213582 0
M  V30 44 H -4.090606 1.338950 -1.963768 0
M  V30 45 H -1.984163 1.977744 -2.394196 0
M  V30 46 H -2.417720 2.955258 -0.934316 0
M  V30 47 H -2.560195 -0.736193 -3.146035 0
M  V30 48 H -4.358932 -0.465310 -2.862067 0
M  V30 49 H -3.475356 -3.221342 -2.679382 0
M  V30 50 H 2.208959 1.426124 2.178692 0
M  V30 51 H 2.653240 -0.391383 3.668112 0
M  V30 52 H 3.029204 -4.574075 1.613455 0
M  V30 END ATOM
M  V30 BEGIN BOND
M  V30 1 1 1 2
M  V30 2 1 2 3
M  V30 3 2 3 4
M  V30 4 1 4 5
M  V30 5 2 5 6
M  V30 6 1 6 7
M  V30 7 2 7 8
M  V30 8 1 8 9
M  V30 9 2 9 10
M  V30 10 1 10 11
M  V30 11 2 11 12
M  V30 12 1 12 13
M  V30 13 1 13 14
M  V30 14 2 13 15
M  V30 15 1 15 16
M  V30 16 1 16 17
M  V30 17 1 17 18
M  V30 18 1 18 19
M  V30 19 1 19 20
M  V30 20 1 20 21
M  V30 21 1 19 22
M  V30 22 1 22 23
M  V30 23 1 23 24
M  V30 24 2 24 25
M  V30 25 1 24 26
M  V30 26 1 8 27
M  V30 27 2 27 28
M  V30 28 1 4 29
M  V30 29 2 29 30
M  V30 30 1 30 2
M  V30 31 1 28 5
M  V30 32 1 15 9
M  V30 33 1 21 16
M  V30 34 1 26 19
M  V30 35 1 1 31
M  V30 36 1 1 32
M  V30 37 1 1 33
M  V30 38 1 3 34
M  V30 39 1 6 35
M  V30 40 1 7 36
M  V30 41 1 10 37
M  V30 42 1 12 38
M  V30 43 1 17 39
M  V30 44 1 17 40
M  V30 45 1 18 41
M  V30 46 1 18 42
M  V30 47 1 20 43
M  V30 48 1 20 44
M  V30 49 1 21 45
M  V30 50 1 21 46
M  V30 51 1 22 47
M  V30 52 1 22 48
M  V30 53 1 23 49
M  V30 54 1 27 50
M  V30 55 1 28 51
M  V30 56 1 29 52
M  V30 END BOND
M  V30 END CTAB
M  END
>  <Dataset>  (684) 
ChEMBL_Kinases

>  <Ligand_Instance>  (684) 
nan

>  <PDB_ID>  (684) 
nan

>  <Standardized_SMILES>  (684) 
Cn1cc(-c2ccc(-c3cncc(Cl)c3N3CCC4(CC3)CNC(=O)O4)cc2)cn1

>  <Name>  (684) 
nan

>  <Pocket>  (684) 
nan

>  <ATP_Site>  (684) 
nan

>  <Peripheral>  (684) 
nan

>  <Num_H_Atoms_ProtBoundConf>  (684) 
nan

>  <Num_Resolved_Atoms>  (684) 
nan

>  <Num_Not_Resolved_Atoms>  (684) 
nan

$$$$
CHEMBL502728
     RDKit          3D

  0  0  0  0  0  0  0  0  0  0999 V3000
M  V30 BEGIN CTAB
M  V30 COUNTS 24 25 0 0 0
M  V30 BEGIN ATOM
M  V30 1 Cl -1.559010 -1.594256 2.162988 0
M  V30 2 C -0.946778 -2.978764 1.251453 0
M  V30 3 C -0.008922 -2.624757 0.156550 0
M  V30 4 C 1.282096 -1.966033 0.522361 0
M  V30 5 N 1.137167 -0.719203 1.205358 0
M  V30 6 C 1.096684 -0.617962 2.570598 0
M  V30 7 N 0.969933 0.659413 2.978220 0
M  V30 8 C 0.922762 1.453590 1.880506 0
M  V30 9 C 0.809652 2.807367 1.649079 0
M  V30 10 Br 0.664747 3.975527 3.170345 0
M  V30 11 C 0.797451 3.345398 0.365573 0
M  V30 12 Br 0.635768 5.234143 0.164944 0
M  V30 13 C 0.907697 2.428266 -0.686389 0
M  V30 14 Br 0.885735 3.224998 -2.417003 0
M  V30 15 C 1.017998 1.098129 -0.435399 0
M  V30 16 Br 1.184094 0.040720 -2.008308 0
M  V30 17 C 1.028927 0.565208 0.833035 0
M  V30 18 H -0.549288 -3.771872 1.931669 0
M  V30 19 H -1.868113 -3.463374 0.809226 0
M  V30 20 H 0.179431 -3.572079 -0.452202 0
M  V30 21 H -0.549327 -1.987852 -0.616556 0
M  V30 22 H 1.826259 -2.704166 1.185759 0
M  V30 23 H 1.835845 -1.868545 -0.441088 0
M  V30 24 H 1.151330 -1.372152 3.373293 0
M  V30 END ATOM
M  V30 BEGIN BOND
M  V30 1 1 1 2
M  V30 2 1 2 3
M  V30 3 1 3 4
M  V30 4 1 4 5
M  V30 5 1 5 6
M  V30 6 2 6 7
M  V30 7 1 7 8
M  V30 8 2 8 9
M  V30 9 1 9 10
M  V30 10 1 9 11
M  V30 11 1 11 12
M  V30 12 2 11 13
M  V30 13 1 13 14
M  V30 14 1 13 15
M  V30 15 1 15 16
M  V30 16 2 15 17
M  V30 17 1 17 5
M  V30 18 1 17 8
M  V30 19 1 2 18
M  V30 20 1 2 19
M  V30 21 1 3 20
M  V30 22 1 3 21
M  V30 23 1 4 22
M  V30 24 1 4 23
M  V30 25 1 6 24
M  V30 END BOND
M  V30 END CTAB
M  END
>  <Dataset>  (685) 
ChEMBL_Kinases

>  <Ligand_Instance>  (685) 
nan

>  <PDB_ID>  (685) 
nan

>  <Standardized_SMILES>  (685) 
ClCCCn1cnc2c(Br)c(Br)c(Br)c(Br)c21

>  <Name>  (685) 
nan

>  <Pocket>  (685) 
nan

>  <ATP_Site>  (685) 
nan

>  <Peripheral>  (685) 
nan

>  <Num_H_Atoms_ProtBoundConf>  (685) 
nan

>  <Num_Resolved_Atoms>  (685) 
nan

>  <Num_Not_Resolved_Atoms>  (685) 
nan

$$$$
CHEMBL3799679
     RDKit          3D

  0  0  0  0  0  0  0  0  0  0999 V3000
M  V30 BEGIN CTAB
M  V30 COUNTS 55 59 0 0 0
M  V30 BEGIN ATOM
M  V30 1 C 6.492996 -3.783631 0.947036 0
M  V30 2 N 5.810107 -2.767361 0.164113 0
M  V30 3 C 4.629846 -2.168797 0.404035 0
M  V30 4 C 4.390170 -1.268839 -0.615690 0
M  V30 5 C 3.209381 -0.417499 -0.722186 0
M  V30 6 C 2.666300 -0.013467 0.497669 0
M  V30 7 C 1.565586 0.779372 0.526287 0
M  V30 8 C 0.911229 1.238189 -0.590030 0
M  V30 9 C -0.271849 2.068798 -0.728117 0
M  V30 10 C -0.083715 3.165276 -1.578203 0
M  V30 11 N -1.034918 4.092832 -1.858602 0
M  V30 12 C -2.272598 3.987668 -1.295001 0
M  V30 13 C -2.452668 2.907544 -0.459771 0
M  V30 14 Cl -4.040751 2.783663 0.263321 0
M  V30 15 C -1.504383 1.954889 -0.161087 0
M  V30 16 N -1.721973 0.843255 0.701369 0
M  V30 17 C -1.601374 0.565499 2.095332 0
M  V30 18 C -2.809082 -0.074753 2.729846 0
M  V30 19 C -3.216628 -1.335720 2.025160 0
M  V30 20 C -3.451674 -0.926614 0.570313 0
M  V30 21 C -2.173590 -0.353988 0.064436 0
M  V30 22 N -4.371101 -1.913768 2.630422 0
M  V30 23 C -4.614813 -3.321651 2.443728 0
M  V30 24 O -5.497602 -3.928132 3.133652 0
M  V30 25 C -3.835481 -4.116488 1.430104 0
M  V30 26 N -2.468942 -3.580507 1.410091 0
M  V30 27 C -2.094482 -2.333336 2.032919 0
M  V30 28 O -0.894961 -2.373970 2.444025 0
M  V30 29 C 1.473158 0.821150 -1.804386 0
M  V30 30 C 2.590961 0.015807 -1.870618 0
M  V30 31 C 5.467846 -1.341640 -1.484706 0
M  V30 32 N 6.297400 -2.267227 -0.960352 0
M  V30 33 H 5.803931 -4.295926 1.633322 0
M  V30 34 H 7.209433 -3.226440 1.617581 0
M  V30 35 H 7.110385 -4.439543 0.320978 0
M  V30 36 H 4.020131 -2.405871 1.278709 0
M  V30 37 H 3.075912 -0.298943 1.442349 0
M  V30 38 H 1.128888 1.114845 1.453258 0
M  V30 39 H 0.829556 3.413437 -2.114080 0
M  V30 40 H -3.050405 4.710010 -1.497787 0
M  V30 41 H -0.733214 -0.046519 2.391178 0
M  V30 42 H -1.467967 1.547344 2.613681 0
M  V30 43 H -2.587806 -0.358407 3.778014 0
M  V30 44 H -3.697266 0.590258 2.755354 0
M  V30 45 H -3.705039 -1.811581 -0.048177 0
M  V30 46 H -4.246395 -0.171191 0.569046 0
M  V30 47 H -2.220165 -0.275024 -1.060958 0
M  V30 48 H -1.385444 -1.149348 0.224459 0
M  V30 49 H -5.049019 -1.347450 3.207299 0
M  V30 50 H -3.743617 -5.173209 1.755983 0
M  V30 51 H -4.306427 -4.082602 0.433391 0
M  V30 52 H -1.792641 -4.203418 0.892785 0
M  V30 53 H 1.059064 1.108951 -2.765224 0
M  V30 54 H 3.041233 -0.317947 -2.791279 0
M  V30 55 H 5.559563 -0.758912 -2.367741 0
M  V30 END ATOM
M  V30 BEGIN BOND
M  V30 1 1 1 2
M  V30 2 1 2 3
M  V30 3 2 3 4
M  V30 4 1 4 5
M  V30 5 2 5 6
M  V30 6 1 6 7
M  V30 7 2 7 8
M  V30 8 1 8 9
M  V30 9 2 9 10
M  V30 10 1 10 11
M  V30 11 2 11 12
M  V30 12 1 12 13
M  V30 13 1 13 14
M  V30 14 2 13 15
M  V30 15 1 15 16
M  V30 16 1 16 17
M  V30 17 1 17 18
M  V30 18 1 18 19
M  V30 19 1 19 20
M  V30 20 1 20 21
M  V30 21 1 19 22
M  V30 22 1 22 23
M  V30 23 2 23 24
M  V30 24 1 23 25
M  V30 25 1 25 26
M  V30 26 1 26 27
M  V30 27 2 27 28
M  V30 28 1 8 29
M  V30 29 2 29 30
M  V30 30 1 4 31
M  V30 31 2 31 32
M  V30 32 1 32 2
M  V30 33 1 30 5
M  V30 34 1 15 9
M  V30 35 1 21 16
M  V30 36 1 27 19
M  V30 37 1 1 33
M  V30 38 1 1 34
M  V30 39 1 1 35
M  V30 40 1 3 36
M  V30 41 1 6 37
M  V30 42 1 7 38
M  V30 43 1 10 39
M  V30 44 1 12 40
M  V30 45 1 17 41
M  V30 46 1 17 42
M  V30 47 1 18 43
M  V30 48 1 18 44
M  V30 49 1 20 45
M  V30 50 1 20 46
M  V30 51 1 21 47
M  V30 52 1 21 48
M  V30 53 1 22 49
M  V30 54 1 25 50
M  V30 55 1 25 51
M  V30 56 1 26 52
M  V30 57 1 29 53
M  V30 58 1 30 54
M  V30 59 1 31 55
M  V30 END BOND
M  V30 END CTAB
M  END
>  <Dataset>  (686) 
ChEMBL_Kinases

>  <Ligand_Instance>  (686) 
nan

>  <PDB_ID>  (686) 
nan

>  <Standardized_SMILES>  (686) 
Cn1cc(-c2ccc(-c3cncc(Cl)c3N3CCC4(CC3)NC(=O)CNC4=O)cc2)cn1

>  <Name>  (686) 
nan

>  <Pocket>  (686) 
nan

>  <ATP_Site>  (686) 
nan

>  <Peripheral>  (686) 
nan

>  <Num_H_Atoms_ProtBoundConf>  (686) 
nan

>  <Num_Resolved_Atoms>  (686) 
nan

>  <Num_Not_Resolved_Atoms>  (686) 
nan

$$$$
CHEMBL503469
     RDKit          3D

  0  0  0  0  0  0  0  0  0  0999 V3000
M  V30 BEGIN CTAB
M  V30 COUNTS 41 45 0 0 0
M  V30 BEGIN ATOM
M  V30 1 C -1.044928 -3.691494 4.282166 0
M  V30 2 N -0.531300 -2.952474 3.117335 0
M  V30 3 C -0.752452 -3.219038 1.818810 0
M  V30 4 C -0.083651 -2.284471 1.058959 0
M  V30 5 C 0.001933 -2.158422 -0.399675 0
M  V30 6 C -0.103213 -1.195710 -1.318020 0
M  V30 7 C -0.388460 0.200070 -0.915682 0
M  V30 8 C -1.374534 0.510057 0.009472 0
M  V30 9 O -1.412255 1.803270 0.217228 0
M  V30 10 C -0.486241 2.396817 -0.532285 0
M  V30 11 C -0.077160 3.705856 -0.719023 0
M  V30 12 C 0.954888 3.946243 -1.607682 0
M  V30 13 C 1.597257 2.972373 -2.314191 0
M  V30 14 C 1.197881 1.647225 -2.138517 0
M  V30 15 C 0.167435 1.418174 -1.250241 0
M  V30 16 C 0.099227 -1.760217 -2.654863 0
M  V30 17 O 0.053190 -1.065739 -3.716250 0
M  V30 18 N 0.341672 -3.156634 -2.509819 0
M  V30 19 C 0.281686 -3.412264 -1.109828 0
M  V30 20 O 0.476552 -4.624542 -0.777064 0
M  V30 21 C 0.536897 -1.463911 2.007750 0
M  V30 22 C 1.350413 -0.365244 1.889025 0
M  V30 23 C 1.888765 0.328641 2.974800 0
M  V30 24 C 1.583332 -0.119888 4.262533 0
M  V30 25 O 2.131751 0.586231 5.335062 0
M  V30 26 C 0.763013 -1.229124 4.389893 0
M  V30 27 C 0.246995 -1.893092 3.285707 0
M  V30 28 H -0.186975 -3.968490 4.960324 0
M  V30 29 H -1.700582 -3.027617 4.888562 0
M  V30 30 H -1.527075 -4.642190 3.994662 0
M  V30 31 H -1.351353 -4.028067 1.419589 0
M  V30 32 H -2.091972 -0.116152 0.567536 0
M  V30 33 H -0.601822 4.435761 -0.147507 0
M  V30 34 H 1.217074 4.994209 -1.696156 0
M  V30 35 H 2.415880 3.205070 -3.009925 0
M  V30 36 H 1.693664 0.846108 -2.680468 0
M  V30 37 H 0.509197 -3.717892 -3.367619 0
M  V30 38 H 1.658138 0.054998 0.962862 0
M  V30 39 H 2.529260 1.195731 2.877931 0
M  V30 40 H 3.014681 0.287177 5.707004 0
M  V30 41 H 0.556028 -1.537392 5.392686 0
M  V30 END ATOM
M  V30 BEGIN BOND
M  V30 1 1 1 2
M  V30 2 1 2 3
M  V30 3 2 3 4
M  V30 4 1 4 5
M  V30 5 2 5 6
M  V30 6 1 6 7
M  V30 7 2 7 8
M  V30 8 1 8 9
M  V30 9 1 9 10
M  V30 10 2 10 11
M  V30 11 1 11 12
M  V30 12 2 12 13
M  V30 13 1 13 14
M  V30 14 2 14 15
M  V30 15 1 6 16
M  V30 16 2 16 17
M  V30 17 1 16 18
M  V30 18 1 18 19
M  V30 19 2 19 20
M  V30 20 1 4 21
M  V30 21 2 21 22
M  V30 22 1 22 23
M  V30 23 2 23 24
M  V30 24 1 24 25
M  V30 25 1 24 26
M  V30 26 2 26 27
M  V30 27 1 27 2
M  V30 28 1 19 5
M  V30 29 1 27 21
M  V30 30 1 15 7
M  V30 31 1 15 10
M  V30 32 1 1 28
M  V30 33 1 1 29
M  V30 34 1 1 30
M  V30 35 1 3 31
M  V30 36 1 8 32
M  V30 37 1 11 33
M  V30 38 1 12 34
M  V30 39 1 13 35
M  V30 40 1 14 36
M  V30 41 1 18 37
M  V30 42 1 22 38
M  V30 43 1 23 39
M  V30 44 1 25 40
M  V30 45 1 26 41
M  V30 END BOND
M  V30 END CTAB
M  END
>  <Dataset>  (687) 
ChEMBL_Kinases

>  <Ligand_Instance>  (687) 
nan

>  <PDB_ID>  (687) 
nan

>  <Standardized_SMILES>  (687) 
Cn1cc(C2=C(c3coc4ccccc34)C(=O)NC2=O)c2ccc(O)cc21

>  <Name>  (687) 
nan

>  <Pocket>  (687) 
nan

>  <ATP_Site>  (687) 
nan

>  <Peripheral>  (687) 
nan

>  <Num_H_Atoms_ProtBoundConf>  (687) 
nan

>  <Num_Resolved_Atoms>  (687) 
nan

>  <Num_Not_Resolved_Atoms>  (687) 
nan

$$$$
CHEMBL503641
     RDKit          3D

  0  0  0  0  0  0  0  0  0  0999 V3000
M  V30 BEGIN CTAB
M  V30 COUNTS 22 23 0 0 0
M  V30 BEGIN ATOM
M  V30 1 C 1.766031 0.405497 4.837880 0
M  V30 2 C 1.194505 0.582497 3.488221 0
M  V30 3 O 0.723157 1.717521 3.244137 0
M  V30 4 N 1.146352 -0.407119 2.491890 0
M  V30 5 C 0.626327 -0.346077 1.175966 0
M  V30 6 C 0.700766 -1.470203 0.384218 0
M  V30 7 C 0.215630 -1.484561 -0.906094 0
M  V30 8 C -0.371450 -0.374178 -1.476562 0
M  V30 9 N -0.913560 -0.114071 -2.675736 0
M  V30 10 N -1.337553 1.153426 -2.678619 0
M  V30 11 C -1.071834 1.723809 -1.477599 0
M  V30 12 C -0.456228 0.763213 -0.700383 0
M  V30 13 C 0.037987 0.743158 0.583602 0
M  V30 14 H 1.011167 0.247224 5.633015 0
M  V30 15 H 2.506953 -0.437529 4.844273 0
M  V30 16 H 2.377764 1.313502 5.058558 0
M  V30 17 H 1.572196 -1.298366 2.830324 0
M  V30 18 H 1.160374 -2.381404 0.793975 0
M  V30 19 H 0.318423 -2.411650 -1.450022 0
M  V30 20 H -0.964182 -0.828217 -3.436597 0
M  V30 21 H -1.293781 2.746186 -1.163757 0
M  V30 22 H -0.062517 1.649758 1.115569 0
M  V30 END ATOM
M  V30 BEGIN BOND
M  V30 1 1 1 2
M  V30 2 2 2 3
M  V30 3 1 2 4
M  V30 4 1 4 5
M  V30 5 2 5 6
M  V30 6 1 6 7
M  V30 7 2 7 8
M  V30 8 1 8 9
M  V30 9 1 9 10
M  V30 10 2 10 11
M  V30 11 1 11 12
M  V30 12 2 12 13
M  V30 13 1 13 5
M  V30 14 1 12 8
M  V30 15 1 1 14
M  V30 16 1 1 15
M  V30 17 1 1 16
M  V30 18 1 4 17
M  V30 19 1 6 18
M  V30 20 1 7 19
M  V30 21 1 9 20
M  V30 22 1 11 21
M  V30 23 1 13 22
M  V30 END BOND
M  V30 END CTAB
M  END
>  <Dataset>  (688) 
ChEMBL_Kinases

>  <Ligand_Instance>  (688) 
nan

>  <PDB_ID>  (688) 
nan

>  <Standardized_SMILES>  (688) 
CC(=O)Nc1ccc2[nH]ncc2c1

>  <Name>  (688) 
nan

>  <Pocket>  (688) 
nan

>  <ATP_Site>  (688) 
nan

>  <Peripheral>  (688) 
nan

>  <Num_H_Atoms_ProtBoundConf>  (688) 
nan

>  <Num_Resolved_Atoms>  (688) 
nan

>  <Num_Not_Resolved_Atoms>  (688) 
nan

$$$$
CHEMBL503729
     RDKit          3D

  0  0  0  0  0  0  0  0  0  0999 V3000
M  V30 BEGIN CTAB
M  V30 COUNTS 42 43 0 0 0
M  V30 BEGIN ATOM
M  V30 1 C -0.162502 -5.091675 0.369126 0
M  V30 2 C -0.112459 -4.626829 1.806426 0
M  V30 3 C -1.449410 -3.994551 2.100591 0
M  V30 4 C 1.013247 -3.669127 1.974167 0
M  V30 5 O 1.953377 -3.889583 2.760928 0
M  V30 6 O 0.889302 -2.569685 1.193258 0
M  V30 7 C 1.713072 -1.463426 1.072121 0
M  V30 8 C 1.860048 -0.554336 2.243541 0
M  V30 9 C 2.660505 -1.014064 3.395468 0
M  V30 10 O 3.904772 -1.519149 2.982414 0
M  V30 11 C 2.429209 0.819717 1.733822 0
M  V30 12 C 1.298430 1.282776 0.923583 0
M  V30 13 C 1.133764 2.090738 -0.111818 0
M  V30 14 C -0.030275 2.511797 -0.871078 0
M  V30 15 C 0.097495 2.380628 -2.260098 0
M  V30 16 C -0.872370 2.739460 -3.169910 0
M  V30 17 C -2.039051 3.261447 -2.639096 0
M  V30 18 F -3.044448 3.636538 -3.481499 0
M  V30 19 C -2.229604 3.417036 -1.283574 0
M  V30 20 Br -3.821797 4.130608 -0.544997 0
M  V30 21 C -1.205573 3.031383 -0.447301 0
M  V30 22 C 0.102652 0.585447 1.443197 0
M  V30 23 O -1.091928 0.558155 0.983439 0
M  V30 24 O 0.552989 -0.068924 2.588778 0
M  V30 25 H -0.932699 -5.881292 0.301101 0
M  V30 26 H -0.443887 -4.224914 -0.276987 0
M  V30 27 H 0.836605 -5.496409 0.113613 0
M  V30 28 H 0.004252 -5.493704 2.484990 0
M  V30 29 H -1.830129 -4.219960 3.119373 0
M  V30 30 H -1.430273 -2.891686 2.010441 0
M  V30 31 H -2.223434 -4.334142 1.374312 0
M  V30 32 H 1.362513 -0.870192 0.169134 0
M  V30 33 H 2.749749 -1.799347 0.698589 0
M  V30 34 H 2.953991 -0.092619 4.025594 0
M  V30 35 H 2.142837 -1.657151 4.124449 0
M  V30 36 H 4.112667 -1.080100 2.121424 0
M  V30 37 H 2.658241 1.412771 2.625601 0
M  V30 38 H 3.340848 0.557352 1.198091 0
M  V30 39 H 2.084125 2.530786 -0.463486 0
M  V30 40 H 1.007732 1.972110 -2.717980 0
M  V30 41 H -0.737964 2.626194 -4.231026 0
M  V30 42 H -1.339726 3.165374 0.592993 0
M  V30 END ATOM
M  V30 BEGIN BOND
M  V30 1 1 1 2
M  V30 2 1 2 3
M  V30 3 1 2 4
M  V30 4 2 4 5
M  V30 5 1 4 6
M  V30 6 1 6 7
M  V30 7 1 7 8
M  V30 8 1 8 9
M  V30 9 1 9 10
M  V30 10 1 8 11
M  V30 11 1 11 12
M  V30 12 2 12 13
M  V30 13 1 13 14
M  V30 14 2 14 15
M  V30 15 1 15 16
M  V30 16 2 16 17
M  V30 17 1 17 18
M  V30 18 1 17 19
M  V30 19 1 19 20
M  V30 20 2 19 21
M  V30 21 1 12 22
M  V30 22 2 22 23
M  V30 23 1 22 24
M  V30 24 1 24 8
M  V30 25 1 21 14
M  V30 26 1 1 25
M  V30 27 1 1 26
M  V30 28 1 1 27
M  V30 29 1 2 28
M  V30 30 1 3 29
M  V30 31 1 3 30
M  V30 32 1 3 31
M  V30 33 1 7 32
M  V30 34 1 7 33
M  V30 35 1 9 34
M  V30 36 1 9 35
M  V30 37 1 10 36
M  V30 38 1 11 37
M  V30 39 1 11 38
M  V30 40 1 13 39
M  V30 41 1 15 40
M  V30 42 1 16 41
M  V30 43 1 21 42
M  V30 END BOND
M  V30 END CTAB
M  END
>  <Dataset>  (689) 
ChEMBL_Kinases

>  <Ligand_Instance>  (689) 
nan

>  <PDB_ID>  (689) 
nan

>  <Standardized_SMILES>  (689) 
CC(C)C(=O)OCC1(CO)C/C(=C/c2ccc(F)c(Br)c2)C(=O)O1

>  <Name>  (689) 
nan

>  <Pocket>  (689) 
nan

>  <ATP_Site>  (689) 
nan

>  <Peripheral>  (689) 
nan

>  <Num_H_Atoms_ProtBoundConf>  (689) 
nan

>  <Num_Resolved_Atoms>  (689) 
nan

>  <Num_Not_Resolved_Atoms>  (689) 
nan

$$$$
CHEMBL3799665
     RDKit          3D

  0  0  0  0  0  0  0  0  0  0999 V3000
M  V30 BEGIN CTAB
M  V30 COUNTS 42 45 0 0 0
M  V30 BEGIN ATOM
M  V30 1 C 0.301224 -3.240930 0.343044 0
M  V30 2 C 1.163172 -2.707572 1.481703 0
M  V30 3 C 1.557110 -3.941464 2.307937 0
M  V30 4 C 2.426335 -2.118794 0.979681 0
M  V30 5 C 2.371178 -0.612958 0.969569 0
M  V30 6 O 3.465410 -0.023516 0.738740 0
M  V30 7 C 1.107317 0.073266 1.217009 0
M  V30 8 C 0.997913 1.362777 0.729060 0
M  V30 9 S 1.738792 2.628018 -0.267776 0
M  V30 10 C 1.179540 2.793176 -1.925036 0
M  V30 11 C 1.477943 1.747556 -2.939529 0
M  V30 12 C 2.996529 1.530255 -3.150568 0
M  V30 13 C 2.132042 0.432538 -2.656492 0
M  V30 14 S -0.613147 1.836568 1.337040 0
M  V30 15 C -0.988350 0.295397 2.170213 0
M  V30 16 C -2.266013 0.128973 2.880820 0
M  V30 17 C -2.788999 -0.870509 3.634244 0
M  V30 18 C -4.056514 -0.589985 4.096898 0
M  V30 19 N -4.262817 0.629916 3.580266 0
M  V30 20 N -3.253101 1.075128 2.874860 0
M  V30 21 C 0.107733 -0.461866 1.938690 0
M  V30 22 C 0.331494 -1.857426 2.388405 0
M  V30 23 H 0.689811 -2.843829 -0.626671 0
M  V30 24 H 0.318819 -4.337802 0.272655 0
M  V30 25 H -0.740464 -2.877925 0.476949 0
M  V30 26 H 1.603682 -4.847283 1.664150 0
M  V30 27 H 2.590465 -3.801590 2.710286 0
M  V30 28 H 0.897568 -4.087457 3.175901 0
M  V30 29 H 2.505143 -2.378447 -0.118398 0
M  V30 30 H 3.339234 -2.489895 1.472610 0
M  V30 31 H 1.590760 3.761573 -2.384695 0
M  V30 32 H 0.046754 3.033330 -1.955303 0
M  V30 33 H 0.892510 1.784930 -3.904345 0
M  V30 34 H 3.357558 1.501849 -4.187021 0
M  V30 35 H 3.690087 1.946930 -2.400519 0
M  V30 36 H 2.066327 0.133708 -1.601544 0
M  V30 37 H 1.943548 -0.385224 -3.417731 0
M  V30 38 H -2.306227 -1.782624 3.874287 0
M  V30 39 H -4.727182 -1.154164 4.700404 0
M  V30 40 H -5.109725 1.263915 3.664649 0
M  V30 41 H 0.740258 -1.922939 3.430670 0
M  V30 42 H -0.648822 -2.418147 2.456600 0
M  V30 END ATOM
M  V30 BEGIN BOND
M  V30 1 1 1 2
M  V30 2 1 2 3
M  V30 3 1 2 4
M  V30 4 1 4 5
M  V30 5 2 5 6
M  V30 6 1 5 7
M  V30 7 2 7 8
M  V30 8 1 8 9
M  V30 9 1 9 10
M  V30 10 1 10 11
M  V30 11 1 11 12
M  V30 12 1 12 13
M  V30 13 1 8 14
M  V30 14 1 14 15
M  V30 15 1 15 16
M  V30 16 1 16 17
M  V30 17 2 17 18
M  V30 18 1 18 19
M  V30 19 1 19 20
M  V30 20 2 15 21
M  V30 21 1 21 22
M  V30 22 1 22 2
M  V30 23 1 21 7
M  V30 24 1 13 11
M  V30 25 2 20 16
M  V30 26 1 1 23
M  V30 27 1 1 24
M  V30 28 1 1 25
M  V30 29 1 3 26
M  V30 30 1 3 27
M  V30 31 1 3 28
M  V30 32 1 4 29
M  V30 33 1 4 30
M  V30 34 1 10 31
M  V30 35 1 10 32
M  V30 36 1 11 33
M  V30 37 1 12 34
M  V30 38 1 12 35
M  V30 39 1 13 36
M  V30 40 1 13 37
M  V30 41 1 17 38
M  V30 42 1 18 39
M  V30 43 1 19 40
M  V30 44 1 22 41
M  V30 45 1 22 42
M  V30 END BOND
M  V30 END CTAB
M  END
>  <Dataset>  (690) 
ChEMBL_Kinases

>  <Ligand_Instance>  (690) 
nan

>  <PDB_ID>  (690) 
nan

>  <Standardized_SMILES>  (690) 
CC1(C)CC(=O)c2c(SCC3CC3)sc(-c3cc[nH]n3)c2C1

>  <Name>  (690) 
nan

>  <Pocket>  (690) 
nan

>  <ATP_Site>  (690) 
nan

>  <Peripheral>  (690) 
nan

>  <Num_H_Atoms_ProtBoundConf>  (690) 
nan

>  <Num_Resolved_Atoms>  (690) 
nan

>  <Num_Not_Resolved_Atoms>  (690) 
nan

$$$$
CHEMBL3799663
     RDKit          3D

  0  0  0  0  0  0  0  0  0  0999 V3000
M  V30 BEGIN CTAB
M  V30 COUNTS 46 49 0 0 0
M  V30 BEGIN ATOM
M  V30 1 O 0.531708 -0.838776 -0.701116 0
M  V30 2 C 0.421927 0.110806 0.120075 0
M  V30 3 N 1.199981 1.263441 -0.181469 0
M  V30 4 C 2.061192 1.372335 -1.332213 0
M  V30 5 C 1.559367 2.424712 -2.308945 0
M  V30 6 O 0.281970 2.099257 -2.759699 0
M  V30 7 C 3.485439 1.537394 -1.021390 0
M  V30 8 C 3.727063 2.463739 -0.020562 0
M  V30 9 C 5.007531 2.753486 0.408079 0
M  V30 10 C 6.101453 2.118607 -0.157011 0
M  V30 11 C 5.852706 1.188455 -1.162541 0
M  V30 12 Cl 7.167304 0.312053 -1.961353 0
M  V30 13 C 4.581862 0.892043 -1.597294 0
M  V30 14 C -0.439240 0.043331 1.299733 0
M  V30 15 C -0.588216 1.059702 2.223320 0
M  V30 16 C -1.418376 0.921608 3.309375 0
M  V30 17 C -2.121710 -0.232771 3.503461 0
M  V30 18 N -2.997755 -0.703443 4.422116 0
M  V30 19 N -3.391909 -1.939547 4.118521 0
M  V30 20 C -2.775736 -2.327591 2.969094 0
M  V30 21 C -2.973282 -3.628005 2.340397 0
M  V30 22 C -1.998541 -4.459768 1.830893 0
M  V30 23 C -2.358315 -5.667873 1.264004 0
M  V30 24 C -3.679162 -6.054870 1.199979 0
M  V30 25 C -4.667419 -5.230103 1.707316 0
M  V30 26 C -4.299287 -4.042365 2.263239 0
M  V30 27 C -1.982872 -1.264742 2.583399 0
M  V30 28 C -1.149381 -1.126077 1.492997 0
M  V30 29 H 1.175452 2.102325 0.440772 0
M  V30 30 H 1.978655 0.403955 -1.892588 0
M  V30 31 H 1.435207 3.350852 -1.679556 0
M  V30 32 H 2.225239 2.558187 -3.159915 0
M  V30 33 H 0.317586 1.170305 -3.119708 0
M  V30 34 H 2.991983 3.045494 0.522889 0
M  V30 35 H 5.272703 3.462996 1.182332 0
M  V30 36 H 7.110679 2.302915 0.134337 0
M  V30 37 H 4.316999 0.193705 -2.359722 0
M  V30 38 H -0.041020 1.959094 2.073220 0
M  V30 39 H -1.527892 1.729824 4.031052 0
M  V30 40 H -3.274813 -0.116534 5.227598 0
M  V30 41 H -0.975118 -4.086457 1.917108 0
M  V30 42 H -1.530501 -6.244457 0.895979 0
M  V30 43 H -3.858702 -7.007416 0.742858 0
M  V30 44 H -5.696886 -5.547541 1.649538 0
M  V30 45 H -5.120351 -3.426724 2.650064 0
M  V30 46 H -1.049228 -1.942030 0.779236 0
M  V30 END ATOM
M  V30 BEGIN BOND
M  V30 1 2 1 2
M  V30 2 1 2 3
M  V30 3 1 3 4
M  V30 4 1 4 5
M  V30 5 1 5 6
M  V30 6 1 4 7
M  V30 7 2 7 8
M  V30 8 1 8 9
M  V30 9 2 9 10
M  V30 10 1 10 11
M  V30 11 1 11 12
M  V30 12 2 11 13
M  V30 13 1 2 14
M  V30 14 2 14 15
M  V30 15 1 15 16
M  V30 16 2 16 17
M  V30 17 1 17 18
M  V30 18 1 18 19
M  V30 19 2 19 20
M  V30 20 1 20 21
M  V30 21 2 21 22
M  V30 22 1 22 23
M  V30 23 2 23 24
M  V30 24 1 24 25
M  V30 25 2 25 26
M  V30 26 1 20 27
M  V30 27 2 27 28
M  V30 28 1 13 7
M  V30 29 1 28 14
M  V30 30 1 27 17
M  V30 31 1 26 21
M  V30 32 1 3 29
M  V30 33 1 4 30
M  V30 34 1 5 31
M  V30 35 1 5 32
M  V30 36 1 6 33
M  V30 37 1 8 34
M  V30 38 1 9 35
M  V30 39 1 10 36
M  V30 40 1 13 37
M  V30 41 1 15 38
M  V30 42 1 16 39
M  V30 43 1 18 40
M  V30 44 1 22 41
M  V30 45 1 23 42
M  V30 46 1 24 43
M  V30 47 1 25 44
M  V30 48 1 26 45
M  V30 49 1 28 46
M  V30 END BOND
M  V30 END CTAB
M  END
>  <Dataset>  (691) 
ChEMBL_Kinases

>  <Ligand_Instance>  (691) 
nan

>  <PDB_ID>  (691) 
nan

>  <Standardized_SMILES>  (691) 
O=C(NC(CO)c1cccc(Cl)c1)c1ccc2[nH]nc(-c3ccccc3)c2c1

>  <Name>  (691) 
nan

>  <Pocket>  (691) 
nan

>  <ATP_Site>  (691) 
nan

>  <Peripheral>  (691) 
nan

>  <Num_H_Atoms_ProtBoundConf>  (691) 
nan

>  <Num_Resolved_Atoms>  (691) 
nan

>  <Num_Not_Resolved_Atoms>  (691) 
nan

$$$$
CHEMBL591355
     RDKit          3D

  0  0  0  0  0  0  0  0  0  0999 V3000
M  V30 BEGIN CTAB
M  V30 COUNTS 60 62 0 0 0
M  V30 BEGIN ATOM
M  V30 1 C 6.098138 -3.154122 2.682397 0
M  V30 2 N 5.030778 -2.277179 2.257383 0
M  V30 3 C 3.964752 -3.093103 1.713155 0
M  V30 4 C 5.551611 -1.341743 1.310140 0
M  V30 5 C 4.547357 -0.377028 0.804660 0
M  V30 6 C 4.436374 0.798887 1.540004 0
M  V30 7 C 3.534290 1.775754 1.169794 0
M  V30 8 C 2.750175 1.555561 0.057050 0
M  V30 9 N 1.750009 2.439054 -0.498528 0
M  V30 10 C 0.527467 2.074240 0.162735 0
M  V30 11 O 0.754800 1.133167 0.976966 0
M  V30 12 C -0.765245 2.741420 -0.115869 0
M  V30 13 C -0.976410 3.748364 -1.008300 0
M  V30 14 C -2.258123 4.252478 -1.137141 0
M  V30 15 C -3.294405 3.725536 -0.359958 0
M  V30 16 C -3.072121 2.690757 0.555766 0
M  V30 17 C -4.241628 2.190003 1.346311 0
M  V30 18 N -4.923333 1.122169 0.670071 0
M  V30 19 C -4.514454 -0.219490 0.563614 0
M  V30 20 O -3.450513 -0.643820 1.080770 0
M  V30 21 N -5.239001 -1.231638 -0.125607 0
M  V30 22 C -4.540555 -2.482729 -0.037600 0
M  V30 23 C -3.661857 -2.595976 -1.114391 0
M  V30 24 C -2.862836 -3.733197 -1.251522 0
M  V30 25 C -2.960356 -4.737806 -0.303943 0
M  V30 26 C -2.141845 -5.955586 -0.399202 0
M  V30 27 N -1.233056 -6.105765 -1.476433 0
M  V30 28 O -2.235202 -6.860818 0.455347 0
M  V30 29 C -3.833769 -4.597917 0.744035 0
M  V30 30 Cl -4.004634 -5.829429 1.973273 0
M  V30 31 C -4.625202 -3.489148 0.894277 0
M  V30 32 C -1.788328 2.206244 0.665575 0
M  V30 33 C 2.855038 0.375650 -0.688781 0
M  V30 34 C 3.763805 -0.621669 -0.325591 0
M  V30 35 H 5.911484 -4.198432 2.297427 0
M  V30 36 H 6.155199 -3.201320 3.792986 0
M  V30 37 H 7.028191 -2.834524 2.213992 0
M  V30 38 H 4.136558 -3.374010 0.657384 0
M  V30 39 H 3.022113 -2.538023 1.872908 0
M  V30 40 H 3.880107 -4.068235 2.275257 0
M  V30 41 H 6.427010 -0.783854 1.691761 0
M  V30 42 H 5.947477 -1.929797 0.442837 0
M  V30 43 H 5.015551 1.025150 2.409109 0
M  V30 44 H 3.357255 2.724395 1.657271 0
M  V30 45 H 1.718646 3.223270 -1.217671 0
M  V30 46 H -0.114470 4.084547 -1.558173 0
M  V30 47 H -2.412890 5.048720 -1.846375 0
M  V30 48 H -4.270302 4.164433 -0.509869 0
M  V30 49 H -3.845333 1.741251 2.301530 0
M  V30 50 H -4.926438 2.979716 1.662768 0
M  V30 51 H -5.829648 1.371876 0.202403 0
M  V30 52 H -6.141542 -0.981323 -0.592713 0
M  V30 53 H -3.484063 -1.897435 -1.919588 0
M  V30 54 H -2.157600 -3.905551 -2.049309 0
M  V30 55 H -1.172905 -6.692301 -2.336376 0
M  V30 56 H -0.353250 -5.557189 -1.570135 0
M  V30 57 H -5.344384 -3.259000 1.663744 0
M  V30 58 H -1.677606 1.421991 1.377524 0
M  V30 59 H 2.265953 0.144784 -1.573074 0
M  V30 60 H 3.879838 -1.535224 -0.861204 0
M  V30 END ATOM
M  V30 BEGIN BOND
M  V30 1 1 1 2
M  V30 2 1 2 3
M  V30 3 1 2 4
M  V30 4 1 4 5
M  V30 5 2 5 6
M  V30 6 1 6 7
M  V30 7 2 7 8
M  V30 8 1 8 9
M  V30 9 1 9 10
M  V30 10 2 10 11
M  V30 11 1 10 12
M  V30 12 2 12 13
M  V30 13 1 13 14
M  V30 14 2 14 15
M  V30 15 1 15 16
M  V30 16 1 16 17
M  V30 17 1 17 18
M  V30 18 1 18 19
M  V30 19 2 19 20
M  V30 20 1 19 21
M  V30 21 1 21 22
M  V30 22 2 22 23
M  V30 23 1 23 24
M  V30 24 2 24 25
M  V30 25 1 25 26
M  V30 26 1 26 27
M  V30 27 2 26 28
M  V30 28 1 25 29
M  V30 29 1 29 30
M  V30 30 2 29 31
M  V30 31 2 16 32
M  V30 32 1 8 33
M  V30 33 2 33 34
M  V30 34 1 34 5
M  V30 35 1 32 12
M  V30 36 1 31 22
M  V30 37 1 1 35
M  V30 38 1 1 36
M  V30 39 1 1 37
M  V30 40 1 3 38
M  V30 41 1 3 39
M  V30 42 1 3 40
M  V30 43 1 4 41
M  V30 44 1 4 42
M  V30 45 1 6 43
M  V30 46 1 7 44
M  V30 47 1 9 45
M  V30 48 1 13 46
M  V30 49 1 14 47
M  V30 50 1 15 48
M  V30 51 1 17 49
M  V30 52 1 17 50
M  V30 53 1 18 51
M  V30 54 1 21 52
M  V30 55 1 23 53
M  V30 56 1 24 54
M  V30 57 1 27 55
M  V30 58 1 27 56
M  V30 59 1 31 57
M  V30 60 1 32 58
M  V30 61 1 33 59
M  V30 62 1 34 60
M  V30 END BOND
M  V30 END CTAB
M  END
>  <Dataset>  (692) 
ChEMBL_Kinases

>  <Ligand_Instance>  (692) 
nan

>  <PDB_ID>  (692) 
nan

>  <Standardized_SMILES>  (692) 
CN(C)Cc1ccc(NC(=O)c2cccc(CNC(=O)Nc3ccc(C(N)=O)c(Cl)c3)c2)cc1

>  <Name>  (692) 
nan

>  <Pocket>  (692) 
nan

>  <ATP_Site>  (692) 
nan

>  <Peripheral>  (692) 
nan

>  <Num_H_Atoms_ProtBoundConf>  (692) 
nan

>  <Num_Resolved_Atoms>  (692) 
nan

>  <Num_Not_Resolved_Atoms>  (692) 
nan

$$$$
CHEMBL379963
     RDKit          3D

  0  0  0  0  0  0  0  0  0  0999 V3000
M  V30 BEGIN CTAB
M  V30 COUNTS 75 80 0 0 0
M  V30 BEGIN ATOM
M  V30 1 C 4.022986 -2.798542 1.397783 0
M  V30 2 N 2.661614 -2.333917 1.157486 0
M  V30 3 C 1.701631 -2.882115 1.954979 0
M  V30 4 C 0.498853 -2.344184 1.579201 0
M  V30 5 C 0.818087 -1.485308 0.553995 0
M  V30 6 C 2.159200 -1.437789 0.248383 0
M  V30 7 C 3.003419 -0.769056 -0.715703 0
M  V30 8 C 3.685032 0.490857 -0.417801 0
M  V30 9 C 4.622132 0.325366 0.795015 0
M  V30 10 C 4.719452 0.642754 -1.586129 0
M  V30 11 C 2.994646 1.793701 -0.382626 0
M  V30 12 C 4.132183 2.779168 -0.056704 0
M  V30 13 O 5.044273 3.148435 -0.860129 0
M  V30 14 N 4.071550 3.263529 1.278522 0
M  V30 15 C 2.779251 2.810042 1.738089 0
M  V30 16 C 2.271918 3.215250 2.978186 0
M  V30 17 C 0.967816 2.878891 3.270787 0
M  V30 18 C 0.219326 2.172093 2.356464 0
M  V30 19 C -1.146343 1.876342 2.743690 0
M  V30 20 C -1.854683 2.754902 3.559840 0
M  V30 21 N -3.143629 2.511922 3.945044 0
M  V30 22 C -3.749916 1.363025 3.507755 0
M  V30 23 C -3.098218 0.426709 2.679606 0
M  V30 24 O -3.983085 -0.527895 2.473670 0
M  V30 25 C -4.183749 -1.699275 1.842293 0
M  V30 26 C -4.122128 -1.737504 0.338957 0 CFG=1
M  V30 27 N -2.850273 -1.337872 -0.139402 0
M  V30 28 C -4.419345 -3.148163 -0.121645 0
M  V30 29 C -4.384584 -3.289174 -1.583899 0
M  V30 30 C -5.574707 -3.279867 -2.322560 0
M  V30 31 N -5.306748 -3.398987 -3.636163 0
M  V30 32 C -3.971958 -3.489106 -3.808667 0
M  V30 33 C -3.171223 -3.626997 -4.912086 0
M  V30 34 C -1.812499 -3.695419 -4.723328 0
M  V30 35 C -1.243367 -3.628399 -3.450944 0
M  V30 36 C -2.072203 -3.489563 -2.359582 0
M  V30 37 C -3.420128 -3.421530 -2.552681 0
M  V30 38 C -1.806266 0.751899 2.343028 0
M  V30 39 C 0.827343 1.827771 1.174106 0
M  V30 40 C 2.109821 2.092934 0.759155 0
M  V30 41 H 4.628446 -2.683144 0.476783 0
M  V30 42 H 4.511308 -2.212063 2.193537 0
M  V30 43 H 4.055935 -3.883691 1.663815 0
M  V30 44 H 1.754851 -3.602717 2.754332 0
M  V30 45 H -0.477940 -2.542883 1.988668 0
M  V30 46 H 0.102097 -0.903031 0.004895 0
M  V30 47 H 2.433615 -0.653149 -1.702354 0
M  V30 48 H 3.819487 -1.504745 -1.046564 0
M  V30 49 H 5.228008 1.278146 0.857210 0
M  V30 50 H 4.083682 0.086467 1.712576 0
M  V30 51 H 5.379467 -0.431511 0.490353 0
M  V30 52 H 4.835831 -0.354633 -2.102160 0
M  V30 53 H 4.206352 1.268918 -2.334639 0
M  V30 54 H 5.682717 0.989914 -1.229876 0
M  V30 55 H 2.572204 2.038151 -1.370271 0
M  V30 56 H 4.819986 3.807684 1.745418 0
M  V30 57 H 2.827955 3.767818 3.714653 0
M  V30 58 H 0.566808 3.182946 4.225948 0
M  V30 59 H -1.362574 3.663081 3.896691 0
M  V30 60 H -4.761808 1.386719 3.938789 0
M  V30 61 H -5.199644 -2.126950 2.116572 0
M  V30 62 H -3.492282 -2.541790 2.173526 0
M  V30 63 H -4.895547 -1.037935 -0.106066 0
M  V30 64 H -2.678777 -0.328874 -0.244618 0
M  V30 65 H -2.071195 -1.824712 0.349059 0
M  V30 66 H -3.576661 -3.771027 0.307660 0
M  V30 67 H -5.370953 -3.541719 0.309652 0
M  V30 68 H -6.590034 -3.193814 -1.962166 0
M  V30 69 H -6.004962 -3.421135 -4.419449 0
M  V30 70 H -3.651127 -3.674837 -5.879796 0
M  V30 71 H -1.202842 -3.803366 -5.595045 0
M  V30 72 H -0.187996 -3.683732 -3.326812 0
M  V30 73 H -1.617053 -3.447052 -1.383650 0
M  V30 74 H -1.362303 0.008096 1.725475 0
M  V30 75 H 0.155582 1.304531 0.512721 0
M  V30 END ATOM
M  V30 BEGIN BOND
M  V30 1 1 1 2
M  V30 2 1 2 3
M  V30 3 2 3 4
M  V30 4 1 4 5
M  V30 5 2 5 6
M  V30 6 1 6 7
M  V30 7 1 7 8
M  V30 8 1 8 9
M  V30 9 1 8 10
M  V30 10 1 8 11
M  V30 11 1 11 12
M  V30 12 2 12 13
M  V30 13 1 12 14
M  V30 14 1 14 15
M  V30 15 2 15 16
M  V30 16 1 16 17
M  V30 17 2 17 18
M  V30 18 1 18 19
M  V30 19 2 19 20
M  V30 20 1 20 21
M  V30 21 2 21 22
M  V30 22 1 22 23
M  V30 23 1 23 24
M  V30 24 1 24 25
M  V30 25 1 25 26
M  V30 26 1 26 27
M  V30 27 1 26 28
M  V30 28 1 28 29
M  V30 29 2 29 30
M  V30 30 1 30 31
M  V30 31 1 31 32
M  V30 32 2 32 33
M  V30 33 1 33 34
M  V30 34 2 34 35
M  V30 35 1 35 36
M  V30 36 2 36 37
M  V30 37 2 23 38
M  V30 38 1 18 39
M  V30 39 2 39 40
M  V30 40 1 6 2
M  V30 41 1 40 11
M  V30 42 1 40 15
M  V30 43 1 38 19
M  V30 44 1 37 29
M  V30 45 1 37 32
M  V30 46 1 1 41
M  V30 47 1 1 42
M  V30 48 1 1 43
M  V30 49 1 3 44
M  V30 50 1 4 45
M  V30 51 1 5 46
M  V30 52 1 7 47
M  V30 53 1 7 48
M  V30 54 1 9 49
M  V30 55 1 9 50
M  V30 56 1 9 51
M  V30 57 1 10 52
M  V30 58 1 10 53
M  V30 59 1 10 54
M  V30 60 1 11 55
M  V30 61 1 14 56
M  V30 62 1 16 57
M  V30 63 1 17 58
M  V30 64 1 20 59
M  V30 65 1 22 60
M  V30 66 1 25 61
M  V30 67 1 25 62
M  V30 68 1 26 63 CFG=3
M  V30 69 1 27 64
M  V30 70 1 27 65
M  V30 71 1 28 66
M  V30 72 1 28 67
M  V30 73 1 30 68
M  V30 74 1 31 69
M  V30 75 1 33 70
M  V30 76 1 34 71
M  V30 77 1 35 72
M  V30 78 1 36 73
M  V30 79 1 38 74
M  V30 80 1 39 75
M  V30 END BOND
M  V30 END CTAB
M  END
>  <Dataset>  (693) 
ChEMBL_Kinases

>  <Ligand_Instance>  (693) 
nan

>  <PDB_ID>  (693) 
nan

>  <Standardized_SMILES>  (693) 
Cn1cccc1CC(C)(C)C1C(=O)Nc2ccc(-c3cncc(OC[C@@H](N)Cc4c[nH]c5ccccc45)c3)cc21

>  <Name>  (693) 
nan

>  <Pocket>  (693) 
nan

>  <ATP_Site>  (693) 
nan

>  <Peripheral>  (693) 
nan

>  <Num_H_Atoms_ProtBoundConf>  (693) 
nan

>  <Num_Resolved_Atoms>  (693) 
nan

>  <Num_Not_Resolved_Atoms>  (693) 
nan

$$$$
CHEMBL3800082
     RDKit          3D

  0  0  0  0  0  0  0  0  0  0999 V3000
M  V30 BEGIN CTAB
M  V30 COUNTS 54 58 0 0 0
M  V30 BEGIN ATOM
M  V30 1 C 1.697684 -0.473992 -2.085865 0
M  V30 2 C 1.759878 -1.321655 -0.884387 0 CFG=1
M  V30 3 C 2.345635 -0.787247 0.337739 0
M  V30 4 C 2.302944 -1.732053 1.374859 0
M  V30 5 C 2.824450 -1.425432 2.624608 0
M  V30 6 C 3.393678 -0.219577 2.909411 0
M  V30 7 C 3.433164 0.705605 1.886555 0
M  V30 8 C 2.923186 0.430867 0.633318 0
M  V30 9 N 0.549349 -2.110653 -0.696647 0
M  V30 10 C -0.344783 -1.864063 0.389917 0
M  V30 11 C -0.451591 -0.579645 0.878983 0
M  V30 12 C -1.307123 -0.331247 1.945762 0
M  V30 13 N -1.427425 0.991658 2.461982 0
M  V30 14 C -0.940444 1.644085 3.539715 0
M  V30 15 O -0.202166 0.948026 4.285158 0
M  V30 16 N -1.402874 2.919409 3.515311 0
M  V30 17 C -2.181852 3.079981 2.426228 0
M  V30 18 N -2.828252 4.207734 2.046823 0
M  V30 19 C -3.563861 4.148463 0.907193 0
M  V30 20 C -3.640296 2.971356 0.171440 0
M  V30 21 C -2.958158 1.855310 0.610860 0
M  V30 22 C -2.194852 1.851682 1.759064 0
M  V30 23 C -2.017577 -1.392151 2.471296 0
M  V30 24 C -1.897754 -2.677845 1.965622 0
M  V30 25 C -1.044224 -2.928812 0.900137 0
M  V30 26 C -0.877658 -4.265937 0.293702 0
M  V30 27 O -1.580854 -5.144006 0.867293 0
M  V30 28 N 0.010619 -4.439531 -0.821404 0
M  V30 29 C 0.158280 -3.201443 -1.600914 0
M  V30 30 C 1.166390 -3.487581 -2.660879 0
M  V30 31 C -1.168895 -2.919534 -2.241843 0
M  V30 32 H 1.893355 0.603328 -1.910301 0
M  V30 33 H 2.448795 -0.764363 -2.846205 0
M  V30 34 H 0.712514 -0.536329 -2.637832 0
M  V30 35 H 2.504317 -2.154473 -1.152913 0
M  V30 36 H 1.883311 -2.746917 1.320910 0
M  V30 37 H 2.806419 -2.138544 3.451737 0
M  V30 38 H 3.800306 0.034386 3.865418 0
M  V30 39 H 3.871142 1.700778 2.022229 0
M  V30 40 H 2.912312 1.093530 -0.222412 0
M  V30 41 H 0.113905 0.188472 0.427667 0
M  V30 42 H -1.110854 3.557054 4.291487 0
M  V30 43 H -4.116145 4.997500 0.522660 0
M  V30 44 H -4.234288 2.951513 -0.733998 0
M  V30 45 H -3.002696 0.923709 0.052592 0
M  V30 46 H -2.692803 -1.203574 3.311563 0
M  V30 47 H -2.458252 -3.512584 2.380677 0
M  V30 48 H 0.388832 -5.428167 -0.867275 0
M  V30 49 H 2.161324 -3.806334 -2.276968 0
M  V30 50 H 1.212833 -2.723014 -3.456917 0
M  V30 51 H 0.783133 -4.417028 -3.182910 0
M  V30 52 H -1.538765 -3.862347 -2.695326 0
M  V30 53 H -1.916664 -2.607613 -1.461303 0
M  V30 54 H -1.065689 -2.124208 -3.004917 0
M  V30 END ATOM
M  V30 BEGIN BOND
M  V30 1 1 1 2
M  V30 2 1 2 3
M  V30 3 2 3 4
M  V30 4 1 4 5
M  V30 5 2 5 6
M  V30 6 1 6 7
M  V30 7 2 7 8
M  V30 8 1 2 9
M  V30 9 1 9 10
M  V30 10 2 10 11
M  V30 11 1 11 12
M  V30 12 1 12 13
M  V30 13 1 13 14
M  V30 14 2 14 15
M  V30 15 1 14 16
M  V30 16 1 16 17
M  V30 17 2 17 18
M  V30 18 1 18 19
M  V30 19 2 19 20
M  V30 20 1 20 21
M  V30 21 2 21 22
M  V30 22 2 12 23
M  V30 23 1 23 24
M  V30 24 2 24 25
M  V30 25 1 25 26
M  V30 26 2 26 27
M  V30 27 1 26 28
M  V30 28 1 28 29
M  V30 29 1 29 30
M  V30 30 1 29 31
M  V30 31 1 8 3
M  V30 32 1 29 9
M  V30 33 1 25 10
M  V30 34 1 22 13
M  V30 35 1 22 17
M  V30 36 1 1 32
M  V30 37 1 1 33
M  V30 38 1 1 34
M  V30 39 1 2 35 CFG=3
M  V30 40 1 4 36
M  V30 41 1 5 37
M  V30 42 1 6 38
M  V30 43 1 7 39
M  V30 44 1 8 40
M  V30 45 1 11 41
M  V30 46 1 16 42
M  V30 47 1 19 43
M  V30 48 1 20 44
M  V30 49 1 21 45
M  V30 50 1 23 46
M  V30 51 1 24 47
M  V30 52 1 28 48
M  V30 53 1 30 49
M  V30 54 1 30 50
M  V30 55 1 30 51
M  V30 56 1 31 52
M  V30 57 1 31 53
M  V30 58 1 31 54
M  V30 END BOND
M  V30 END CTAB
M  END
>  <Dataset>  (694) 
ChEMBL_Kinases

>  <Ligand_Instance>  (694) 
nan

>  <PDB_ID>  (694) 
nan

>  <Standardized_SMILES>  (694) 
C[C@@H](c1ccccc1)N1c2cc(-n3c(=O)[nH]c4ncccc43)ccc2C(=O)NC1(C)C

>  <Name>  (694) 
nan

>  <Pocket>  (694) 
nan

>  <ATP_Site>  (694) 
nan

>  <Peripheral>  (694) 
nan

>  <Num_H_Atoms_ProtBoundConf>  (694) 
nan

>  <Num_Resolved_Atoms>  (694) 
nan

>  <Num_Not_Resolved_Atoms>  (694) 
nan

$$$$
CHEMBL3799606
     RDKit          3D

  0  0  0  0  0  0  0  0  0  0999 V3000
M  V30 BEGIN CTAB
M  V30 COUNTS 45 48 0 0 0
M  V30 BEGIN ATOM
M  V30 1 C 0.802317 -4.901891 1.173223 0
M  V30 2 C 0.970802 -3.415714 1.442584 0
M  V30 3 C 1.842284 -3.323652 2.675191 0
M  V30 4 C 1.645924 -2.851664 0.226198 0
M  V30 5 C 1.748025 -1.374317 0.421808 0
M  V30 6 O 2.832804 -0.743709 0.412123 0
M  V30 7 C 0.462034 -0.712688 0.630490 0
M  V30 8 C 0.252559 0.596909 0.270546 0
M  V30 9 O 0.809336 1.691639 -0.287045 0
M  V30 10 C 1.920878 2.157043 -0.858346 0
M  V30 11 C 1.718972 2.985659 -2.124340 0
M  V30 12 C 1.249562 4.326382 -1.661479 0
M  V30 13 C 1.813630 4.443096 -0.271116 0
M  V30 14 C 2.660398 3.222072 -0.021204 0
M  V30 15 S -1.426728 0.843632 0.771344 0
M  V30 16 C -1.705017 -0.767366 1.398170 0
M  V30 17 C -3.023972 -1.153282 1.979651 0
M  V30 18 C -3.480622 -2.314876 2.497686 0
M  V30 19 C -4.784315 -2.215377 2.929143 0
M  V30 20 N -5.092145 -0.938301 2.646431 0
M  V30 21 N -4.072938 -0.314537 2.093948 0
M  V30 22 C -0.531480 -1.398635 1.200399 0
M  V30 23 C -0.368803 -2.818137 1.616411 0
M  V30 24 H 0.437125 -5.043449 0.114705 0
M  V30 25 H 0.068313 -5.366362 1.867547 0
M  V30 26 H 1.753313 -5.446168 1.229554 0
M  V30 27 H 2.550198 -4.191561 2.712217 0
M  V30 28 H 2.464025 -2.413780 2.606708 0
M  V30 29 H 1.254926 -3.343337 3.606563 0
M  V30 30 H 2.654520 -3.306844 0.154030 0
M  V30 31 H 1.090889 -3.090399 -0.682455 0
M  V30 32 H 2.699966 1.398433 -1.048957 0
M  V30 33 H 1.117161 2.504794 -2.886319 0
M  V30 34 H 2.741377 3.131708 -2.550015 0
M  V30 35 H 0.171096 4.503487 -1.734242 0
M  V30 36 H 1.717380 5.149289 -2.276361 0
M  V30 37 H 2.459363 5.350733 -0.155172 0
M  V30 38 H 1.068130 4.507274 0.518614 0
M  V30 39 H 2.732497 2.949519 1.033485 0
M  V30 40 H 3.628669 3.412197 -0.524587 0
M  V30 41 H -2.921508 -3.230667 2.577693 0
M  V30 42 H -5.379109 -2.995546 3.379266 0
M  V30 43 H -6.018668 -0.476600 2.833076 0
M  V30 44 H -0.602592 -2.939271 2.712771 0
M  V30 45 H -1.101741 -3.458741 1.070206 0
M  V30 END ATOM
M  V30 BEGIN BOND
M  V30 1 1 1 2
M  V30 2 1 2 3
M  V30 3 1 2 4
M  V30 4 1 4 5
M  V30 5 2 5 6
M  V30 6 1 5 7
M  V30 7 2 7 8
M  V30 8 1 8 9
M  V30 9 1 9 10
M  V30 10 1 10 11
M  V30 11 1 11 12
M  V30 12 1 12 13
M  V30 13 1 13 14
M  V30 14 1 8 15
M  V30 15 1 15 16
M  V30 16 1 16 17
M  V30 17 1 17 18
M  V30 18 2 18 19
M  V30 19 1 19 20
M  V30 20 1 20 21
M  V30 21 2 16 22
M  V30 22 1 22 23
M  V30 23 1 23 2
M  V30 24 1 22 7
M  V30 25 1 14 10
M  V30 26 2 21 17
M  V30 27 1 1 24
M  V30 28 1 1 25
M  V30 29 1 1 26
M  V30 30 1 3 27
M  V30 31 1 3 28
M  V30 32 1 3 29
M  V30 33 1 4 30
M  V30 34 1 4 31
M  V30 35 1 10 32
M  V30 36 1 11 33
M  V30 37 1 11 34
M  V30 38 1 12 35
M  V30 39 1 12 36
M  V30 40 1 13 37
M  V30 41 1 13 38
M  V30 42 1 14 39
M  V30 43 1 14 40
M  V30 44 1 18 41
M  V30 45 1 19 42
M  V30 46 1 20 43
M  V30 47 1 23 44
M  V30 48 1 23 45
M  V30 END BOND
M  V30 END CTAB
M  END
>  <Dataset>  (695) 
ChEMBL_Kinases

>  <Ligand_Instance>  (695) 
nan

>  <PDB_ID>  (695) 
nan

>  <Standardized_SMILES>  (695) 
CC1(C)CC(=O)c2c(OC3CCCC3)sc(-c3cc[nH]n3)c2C1

>  <Name>  (695) 
nan

>  <Pocket>  (695) 
nan

>  <ATP_Site>  (695) 
nan

>  <Peripheral>  (695) 
nan

>  <Num_H_Atoms_ProtBoundConf>  (695) 
nan

>  <Num_Resolved_Atoms>  (695) 
nan

>  <Num_Not_Resolved_Atoms>  (695) 
nan

$$$$
CHEMBL3799592
     RDKit          3D

  0  0  0  0  0  0  0  0  0  0999 V3000
M  V30 BEGIN CTAB
M  V30 COUNTS 52 56 0 0 0
M  V30 BEGIN ATOM
M  V30 1 C 2.513559 -3.920816 2.190686 0
M  V30 2 N 2.746861 -2.691302 2.906949 0
M  V30 3 N 3.135172 -2.572055 4.166905 0
M  V30 4 C 3.260144 -1.286170 4.528567 0
M  V30 5 N 3.648447 -0.713870 5.772534 0
M  V30 6 C 2.932622 -0.490277 3.434368 0
M  V30 7 C 2.843622 0.827668 3.098322 0
M  V30 8 C 2.453522 1.218272 1.815139 0
M  V30 9 C 2.140496 0.266391 0.830070 0
M  V30 10 C 1.780148 0.958620 -0.392675 0
M  V30 11 C 2.564688 1.969069 -0.912646 0
M  V30 12 N 2.319004 2.664420 -2.037310 0
M  V30 13 C 1.218287 2.387756 -2.759713 0
M  V30 14 C 0.372020 1.396126 -2.323787 0
M  V30 15 Cl -1.036362 1.057992 -3.268246 0
M  V30 16 C 0.666009 0.710204 -1.163827 0
M  V30 17 N -0.269736 -0.294623 -0.789783 0
M  V30 18 C -1.222895 0.377101 0.052990 0
M  V30 19 C -2.143271 -0.637330 0.652767 0
M  V30 20 C -2.922137 -1.327780 -0.448771 0
M  V30 21 C -3.906690 -0.440878 -1.139893 0
M  V30 22 C -5.143434 -0.636616 -0.260196 0
M  V30 23 N -5.179405 -2.080292 -0.133321 0
M  V30 24 C -3.796113 -2.391198 0.118645 0
M  V30 25 O -3.148592 -3.328525 0.693256 0
M  V30 26 C -1.949706 -1.981548 -1.399875 0
M  V30 27 C -0.512577 -1.713039 -1.020211 0
M  V30 28 C 2.230908 -1.043082 1.169407 0
M  V30 29 C 2.617023 -1.420318 2.439607 0
M  V30 30 H 3.078884 -4.723128 2.710864 0
M  V30 31 H 1.434687 -4.185507 2.291321 0
M  V30 32 H 2.845708 -3.861984 1.149400 0
M  V30 33 H 4.585623 -1.000988 6.105921 0
M  V30 34 H 2.990741 -0.049359 6.279260 0
M  V30 35 H 3.094479 1.511414 3.890607 0
M  V30 36 H 2.439395 2.313656 1.730600 0
M  V30 37 H 3.481281 2.276908 -0.409635 0
M  V30 38 H 1.048946 2.969554 -3.665460 0
M  V30 39 H -0.750355 0.922800 0.912269 0
M  V30 40 H -1.749167 1.144731 -0.549401 0
M  V30 41 H -2.842949 -0.211252 1.397652 0
M  V30 42 H -1.540662 -1.403422 1.162423 0
M  V30 43 H -3.684743 0.628732 -1.125383 0
M  V30 44 H -4.102694 -0.836510 -2.148605 0
M  V30 45 H -6.050685 -0.217336 -0.698444 0
M  V30 46 H -4.914243 -0.235909 0.740912 0
M  V30 47 H -5.795910 -2.932630 -0.154541 0
M  V30 48 H -2.170020 -1.627056 -2.427507 0
M  V30 49 H -2.063629 -3.085692 -1.419676 0
M  V30 50 H -0.278603 -2.341235 -0.136035 0
M  V30 51 H 0.112680 -2.127990 -1.841209 0
M  V30 52 H 1.983963 -1.688243 0.368402 0
M  V30 END ATOM
M  V30 BEGIN BOND
M  V30 1 1 1 2
M  V30 2 1 2 3
M  V30 3 2 3 4
M  V30 4 1 4 5
M  V30 5 1 4 6
M  V30 6 2 6 7
M  V30 7 1 7 8
M  V30 8 2 8 9
M  V30 9 1 9 10
M  V30 10 2 10 11
M  V30 11 1 11 12
M  V30 12 2 12 13
M  V30 13 1 13 14
M  V30 14 1 14 15
M  V30 15 2 14 16
M  V30 16 1 16 17
M  V30 17 1 17 18
M  V30 18 1 18 19
M  V30 19 1 19 20
M  V30 20 1 20 21
M  V30 21 1 21 22
M  V30 22 1 22 23
M  V30 23 1 23 24
M  V30 24 2 24 25
M  V30 25 1 20 26
M  V30 26 1 26 27
M  V30 27 1 9 28
M  V30 28 2 28 29
M  V30 29 1 29 2
M  V30 30 1 29 6
M  V30 31 1 16 10
M  V30 32 1 27 17
M  V30 33 1 24 20
M  V30 34 1 1 30
M  V30 35 1 1 31
M  V30 36 1 1 32
M  V30 37 1 5 33
M  V30 38 1 5 34
M  V30 39 1 7 35
M  V30 40 1 8 36
M  V30 41 1 11 37
M  V30 42 1 13 38
M  V30 43 1 18 39
M  V30 44 1 18 40
M  V30 45 1 19 41
M  V30 46 1 19 42
M  V30 47 1 21 43
M  V30 48 1 21 44
M  V30 49 1 22 45
M  V30 50 1 22 46
M  V30 51 1 23 47
M  V30 52 1 26 48
M  V30 53 1 26 49
M  V30 54 1 27 50
M  V30 55 1 27 51
M  V30 56 1 28 52
M  V30 END BOND
M  V30 END CTAB
M  END
>  <Dataset>  (696) 
ChEMBL_Kinases

>  <Ligand_Instance>  (696) 
nan

>  <PDB_ID>  (696) 
nan

>  <Standardized_SMILES>  (696) 
Cn1nc(N)c2ccc(-c3cncc(Cl)c3N3CCC4(CCNC4=O)CC3)cc21

>  <Name>  (696) 
nan

>  <Pocket>  (696) 
nan

>  <ATP_Site>  (696) 
nan

>  <Peripheral>  (696) 
nan

>  <Num_H_Atoms_ProtBoundConf>  (696) 
nan

>  <Num_Resolved_Atoms>  (696) 
nan

>  <Num_Not_Resolved_Atoms>  (696) 
nan

$$$$
CHEMBL504267
     RDKit          3D

  0  0  0  0  0  0  0  0  0  0999 V3000
M  V30 BEGIN CTAB
M  V30 COUNTS 41 44 0 0 0
M  V30 BEGIN ATOM
M  V30 1 C 1.389943 -7.539354 3.149734 0
M  V30 2 C 1.645023 -6.436625 2.190548 0
M  V30 3 N 1.081060 -5.209036 2.309589 0
M  V30 4 C 1.353678 -4.242155 1.399972 0
M  V30 5 N 0.952430 -2.976369 1.270338 0
M  V30 6 C 1.521321 -2.430807 0.176059 0
M  V30 7 C 1.328929 -1.064791 -0.300656 0
M  V30 8 C 1.948896 -0.580034 -1.433655 0
M  V30 9 C 1.814166 0.692408 -1.940096 0
M  V30 10 N 0.988287 1.507442 -1.228794 0
M  V30 11 C 0.347354 1.110121 -0.114193 0
M  V30 12 C -0.526999 2.047526 0.598064 0
M  V30 13 C -0.693505 3.276255 0.159458 0
M  V30 14 C -1.544117 4.264102 0.810876 0
M  V30 15 C -2.273772 4.037489 1.956895 0
M  V30 16 C -3.072123 4.991058 2.553841 0
M  V30 17 C -3.132635 6.243122 1.954020 0
M  V30 18 C -2.427614 6.537415 0.805516 0
M  V30 19 C -1.658782 5.531081 0.278761 0
M  V30 20 C 0.512909 -0.174981 0.356001 0
M  V30 21 C 2.314756 -3.374324 -0.419278 0
M  V30 22 C 2.214083 -4.533064 0.354474 0
M  V30 23 C 2.805676 -5.771294 0.202581 0
M  V30 24 O 3.580847 -6.034443 -0.738764 0
M  V30 25 N 2.476046 -6.675235 1.157622 0
M  V30 26 H 2.241621 -7.729795 3.819997 0
M  V30 27 H 1.232658 -8.486026 2.578207 0
M  V30 28 H 0.485415 -7.356870 3.768710 0
M  V30 29 H 0.303572 -2.444911 1.888369 0
M  V30 30 H 2.614042 -1.233681 -2.008036 0
M  V30 31 H 2.331433 1.006991 -2.836318 0
M  V30 32 H -1.037239 1.719588 1.492135 0
M  V30 33 H -0.163486 3.533096 -0.723587 0
M  V30 34 H -2.228622 3.074498 2.420208 0
M  V30 35 H -3.626539 4.763389 3.454941 0
M  V30 36 H -3.764920 6.963833 2.445656 0
M  V30 37 H -2.493207 7.515186 0.362768 0
M  V30 38 H -1.099033 5.752155 -0.626179 0
M  V30 39 H -0.017391 -0.469982 1.259838 0
M  V30 40 H 2.911250 -3.267786 -1.312431 0
M  V30 41 H 2.917422 -7.631242 1.061891 0
M  V30 END ATOM
M  V30 BEGIN BOND
M  V30 1 1 1 2
M  V30 2 2 2 3
M  V30 3 1 3 4
M  V30 4 1 4 5
M  V30 5 1 5 6
M  V30 6 1 6 7
M  V30 7 2 7 8
M  V30 8 1 8 9
M  V30 9 2 9 10
M  V30 10 1 10 11
M  V30 11 1 11 12
M  V30 12 2 12 13
M  V30 13 1 13 14
M  V30 14 2 14 15
M  V30 15 1 15 16
M  V30 16 2 16 17
M  V30 17 1 17 18
M  V30 18 2 18 19
M  V30 19 2 11 20
M  V30 20 2 6 21
M  V30 21 1 21 22
M  V30 22 1 22 23
M  V30 23 2 23 24
M  V30 24 1 23 25
M  V30 25 1 25 2
M  V30 26 2 22 4
M  V30 27 1 20 7
M  V30 28 1 19 14
M  V30 29 1 1 26
M  V30 30 1 1 27
M  V30 31 1 1 28
M  V30 32 1 5 29
M  V30 33 1 8 30
M  V30 34 1 9 31
M  V30 35 1 12 32
M  V30 36 1 13 33
M  V30 37 1 15 34
M  V30 38 1 16 35
M  V30 39 1 17 36
M  V30 40 1 18 37
M  V30 41 1 19 38
M  V30 42 1 20 39
M  V30 43 1 21 40
M  V30 44 1 25 41
M  V30 END BOND
M  V30 END CTAB
M  END
>  <Dataset>  (697) 
ChEMBL_Kinases

>  <Ligand_Instance>  (697) 
nan

>  <PDB_ID>  (697) 
nan

>  <Standardized_SMILES>  (697) 
Cc1nc2[nH]c(-c3ccnc(/C=C/c4ccccc4)c3)cc2c(=O)[nH]1

>  <Name>  (697) 
nan

>  <Pocket>  (697) 
nan

>  <ATP_Site>  (697) 
nan

>  <Peripheral>  (697) 
nan

>  <Num_H_Atoms_ProtBoundConf>  (697) 
nan

>  <Num_Resolved_Atoms>  (697) 
nan

>  <Num_Not_Resolved_Atoms>  (697) 
nan

$$$$
CHEMBL3799581
     RDKit          3D

  0  0  0  0  0  0  0  0  0  0999 V3000
M  V30 BEGIN CTAB
M  V30 COUNTS 51 55 0 0 0
M  V30 BEGIN ATOM
M  V30 1 N 1.254036 -3.602730 5.076164 0
M  V30 2 C 1.259740 -2.471427 4.201530 0
M  V30 3 N 2.173407 -1.517748 4.442145 0
M  V30 4 C 2.197259 -0.446764 3.633992 0
M  V30 5 C 1.363856 -0.216118 2.557816 0
M  V30 6 C 1.470476 0.986967 1.746146 0
M  V30 7 C 0.563171 1.893367 1.305527 0
M  V30 8 C 0.970512 2.953991 0.523365 0
M  V30 9 C 2.275880 3.172721 0.140781 0
M  V30 10 C 2.875536 4.146679 -0.618120 0
M  V30 11 N 2.211388 5.237778 -1.226345 0
M  V30 12 N 4.189198 3.792372 -0.619449 0
M  V30 13 N 4.375766 2.695116 0.079404 0
M  V30 14 C 3.216588 2.243639 0.590797 0
M  V30 15 C 2.816013 1.162059 1.385545 0
M  V30 16 C 0.452724 -1.230144 2.366770 0
M  V30 17 N -0.486295 -1.170693 1.305646 0
M  V30 18 C -1.806789 -0.730530 0.948266 0
M  V30 19 C -2.702333 -1.809893 0.410054 0
M  V30 20 C -2.011252 -2.407616 -0.784869 0
M  V30 21 C -2.918640 -2.224075 -1.982177 0
M  V30 22 C -3.966733 -3.306118 -1.735043 0
M  V30 23 N -3.218520 -4.423737 -1.157789 0
M  V30 24 C -1.961475 -3.899323 -0.684488 0
M  V30 25 O -1.109986 -4.758465 -0.298325 0
M  V30 26 C -0.649175 -1.799925 -1.017774 0
M  V30 27 C 0.206077 -1.806564 0.205276 0
M  V30 28 C 0.369648 -2.357375 3.154962 0
M  V30 29 Cl -0.811159 -3.615121 2.863245 0
M  V30 30 H 2.141553 -3.903988 5.564106 0
M  V30 31 H 0.487413 -4.247468 5.355721 0
M  V30 32 H 2.968456 0.294440 3.886534 0
M  V30 33 H -0.418178 1.674792 1.635833 0
M  V30 34 H 0.211277 3.643775 0.200359 0
M  V30 35 H 2.258475 6.274835 -1.004197 0
M  V30 36 H 1.616743 4.835660 -1.992532 0
M  V30 37 H 5.308516 2.223116 0.225655 0
M  V30 38 H 3.684474 0.535745 1.646425 0
M  V30 39 H -2.339044 -0.232302 1.782352 0
M  V30 40 H -1.715486 0.041192 0.143808 0
M  V30 41 H -3.650689 -1.274492 0.117077 0
M  V30 42 H -3.017071 -2.567853 1.122782 0
M  V30 43 H -3.376250 -1.207146 -1.964006 0
M  V30 44 H -2.414433 -2.425700 -2.944403 0
M  V30 45 H -4.780074 -2.962783 -1.091914 0
M  V30 46 H -4.413982 -3.629571 -2.706274 0
M  V30 47 H -3.651428 -5.375298 -1.161373 0
M  V30 48 H -0.757195 -0.798943 -1.455421 0
M  V30 49 H -0.139511 -2.432029 -1.796828 0
M  V30 50 H 1.136746 -1.229455 -0.071692 0
M  V30 51 H 0.508469 -2.853559 0.419594 0
M  V30 END ATOM
M  V30 BEGIN BOND
M  V30 1 1 1 2
M  V30 2 2 2 3
M  V30 3 1 3 4
M  V30 4 2 4 5
M  V30 5 1 5 6
M  V30 6 2 6 7
M  V30 7 1 7 8
M  V30 8 2 8 9
M  V30 9 1 9 10
M  V30 10 1 10 11
M  V30 11 2 10 12
M  V30 12 1 12 13
M  V30 13 1 13 14
M  V30 14 2 14 15
M  V30 15 1 5 16
M  V30 16 1 16 17
M  V30 17 1 17 18
M  V30 18 1 18 19
M  V30 19 1 19 20
M  V30 20 1 20 21
M  V30 21 1 21 22
M  V30 22 1 22 23
M  V30 23 1 23 24
M  V30 24 2 24 25
M  V30 25 1 20 26
M  V30 26 1 26 27
M  V30 27 2 16 28
M  V30 28 1 28 29
M  V30 29 1 28 2
M  V30 30 1 15 6
M  V30 31 1 27 17
M  V30 32 1 14 9
M  V30 33 1 24 20
M  V30 34 1 1 30
M  V30 35 1 1 31
M  V30 36 1 4 32
M  V30 37 1 7 33
M  V30 38 1 8 34
M  V30 39 1 11 35
M  V30 40 1 11 36
M  V30 41 1 13 37
M  V30 42 1 15 38
M  V30 43 1 18 39
M  V30 44 1 18 40
M  V30 45 1 19 41
M  V30 46 1 19 42
M  V30 47 1 21 43
M  V30 48 1 21 44
M  V30 49 1 22 45
M  V30 50 1 22 46
M  V30 51 1 23 47
M  V30 52 1 26 48
M  V30 53 1 26 49
M  V30 54 1 27 50
M  V30 55 1 27 51
M  V30 END BOND
M  V30 END CTAB
M  END
>  <Dataset>  (698) 
ChEMBL_Kinases

>  <Ligand_Instance>  (698) 
nan

>  <PDB_ID>  (698) 
nan

>  <Standardized_SMILES>  (698) 
Nc1ncc(-c2ccc3c(N)n[nH]c3c2)c(N2CCC3(CCNC3=O)CC2)c1Cl

>  <Name>  (698) 
nan

>  <Pocket>  (698) 
nan

>  <ATP_Site>  (698) 
nan

>  <Peripheral>  (698) 
nan

>  <Num_H_Atoms_ProtBoundConf>  (698) 
nan

>  <Num_Resolved_Atoms>  (698) 
nan

>  <Num_Not_Resolved_Atoms>  (698) 
nan

$$$$
CHEMBL504363
     RDKit          3D

  0  0  0  0  0  0  0  0  0  0999 V3000
M  V30 BEGIN CTAB
M  V30 COUNTS 80 83 0 0 0
M  V30 BEGIN ATOM
M  V30 1 C 1.597882 -3.562548 6.054684 0
M  V30 2 C 1.703761 -2.760588 4.759319 0 CFG=2
M  V30 3 O 2.670386 -3.358158 3.997136 0
M  V30 4 C 3.087629 -2.634181 2.889788 0 CFG=1
M  V30 5 O 2.073439 -2.318604 2.000155 0
M  V30 6 C 2.261448 -2.899604 0.744523 0
M  V30 7 C 1.103998 -2.476793 -0.100237 0 CFG=1
M  V30 8 O 0.989849 -1.113068 -0.258285 0
M  V30 9 C 1.119512 -0.667128 -1.546459 0 CFG=1
M  V30 10 O 1.224564 0.737557 -1.494541 0
M  V30 11 C 0.233138 1.297499 -2.276131 0
M  V30 12 C 0.250556 2.810641 -2.294537 0
M  V30 13 C 0.072120 3.390349 -0.957141 0
M  V30 14 C 1.116561 3.680217 -0.105985 0
M  V30 15 C 0.912033 4.226533 1.148523 0
M  V30 16 C -0.367768 4.500116 1.587297 0
M  V30 17 O -0.560647 5.049640 2.851238 0
M  V30 18 C -1.447315 4.224074 0.763064 0
M  V30 19 O -2.760415 4.485923 1.168819 0
M  V30 20 C -1.186390 3.683071 -0.469845 0
M  V30 21 C 2.339418 -1.276896 -2.201508 0 CFG=2
M  V30 22 O 2.626283 -0.678686 -3.420047 0
M  V30 23 C 1.999326 -2.739788 -2.416510 0 CFG=1
M  V30 24 O 3.173506 -3.469749 -2.291408 0
M  V30 25 C 0.987924 -3.232142 -1.411661 0 CFG=2
M  V30 26 O -0.325703 -3.099247 -1.811657 0
M  V30 27 C -1.311857 -4.009034 -1.996000 0
M  V30 28 O -1.135627 -5.237463 -1.803313 0
M  V30 29 C -2.628706 -3.506228 -2.439413 0
M  V30 30 C -2.872409 -2.229331 -2.657433 0
M  V30 31 C -4.149808 -1.672588 -3.095481 0
M  V30 32 C -5.266239 -2.442040 -3.334114 0
M  V30 33 C -6.459155 -1.869609 -3.749183 0
M  V30 34 C -6.542463 -0.506135 -3.930099 0
M  V30 35 O -7.723124 0.098128 -4.345234 0
M  V30 36 C -5.429792 0.285267 -3.695088 0
M  V30 37 O -5.442663 1.680399 -3.858999 0
M  V30 38 C -4.255462 -0.310461 -3.282788 0
M  V30 39 C 3.758526 -1.388767 3.415479 0 CFG=2
M  V30 40 O 4.693109 -1.794348 4.369346 0
M  V30 41 C 2.718731 -0.551790 4.122393 0 CFG=2
M  V30 42 O 3.325656 0.537241 4.769212 0
M  V30 43 C 2.007627 -1.348091 5.166854 0 CFG=1
M  V30 44 O 0.795881 -0.733401 5.532109 0
M  V30 45 H 1.031194 -4.492931 5.936301 0
M  V30 46 H 2.632744 -3.812116 6.409576 0
M  V30 47 H 1.149898 -2.939957 6.866048 0
M  V30 48 H 0.740592 -2.855358 4.206008 0
M  V30 49 H 3.795055 -3.282593 2.345791 0
M  V30 50 H 2.202010 -3.999492 0.875795 0
M  V30 51 H 3.259539 -2.625851 0.355711 0
M  V30 52 H 0.191665 -2.794395 0.488498 0
M  V30 53 H 0.257058 -0.870181 -2.211791 0
M  V30 54 H -0.731830 0.918305 -1.869346 0
M  V30 55 H 0.305063 0.889534 -3.304094 0
M  V30 56 H -0.631165 3.117113 -2.897092 0
M  V30 57 H 1.141621 3.156778 -2.838890 0
M  V30 58 H 2.139614 3.464062 -0.450736 0
M  V30 59 H 1.759214 4.440914 1.790142 0
M  V30 60 H -1.425349 5.535320 3.094771 0
M  V30 61 H -3.397295 4.751216 0.405178 0
M  V30 62 H -2.052900 3.473157 -1.103980 0
M  V30 63 H 3.200213 -1.135530 -1.532020 0
M  V30 64 H 3.486754 -0.162559 -3.372880 0
M  V30 65 H 1.648970 -2.847009 -3.461431 0
M  V30 66 H 3.632613 -3.464017 -3.168868 0
M  V30 67 H 1.225999 -4.290072 -1.220446 0
M  V30 68 H -3.431628 -4.213457 -2.593338 0
M  V30 69 H -2.026681 -1.582345 -2.484061 0
M  V30 70 H -5.233692 -3.513879 -3.201542 0
M  V30 71 H -7.339636 -2.469421 -3.938191 0
M  V30 72 H -8.403944 0.444328 -3.706880 0
M  V30 73 H -5.109836 2.190784 -3.025623 0
M  V30 74 H -3.387010 0.320522 -3.100872 0
M  V30 75 H 4.242831 -0.797121 2.631083 0
M  V30 76 H 4.239013 -2.163934 5.166955 0
M  V30 77 H 1.977653 -0.133854 3.412043 0
M  V30 78 H 4.014187 0.238192 5.394699 0
M  V30 79 H 2.612515 -1.362299 6.108173 0
M  V30 80 H 0.079045 -0.960588 4.862276 0
M  V30 END ATOM
M  V30 BEGIN BOND
M  V30 1 1 1 2
M  V30 2 1 2 3
M  V30 3 1 3 4
M  V30 4 1 4 5
M  V30 5 1 5 6
M  V30 6 1 6 7
M  V30 7 1 7 8
M  V30 8 1 8 9
M  V30 9 1 9 10
M  V30 10 1 10 11
M  V30 11 1 11 12
M  V30 12 1 12 13
M  V30 13 2 13 14
M  V30 14 1 14 15
M  V30 15 2 15 16
M  V30 16 1 16 17
M  V30 17 1 16 18
M  V30 18 1 18 19
M  V30 19 2 18 20
M  V30 20 1 9 21
M  V30 21 1 21 22
M  V30 22 1 21 23
M  V30 23 1 23 24
M  V30 24 1 23 25
M  V30 25 1 25 26
M  V30 26 1 26 27
M  V30 27 2 27 28
M  V30 28 1 27 29
M  V30 29 2 29 30
M  V30 30 1 30 31
M  V30 31 2 31 32
M  V30 32 1 32 33
M  V30 33 2 33 34
M  V30 34 1 34 35
M  V30 35 1 34 36
M  V30 36 1 36 37
M  V30 37 2 36 38
M  V30 38 1 4 39
M  V30 39 1 39 40
M  V30 40 1 39 41
M  V30 41 1 41 42
M  V30 42 1 41 43
M  V30 43 1 43 44
M  V30 44 1 43 2
M  V30 45 1 25 7
M  V30 46 1 38 31
M  V30 47 1 20 13
M  V30 48 1 1 45
M  V30 49 1 1 46
M  V30 50 1 1 47
M  V30 51 1 2 48 CFG=3
M  V30 52 1 4 49 CFG=3
M  V30 53 1 6 50
M  V30 54 1 6 51
M  V30 55 1 7 52 CFG=1
M  V30 56 1 9 53 CFG=3
M  V30 57 1 11 54
M  V30 58 1 11 55
M  V30 59 1 12 56
M  V30 60 1 12 57
M  V30 61 1 14 58
M  V30 62 1 15 59
M  V30 63 1 17 60
M  V30 64 1 19 61
M  V30 65 1 20 62
M  V30 66 1 21 63 CFG=1
M  V30 67 1 22 64
M  V30 68 1 23 65 CFG=3
M  V30 69 1 24 66
M  V30 70 1 25 67 CFG=1
M  V30 71 1 29 68
M  V30 72 1 30 69
M  V30 73 1 32 70
M  V30 74 1 33 71
M  V30 75 1 35 72
M  V30 76 1 37 73
M  V30 77 1 38 74
M  V30 78 1 39 75 CFG=3
M  V30 79 1 40 76
M  V30 80 1 41 77 CFG=3
M  V30 81 1 42 78
M  V30 82 1 43 79 CFG=1
M  V30 83 1 44 80
M  V30 END BOND
M  V30 END CTAB
M  END
>  <Dataset>  (699) 
ChEMBL_Kinases

>  <Ligand_Instance>  (699) 
nan

>  <PDB_ID>  (699) 
nan

>  <Standardized_SMILES>  (699) 
C[C@@H]1O[C@@H](OC[C@H]2O[C@@H](OCCc3ccc(O)c(O)c3)[C@H](O)[C@@H](O)[C@@H]2OC(=O)/C=C/c2ccc(O)c(O)c2)[C@H](O)[C@H](O)[C@H]1O

>  <Name>  (699) 
FORSYTHIASIDE

>  <Pocket>  (699) 
nan

>  <ATP_Site>  (699) 
nan

>  <Peripheral>  (699) 
nan

>  <Num_H_Atoms_ProtBoundConf>  (699) 
nan

>  <Num_Resolved_Atoms>  (699) 
nan

>  <Num_Not_Resolved_Atoms>  (699) 
nan

$$$$
CHEMBL3799457
     RDKit          3D

  0  0  0  0  0  0  0  0  0  0999 V3000
M  V30 BEGIN CTAB
M  V30 COUNTS 41 44 0 0 0
M  V30 BEGIN ATOM
M  V30 1 O 0.769240 -0.773349 4.102873 0
M  V30 2 C 1.306267 -1.317533 3.088301 0
M  V30 3 N 1.709572 -2.674778 3.228872 0
M  V30 4 C 1.619139 -3.451667 2.017665 0
M  V30 5 C 2.498438 -2.780192 0.983142 0
M  V30 6 C 2.117635 -1.352506 0.821208 0
M  V30 7 C 2.307466 -0.660483 -0.309661 0
M  V30 8 C 2.902443 -0.933001 -1.682319 0
M  V30 9 C 3.531707 -2.061360 -2.146768 0
M  V30 10 C 3.911132 -1.911103 -3.458463 0
M  V30 11 N 3.497834 -0.672621 -3.769573 0
M  V30 12 N 2.915473 -0.118146 -2.730822 0
M  V30 13 S 1.689434 0.927989 -0.019179 0
M  V30 14 C 1.179983 0.654390 1.625189 0
M  V30 15 S 0.395537 1.884058 2.700361 0
M  V30 16 C -1.405289 1.857208 2.529373 0
M  V30 17 C -1.842310 2.305917 1.150836 0
M  V30 18 C -2.135384 1.097837 0.290556 0
M  V30 19 C -3.420115 0.457016 0.804768 0
M  V30 20 C -3.408935 0.390347 2.316936 0
M  V30 21 C -1.999708 0.510469 2.865676 0
M  V30 22 C 1.533582 -0.627302 1.788398 0
M  V30 23 H 2.046310 -3.105628 4.119388 0
M  V30 24 H 1.968248 -4.488285 2.227398 0
M  V30 25 H 0.575804 -3.465315 1.620445 0
M  V30 26 H 3.568563 -2.838850 1.281653 0
M  V30 27 H 2.289329 -3.367367 0.055050 0
M  V30 28 H 3.750932 -2.976880 -1.629278 0
M  V30 29 H 4.421096 -2.615308 -4.097717 0
M  V30 30 H 3.586127 -0.156629 -4.670823 0
M  V30 31 H -1.798279 2.601887 3.248447 0
M  V30 32 H -1.040621 2.936327 0.741475 0
M  V30 33 H -2.782278 2.889530 1.233665 0
M  V30 34 H -1.342017 0.313998 0.380851 0
M  V30 35 H -2.240582 1.357522 -0.764759 0
M  V30 36 H -4.307490 1.008070 0.422236 0
M  V30 37 H -3.457560 -0.565592 0.367124 0
M  V30 38 H -3.785109 -0.611302 2.609782 0
M  V30 39 H -4.083902 1.136068 2.771842 0
M  V30 40 H -2.087531 0.431574 3.962287 0
M  V30 41 H -1.401344 -0.331060 2.478647 0
M  V30 END ATOM
M  V30 BEGIN BOND
M  V30 1 2 1 2
M  V30 2 1 2 3
M  V30 3 1 3 4
M  V30 4 1 4 5
M  V30 5 1 5 6
M  V30 6 2 6 7
M  V30 7 1 7 8
M  V30 8 1 8 9
M  V30 9 2 9 10
M  V30 10 1 10 11
M  V30 11 1 11 12
M  V30 12 1 7 13
M  V30 13 1 13 14
M  V30 14 1 14 15
M  V30 15 1 15 16
M  V30 16 1 16 17
M  V30 17 1 17 18
M  V30 18 1 18 19
M  V30 19 1 19 20
M  V30 20 1 20 21
M  V30 21 2 14 22
M  V30 22 1 22 2
M  V30 23 1 22 6
M  V30 24 2 12 8
M  V30 25 1 21 16
M  V30 26 1 3 23
M  V30 27 1 4 24
M  V30 28 1 4 25
M  V30 29 1 5 26
M  V30 30 1 5 27
M  V30 31 1 9 28
M  V30 32 1 10 29
M  V30 33 1 11 30
M  V30 34 1 16 31
M  V30 35 1 17 32
M  V30 36 1 17 33
M  V30 37 1 18 34
M  V30 38 1 18 35
M  V30 39 1 19 36
M  V30 40 1 19 37
M  V30 41 1 20 38
M  V30 42 1 20 39
M  V30 43 1 21 40
M  V30 44 1 21 41
M  V30 END BOND
M  V30 END CTAB
M  END
>  <Dataset>  (700) 
ChEMBL_Kinases

>  <Ligand_Instance>  (700) 
nan

>  <PDB_ID>  (700) 
nan

>  <Standardized_SMILES>  (700) 
O=C1NCCc2c(-c3cc[nH]n3)sc(SC3CCCCC3)c21

>  <Name>  (700) 
nan

>  <Pocket>  (700) 
nan

>  <ATP_Site>  (700) 
nan

>  <Peripheral>  (700) 
nan

>  <Num_H_Atoms_ProtBoundConf>  (700) 
nan

>  <Num_Resolved_Atoms>  (700) 
nan

>  <Num_Not_Resolved_Atoms>  (700) 
nan

$$$$
CHEMBL591276
     RDKit          3D

  0  0  0  0  0  0  0  0  0  0999 V3000
M  V30 BEGIN CTAB
M  V30 COUNTS 71 75 0 0 0
M  V30 BEGIN ATOM
M  V30 1 C 1.554154 4.542960 5.554720 0
M  V30 2 C 0.928172 4.108306 4.280772 0
M  V30 3 C 1.083482 4.720290 3.057328 0
M  V30 4 C 0.466892 4.254016 1.915806 0
M  V30 5 C -0.347642 3.140775 1.925586 0
M  V30 6 C -0.936177 2.840327 0.659598 0
M  V30 7 N -1.032196 3.635003 -0.413936 0
M  V30 8 C -1.635080 2.974472 -1.392925 0
M  V30 9 C -1.911943 3.557815 -2.739287 0
M  V30 10 C -2.606761 2.562916 -3.643467 0
M  V30 11 C -0.624777 3.950395 -3.438012 0
M  V30 12 C -2.797336 4.765298 -2.577172 0
M  V30 13 N -1.912740 1.758888 -0.919151 0
M  V30 14 C -1.487505 1.626206 0.373434 0
M  V30 15 C -1.661421 0.291603 0.889782 0
M  V30 16 O -2.605582 -0.485381 0.552709 0
M  V30 17 N -0.967350 -0.541482 1.807576 0
M  V30 18 C -1.460384 -1.845436 2.078220 0
M  V30 19 C -2.346037 -1.993067 3.102488 0
M  V30 20 C -2.823925 -3.260038 3.364132 0
M  V30 21 C -2.445513 -4.368673 2.639760 0
M  V30 22 C -3.032113 -5.697645 3.020481 0
M  V30 23 C -1.553540 -4.231946 1.605274 0
M  V30 24 N -1.183193 -5.400228 0.898950 0
M  V30 25 C -0.277008 -5.681441 -0.150393 0
M  V30 26 C -0.533444 -6.608816 -1.168107 0
M  V30 27 C 0.378387 -6.873187 -2.163462 0
M  V30 28 C 1.578424 -6.239624 -2.201700 0
M  V30 29 N 2.439156 -6.527072 -3.189784 0
M  V30 30 C 3.654551 -5.917725 -3.269552 0
M  V30 31 N 3.972495 -5.014915 -2.326958 0
M  V30 32 C 5.263924 -4.362507 -2.404733 0
M  V30 33 C 3.114626 -4.712771 -1.321807 0
M  V30 34 O 3.402661 -3.857298 -0.419527 0
M  V30 35 C 1.875883 -5.322149 -1.225584 0
M  V30 36 C 0.952670 -5.067721 -0.234712 0
M  V30 37 C -1.094859 -2.966917 1.365508 0
M  V30 38 C -0.471351 2.570372 3.161969 0
M  V30 39 C 0.121044 2.994870 4.328049 0
M  V30 40 H 2.570511 4.938901 5.342758 0
M  V30 41 H 0.880113 5.264239 6.050191 0
M  V30 42 H 1.747150 3.636703 6.199663 0
M  V30 43 H 1.718122 5.592588 3.026104 0
M  V30 44 H 0.682976 4.844375 1.010332 0
M  V30 45 H -0.684082 4.637268 -0.480666 0
M  V30 46 H -3.294931 1.948804 -3.012521 0
M  V30 47 H -1.900473 1.842821 -4.108494 0
M  V30 48 H -3.257826 3.067353 -4.383999 0
M  V30 49 H 0.036353 3.078531 -3.569139 0
M  V30 50 H -0.896815 4.297304 -4.456077 0
M  V30 51 H -0.103565 4.787685 -2.936953 0
M  V30 52 H -3.319420 4.928500 -3.560750 0
M  V30 53 H -3.540510 4.543111 -1.790208 0
M  V30 54 H -2.162636 5.646559 -2.322940 0
M  V30 55 H -0.084874 -0.089800 2.213546 0
M  V30 56 H -2.666614 -1.152645 3.692950 0
M  V30 57 H -3.540368 -3.388228 4.190764 0
M  V30 58 H -3.497487 -5.609489 4.025115 0
M  V30 59 H -2.222290 -6.475733 3.090007 0
M  V30 60 H -3.786786 -6.035087 2.291564 0
M  V30 61 H -1.639035 -6.304758 1.155535 0
M  V30 62 H -1.520599 -7.092314 -1.087994 0
M  V30 63 H 0.128596 -7.594438 -2.919762 0
M  V30 64 H 4.339643 -6.142251 -4.050416 0
M  V30 65 H 5.429647 -3.869789 -3.374160 0
M  V30 66 H 6.066972 -5.140634 -2.274904 0
M  V30 67 H 5.391306 -3.644426 -1.560961 0
M  V30 68 H 1.314169 -4.344584 0.467342 0
M  V30 69 H -0.400546 -2.788256 0.559294 0
M  V30 70 H -1.126797 1.721212 3.222014 0
M  V30 71 H -0.061272 2.448572 5.240495 0
M  V30 END ATOM
M  V30 BEGIN BOND
M  V30 1 1 1 2
M  V30 2 2 2 3
M  V30 3 1 3 4
M  V30 4 2 4 5
M  V30 5 1 5 6
M  V30 6 1 6 7
M  V30 7 1 7 8
M  V30 8 1 8 9
M  V30 9 1 9 10
M  V30 10 1 9 11
M  V30 11 1 9 12
M  V30 12 2 8 13
M  V30 13 1 13 14
M  V30 14 1 14 15
M  V30 15 2 15 16
M  V30 16 1 15 17
M  V30 17 1 17 18
M  V30 18 2 18 19
M  V30 19 1 19 20
M  V30 20 2 20 21
M  V30 21 1 21 22
M  V30 22 1 21 23
M  V30 23 1 23 24
M  V30 24 1 24 25
M  V30 25 2 25 26
M  V30 26 1 26 27
M  V30 27 2 27 28
M  V30 28 1 28 29
M  V30 29 2 29 30
M  V30 30 1 30 31
M  V30 31 1 31 32
M  V30 32 1 31 33
M  V30 33 2 33 34
M  V30 34 1 33 35
M  V30 35 2 35 36
M  V30 36 2 23 37
M  V30 37 1 5 38
M  V30 38 2 38 39
M  V30 39 1 39 2
M  V30 40 2 14 6
M  V30 41 1 37 18
M  V30 42 1 36 25
M  V30 43 1 35 28
M  V30 44 1 1 40
M  V30 45 1 1 41
M  V30 46 1 1 42
M  V30 47 1 3 43
M  V30 48 1 4 44
M  V30 49 1 7 45
M  V30 50 1 10 46
M  V30 51 1 10 47
M  V30 52 1 10 48
M  V30 53 1 11 49
M  V30 54 1 11 50
M  V30 55 1 11 51
M  V30 56 1 12 52
M  V30 57 1 12 53
M  V30 58 1 12 54
M  V30 59 1 17 55
M  V30 60 1 19 56
M  V30 61 1 20 57
M  V30 62 1 22 58
M  V30 63 1 22 59
M  V30 64 1 22 60
M  V30 65 1 24 61
M  V30 66 1 26 62
M  V30 67 1 27 63
M  V30 68 1 30 64
M  V30 69 1 32 65
M  V30 70 1 32 66
M  V30 71 1 32 67
M  V30 72 1 36 68
M  V30 73 1 37 69
M  V30 74 1 38 70
M  V30 75 1 39 71
M  V30 END BOND
M  V30 END CTAB
M  END
>  <Dataset>  (701) 
ChEMBL_Kinases

>  <Ligand_Instance>  (701) 
nan

>  <PDB_ID>  (701) 
nan

>  <Standardized_SMILES>  (701) 
Cc1ccc(-c2[nH]c(C(C)(C)C)nc2C(=O)Nc2ccc(C)c(Nc3ccc4ncn(C)c(=O)c4c3)c2)cc1

>  <Name>  (701) 
nan

>  <Pocket>  (701) 
nan

>  <ATP_Site>  (701) 
nan

>  <Peripheral>  (701) 
nan

>  <Num_H_Atoms_ProtBoundConf>  (701) 
nan

>  <Num_Resolved_Atoms>  (701) 
nan

>  <Num_Not_Resolved_Atoms>  (701) 
nan

$$$$
CHEMBL379945
     RDKit          3D

  0  0  0  0  0  0  0  0  0  0999 V3000
M  V30 BEGIN CTAB
M  V30 COUNTS 66 67 0 0 0
M  V30 BEGIN ATOM
M  V30 1 C 1.728746 -4.556247 3.539274 0
M  V30 2 C 2.791810 -3.830326 2.738381 0
M  V30 3 C 2.434465 -2.384253 2.580899 0
M  V30 4 C 3.501501 -1.665103 1.779375 0
M  V30 5 C 3.183610 -0.204057 1.595239 0
M  V30 6 C 4.297581 0.424191 0.789346 0
M  V30 7 C 4.130551 1.871924 0.520934 0
M  V30 8 C 2.910946 2.324979 -0.181147 0
M  V30 9 C 2.684698 1.783755 -1.549702 0
M  V30 10 C 2.474505 0.359372 -1.701761 0
M  V30 11 C 1.249126 0.061320 -2.159039 0
M  V30 12 C 0.156660 1.008069 -2.500179 0
M  V30 13 C -1.079923 0.193333 -2.096526 0
M  V30 14 C -2.274577 0.747668 -2.848394 0
M  V30 15 O -3.410528 -0.000667 -2.655428 0
M  V30 16 C -1.220513 0.361270 -0.615016 0
M  V30 17 O -2.210312 -0.368812 0.012946 0
M  V30 18 C -2.390183 -1.711529 0.108514 0
M  V30 19 O -1.564950 -2.484879 -0.433391 0
M  V30 20 C -3.575587 -2.185122 0.863301 0
M  V30 21 C -4.883515 -1.726064 0.315015 0
M  V30 22 C -5.748366 -1.062590 1.395311 0
M  V30 23 C -4.986131 0.130822 1.928468 0
M  V30 24 C -3.704063 -0.323416 2.559470 0
M  V30 25 C -3.356423 -1.754609 2.309993 0
M  V30 26 O -0.775826 -1.121721 -2.503850 0
M  V30 27 C 0.629993 -1.254874 -2.466912 0
M  V30 28 O 1.321089 -2.313027 -2.659284 0
M  V30 29 H 1.871693 -4.391613 4.611176 0
M  V30 30 H 0.703172 -4.215715 3.214278 0
M  V30 31 H 1.755267 -5.629169 3.250678 0
M  V30 32 H 3.720176 -3.887338 3.345710 0
M  V30 33 H 2.914902 -4.362323 1.787410 0
M  V30 34 H 2.314595 -1.936374 3.578155 0
M  V30 35 H 1.448931 -2.308309 2.046138 0
M  V30 36 H 3.650982 -2.201953 0.820433 0
M  V30 37 H 4.450443 -1.798183 2.349051 0
M  V30 38 H 2.193244 -0.087956 1.149811 0
M  V30 39 H 3.212876 0.241252 2.626944 0
M  V30 40 H 5.204412 0.317162 1.482180 0
M  V30 41 H 4.564898 -0.201019 -0.067709 0
M  V30 42 H 5.050543 2.182815 -0.068693 0
M  V30 43 H 4.159381 2.395577 1.517097 0
M  V30 44 H 2.868253 3.452405 -0.242264 0
M  V30 45 H 2.042812 2.098907 0.505669 0
M  V30 46 H 2.009516 2.416988 -2.163849 0
M  V30 47 H 3.694421 1.974732 -2.080859 0
M  V30 48 H 2.989246 -0.574564 -1.579577 0
M  V30 49 H 0.106832 1.907843 -1.894399 0
M  V30 50 H 0.097188 1.191833 -3.593166 0
M  V30 51 H -2.379510 1.812911 -2.605842 0
M  V30 52 H -2.030922 0.700323 -3.933925 0
M  V30 53 H -4.190465 0.598623 -2.793180 0
M  V30 54 H -0.196617 0.184096 -0.202407 0
M  V30 55 H -1.383828 1.457033 -0.447869 0
M  V30 56 H -3.496469 -3.309996 0.895617 0
M  V30 57 H -4.837506 -1.115967 -0.586151 0
M  V30 58 H -5.475946 -2.647436 0.039569 0
M  V30 59 H -5.995891 -1.784066 2.183077 0
M  V30 60 H -6.645658 -0.685982 0.875893 0
M  V30 61 H -4.762228 0.773088 1.043526 0
M  V30 62 H -5.638608 0.656849 2.658130 0
M  V30 63 H -2.863510 0.372400 2.303549 0
M  V30 64 H -3.800580 -0.217791 3.674040 0
M  V30 65 H -3.834329 -2.426621 3.040579 0
M  V30 66 H -2.249319 -1.846169 2.512584 0
M  V30 END ATOM
M  V30 BEGIN BOND
M  V30 1 1 1 2
M  V30 2 1 2 3
M  V30 3 1 3 4
M  V30 4 1 4 5
M  V30 5 1 5 6
M  V30 6 1 6 7
M  V30 7 1 7 8
M  V30 8 1 8 9
M  V30 9 1 9 10
M  V30 10 2 10 11
M  V30 11 1 11 12
M  V30 12 1 12 13
M  V30 13 1 13 14
M  V30 14 1 14 15
M  V30 15 1 13 16
M  V30 16 1 16 17
M  V30 17 1 17 18
M  V30 18 2 18 19
M  V30 19 1 18 20
M  V30 20 1 20 21
M  V30 21 1 21 22
M  V30 22 1 22 23
M  V30 23 1 23 24
M  V30 24 1 24 25
M  V30 25 1 13 26
M  V30 26 1 26 27
M  V30 27 2 27 28
M  V30 28 1 27 11
M  V30 29 1 25 20
M  V30 30 1 1 29
M  V30 31 1 1 30
M  V30 32 1 1 31
M  V30 33 1 2 32
M  V30 34 1 2 33
M  V30 35 1 3 34
M  V30 36 1 3 35
M  V30 37 1 4 36
M  V30 38 1 4 37
M  V30 39 1 5 38
M  V30 40 1 5 39
M  V30 41 1 6 40
M  V30 42 1 6 41
M  V30 43 1 7 42
M  V30 44 1 7 43
M  V30 45 1 8 44
M  V30 46 1 8 45
M  V30 47 1 9 46
M  V30 48 1 9 47
M  V30 49 1 10 48
M  V30 50 1 12 49
M  V30 51 1 12 50
M  V30 52 1 14 51
M  V30 53 1 14 52
M  V30 54 1 15 53
M  V30 55 1 16 54
M  V30 56 1 16 55
M  V30 57 1 20 56
M  V30 58 1 21 57
M  V30 59 1 21 58
M  V30 60 1 22 59
M  V30 61 1 22 60
M  V30 62 1 23 61
M  V30 63 1 23 62
M  V30 64 1 24 63
M  V30 65 1 24 64
M  V30 66 1 25 65
M  V30 67 1 25 66
M  V30 END BOND
M  V30 END CTAB
M  END
>  <Dataset>  (702) 
ChEMBL_Kinases

>  <Ligand_Instance>  (702) 
nan

>  <PDB_ID>  (702) 
nan

>  <Standardized_SMILES>  (702) 
CCCCCCCCC/C=C1\CC(CO)(COC(=O)C2CCCCC2)OC1=O

>  <Name>  (702) 
nan

>  <Pocket>  (702) 
nan

>  <ATP_Site>  (702) 
nan

>  <Peripheral>  (702) 
nan

>  <Num_H_Atoms_ProtBoundConf>  (702) 
nan

>  <Num_Resolved_Atoms>  (702) 
nan

>  <Num_Not_Resolved_Atoms>  (702) 
nan

$$$$
CHEMBL3799442
     RDKit          3D

  0  0  0  0  0  0  0  0  0  0999 V3000
M  V30 BEGIN CTAB
M  V30 COUNTS 40 43 0 0 0
M  V30 BEGIN ATOM
M  V30 1 C -0.932578 -6.824749 3.297110 0
M  V30 2 C 0.098341 -5.909585 2.796578 0
M  V30 3 N 1.009946 -5.867563 1.901078 0
M  V30 4 N 1.788131 -4.930692 1.666988 0
M  V30 5 C 1.777674 -3.788868 2.349765 0
M  V30 6 S 2.606675 -2.375601 2.346056 0
M  V30 7 C 2.037283 -1.030277 1.386804 0
M  V30 8 S 3.024152 0.440771 1.438311 0
M  V30 9 C 2.015117 1.434696 0.342134 0
M  V30 10 C 2.290537 2.816573 -0.048627 0
M  V30 11 C 3.399937 3.480020 0.422907 0
M  V30 12 C 3.310378 4.735715 -0.161927 0
M  V30 13 N 2.198821 4.808817 -0.942294 0
M  V30 14 N 1.607193 3.613213 -0.842340 0
M  V30 15 C 0.953428 0.554129 -0.006338 0
M  V30 16 C 0.981398 -0.688353 0.531491 0
M  V30 17 C -0.088618 -1.611088 0.202032 0
M  V30 18 O 0.115518 -2.847643 0.207055 0
M  V30 19 C -1.459158 -1.118512 -0.151687 0
M  V30 20 C -1.450917 0.379315 -0.169031 0
M  V30 21 C -2.711990 0.855187 -0.843685 0
M  V30 22 C -1.383064 0.963263 1.225297 0
M  V30 23 C -0.205340 0.828711 -0.901148 0
M  V30 24 S 0.350571 -4.193545 3.552156 0
M  V30 25 H -0.560251 -7.615517 3.979594 0
M  V30 26 H -1.805679 -6.281017 3.748005 0
M  V30 27 H -1.356492 -7.340278 2.408637 0
M  V30 28 H 4.195593 3.169024 1.089714 0
M  V30 29 H 3.964807 5.598796 -0.080523 0
M  V30 30 H 1.811940 5.576658 -1.523888 0
M  V30 31 H -1.843821 -1.569848 -1.062210 0
M  V30 32 H -2.100113 -1.448777 0.714779 0
M  V30 33 H -2.944345 1.870302 -0.488439 0
M  V30 34 H -3.516316 0.151915 -0.541359 0
M  V30 35 H -2.544042 0.825012 -1.949111 0
M  V30 36 H -0.985095 0.239815 1.946708 0
M  V30 37 H -2.365382 1.368682 1.556225 0
M  V30 38 H -0.692987 1.852290 1.284288 0
M  V30 39 H -0.128609 0.147661 -1.789399 0
M  V30 40 H -0.259163 1.882901 -1.185879 0
M  V30 END ATOM
M  V30 BEGIN BOND
M  V30 1 1 1 2
M  V30 2 2 2 3
M  V30 3 1 3 4
M  V30 4 2 4 5
M  V30 5 1 5 6
M  V30 6 1 6 7
M  V30 7 1 7 8
M  V30 8 1 8 9
M  V30 9 1 9 10
M  V30 10 1 10 11
M  V30 11 2 11 12
M  V30 12 1 12 13
M  V30 13 1 13 14
M  V30 14 2 9 15
M  V30 15 1 15 16
M  V30 16 1 16 17
M  V30 17 2 17 18
M  V30 18 1 17 19
M  V30 19 1 19 20
M  V30 20 1 20 21
M  V30 21 1 20 22
M  V30 22 1 20 23
M  V30 23 1 5 24
M  V30 24 1 24 2
M  V30 25 2 16 7
M  V30 26 2 14 10
M  V30 27 1 23 15
M  V30 28 1 1 25
M  V30 29 1 1 26
M  V30 30 1 1 27
M  V30 31 1 11 28
M  V30 32 1 12 29
M  V30 33 1 13 30
M  V30 34 1 19 31
M  V30 35 1 19 32
M  V30 36 1 21 33
M  V30 37 1 21 34
M  V30 38 1 21 35
M  V30 39 1 22 36
M  V30 40 1 22 37
M  V30 41 1 22 38
M  V30 42 1 23 39
M  V30 43 1 23 40
M  V30 END BOND
M  V30 END CTAB
M  END
>  <Dataset>  (703) 
ChEMBL_Kinases

>  <Ligand_Instance>  (703) 
nan

>  <PDB_ID>  (703) 
nan

>  <Standardized_SMILES>  (703) 
Cc1nnc(Sc2sc(-c3cc[nH]n3)c3c2C(=O)CC(C)(C)C3)s1

>  <Name>  (703) 
nan

>  <Pocket>  (703) 
nan

>  <ATP_Site>  (703) 
nan

>  <Peripheral>  (703) 
nan

>  <Num_H_Atoms_ProtBoundConf>  (703) 
nan

>  <Num_Resolved_Atoms>  (703) 
nan

>  <Num_Not_Resolved_Atoms>  (703) 
nan

$$$$
CHEMBL3799399
     RDKit          3D

  0  0  0  0  0  0  0  0  0  0999 V3000
M  V30 BEGIN CTAB
M  V30 COUNTS 50 53 0 0 0
M  V30 BEGIN ATOM
M  V30 1 C 0.076414 -2.799871 3.764116 0
M  V30 2 C -0.082883 -1.835070 2.508967 0
M  V30 3 C -1.035282 -0.796349 2.990063 0
M  V30 4 C -0.513961 -2.644356 1.360294 0
M  V30 5 N -0.794335 -2.147033 0.069922 0
M  V30 6 C -0.681920 -0.910593 -0.611245 0
M  V30 7 C 0.322457 -0.116970 -0.114733 0
M  V30 8 C 0.641682 1.124420 -0.595603 0
M  V30 9 N 1.684727 1.941238 -0.090874 0
M  V30 10 C 2.594499 2.449756 -0.943321 0
M  V30 11 O 2.710820 2.334957 -2.203792 0
M  V30 12 N 3.505399 3.197602 -0.266283 0
M  V30 13 C 3.170363 3.165176 1.041155 0
M  V30 14 N 3.667577 3.690054 2.172146 0
M  V30 15 C 3.070584 3.451267 3.351457 0
M  V30 16 C 1.916462 2.661708 3.501353 0
M  V30 17 C 1.425347 2.134190 2.329117 0
M  V30 18 C 2.041647 2.382727 1.125087 0
M  V30 19 C -0.123659 1.595060 -1.667996 0
M  V30 20 C -1.137898 0.814013 -2.183528 0
M  V30 21 C -1.413592 -0.420370 -1.664416 0
M  V30 22 C -2.457375 -1.323314 -2.141526 0
M  V30 23 O -3.177354 -0.965185 -3.094182 0
M  V30 24 N -2.554452 -2.562811 -1.450823 0
M  V30 25 C -1.367292 -3.188799 -0.825725 0
M  V30 26 C -1.765248 -4.433631 -0.117153 0
M  V30 27 C -0.424006 -3.526213 -1.951829 0
M  V30 28 H 0.891124 -3.510118 3.556591 0
M  V30 29 H 0.395759 -2.112839 4.570678 0
M  V30 30 H -0.890249 -3.226683 4.020928 0
M  V30 31 H 0.963769 -1.501043 2.428786 0
M  V30 32 H -1.925973 -1.240894 3.500181 0
M  V30 33 H -1.319894 -0.091481 2.198749 0
M  V30 34 H -0.508900 -0.194545 3.782263 0
M  V30 35 H 0.202038 -3.563429 1.274785 0
M  V30 36 H -1.453337 -3.193847 1.710937 0
M  V30 37 H 0.939180 -0.428192 0.695244 0
M  V30 38 H 4.338768 3.734522 -0.593860 0
M  V30 39 H 3.429501 3.856545 4.313486 0
M  V30 40 H 1.469348 2.498330 4.481564 0
M  V30 41 H 0.554761 1.528989 2.377965 0
M  V30 42 H 0.017043 2.550489 -2.140400 0
M  V30 43 H -1.751245 1.137812 -3.008364 0
M  V30 44 H -3.504567 -3.002047 -1.413254 0
M  V30 45 H -0.941922 -4.930902 0.400056 0
M  V30 46 H -2.671919 -4.248115 0.494761 0
M  V30 47 H -2.079029 -5.164516 -0.928410 0
M  V30 48 H 0.619985 -3.227067 -1.721407 0
M  V30 49 H -0.695343 -2.974155 -2.894736 0
M  V30 50 H -0.476098 -4.609853 -2.227929 0
M  V30 END ATOM
M  V30 BEGIN BOND
M  V30 1 1 1 2
M  V30 2 1 2 3
M  V30 3 1 2 4
M  V30 4 1 4 5
M  V30 5 1 5 6
M  V30 6 2 6 7
M  V30 7 1 7 8
M  V30 8 1 8 9
M  V30 9 1 9 10
M  V30 10 2 10 11
M  V30 11 1 10 12
M  V30 12 1 12 13
M  V30 13 2 13 14
M  V30 14 1 14 15
M  V30 15 2 15 16
M  V30 16 1 16 17
M  V30 17 2 17 18
M  V30 18 2 8 19
M  V30 19 1 19 20
M  V30 20 2 20 21
M  V30 21 1 21 22
M  V30 22 2 22 23
M  V30 23 1 22 24
M  V30 24 1 24 25
M  V30 25 1 25 26
M  V30 26 1 25 27
M  V30 27 1 25 5
M  V30 28 1 21 6
M  V30 29 1 18 9
M  V30 30 1 18 13
M  V30 31 1 1 28
M  V30 32 1 1 29
M  V30 33 1 1 30
M  V30 34 1 2 31
M  V30 35 1 3 32
M  V30 36 1 3 33
M  V30 37 1 3 34
M  V30 38 1 4 35
M  V30 39 1 4 36
M  V30 40 1 7 37
M  V30 41 1 12 38
M  V30 42 1 15 39
M  V30 43 1 16 40
M  V30 44 1 17 41
M  V30 45 1 19 42
M  V30 46 1 20 43
M  V30 47 1 24 44
M  V30 48 1 26 45
M  V30 49 1 26 46
M  V30 50 1 26 47
M  V30 51 1 27 48
M  V30 52 1 27 49
M  V30 53 1 27 50
M  V30 END BOND
M  V30 END CTAB
M  END
>  <Dataset>  (704) 
ChEMBL_Kinases

>  <Ligand_Instance>  (704) 
nan

>  <PDB_ID>  (704) 
nan

>  <Standardized_SMILES>  (704) 
CC(C)CN1c2cc(-n3c(=O)[nH]c4ncccc43)ccc2C(=O)NC1(C)C

>  <Name>  (704) 
nan

>  <Pocket>  (704) 
nan

>  <ATP_Site>  (704) 
nan

>  <Peripheral>  (704) 
nan

>  <Num_H_Atoms_ProtBoundConf>  (704) 
nan

>  <Num_Resolved_Atoms>  (704) 
nan

>  <Num_Not_Resolved_Atoms>  (704) 
nan

$$$$
CHEMBL3799621
     RDKit          3D

  0  0  0  0  0  0  0  0  0  0999 V3000
M  V30 BEGIN CTAB
M  V30 COUNTS 51 54 0 0 0
M  V30 BEGIN ATOM
M  V30 1 C 6.550567 -3.357979 4.697819 0
M  V30 2 N 6.910177 -2.841489 3.369204 0
M  V30 3 C 6.111256 -1.713546 3.049166 0
M  V30 4 O 5.259656 -1.355598 3.919426 0
M  V30 5 C 6.226368 -0.968845 1.790882 0
M  V30 6 C 5.407500 0.101565 1.564385 0
M  V30 7 C 5.390986 0.895629 0.441961 0
M  V30 8 O 4.512352 1.944007 0.345503 0
M  V30 9 C 3.240948 1.888969 -0.185335 0
M  V30 10 C 2.698996 2.103781 -1.430794 0
M  V30 11 C 1.386436 1.994498 -1.753195 0
M  V30 12 C 0.446211 1.642228 -0.812449 0
M  V30 13 N -0.850765 1.456869 -0.809785 0
M  V30 14 C -1.615180 1.175450 -0.073963 0
M  V30 15 N -3.082170 0.964515 0.056512 0
M  V30 16 C -3.353946 -0.404519 -0.133479 0
M  V30 17 O -2.318123 -1.084228 -0.361535 0
M  V30 18 C -4.739364 -0.920996 -0.058445 0
M  V30 19 C -5.824446 -0.096719 0.046642 0
M  V30 20 C -7.025663 -0.744270 0.135896 0
M  V30 21 C -8.241415 0.134111 0.247686 0
M  V30 22 F -9.195500 -0.491555 1.003704 0
M  V30 23 F -7.894038 1.351431 0.795616 0
M  V30 24 F -8.649671 0.394666 -1.051664 0
M  V30 25 C -7.296264 -2.102470 0.135066 0
M  V30 26 C -6.096645 -2.841179 0.021140 0
M  V30 27 C -6.315882 -4.334490 0.030741 0
M  V30 28 F -5.146395 -4.963225 -0.311711 0
M  V30 29 F -6.617196 -4.654619 1.341720 0
M  V30 30 F -7.297981 -4.700441 -0.846016 0
M  V30 31 C -4.841402 -2.296441 -0.074103 0
M  V30 32 S -0.437128 0.992657 1.420558 0
M  V30 33 C 0.970154 1.421856 0.446572 0
M  V30 34 C 2.343501 1.527313 0.823273 0
M  V30 35 C 6.316865 0.533250 -0.530677 0
M  V30 36 C 7.149208 -0.549611 -0.308444 0
M  V30 37 N 7.117841 -1.291964 0.817776 0
M  V30 38 H 7.285907 -4.097603 5.075512 0
M  V30 39 H 5.560250 -3.844651 4.645778 0
M  V30 40 H 6.404762 -2.506776 5.418333 0
M  V30 41 H 7.616849 -3.180084 2.703799 0
M  V30 42 H 4.701772 0.348554 2.335208 0
M  V30 43 H 3.495728 2.379493 -2.133214 0
M  V30 44 H 1.135411 2.200915 -2.780043 0
M  V30 45 H -3.838661 1.673170 0.250673 0
M  V30 46 H -5.725753 0.971477 0.055731 0
M  V30 47 H -8.282895 -2.485644 0.202393 0
M  V30 48 H -4.035028 -3.018651 -0.155393 0
M  V30 49 H 2.527205 1.308406 1.864400 0
M  V30 50 H 6.341192 1.131932 -1.442397 0
M  V30 51 H 7.861112 -0.815854 -1.075773 0
M  V30 END ATOM
M  V30 BEGIN BOND
M  V30 1 1 1 2
M  V30 2 1 2 3
M  V30 3 2 3 4
M  V30 4 1 3 5
M  V30 5 2 5 6
M  V30 6 1 6 7
M  V30 7 1 7 8
M  V30 8 1 8 9
M  V30 9 2 9 10
M  V30 10 1 10 11
M  V30 11 2 11 12
M  V30 12 1 12 13
M  V30 13 2 13 14
M  V30 14 1 14 15
M  V30 15 1 15 16
M  V30 16 2 16 17
M  V30 17 1 16 18
M  V30 18 2 18 19
M  V30 19 1 19 20
M  V30 20 1 20 21
M  V30 21 1 21 22
M  V30 22 1 21 23
M  V30 23 1 21 24
M  V30 24 2 20 25
M  V30 25 1 25 26
M  V30 26 1 26 27
M  V30 27 1 27 28
M  V30 28 1 27 29
M  V30 29 1 27 30
M  V30 30 2 26 31
M  V30 31 1 14 32
M  V30 32 1 32 33
M  V30 33 2 33 34
M  V30 34 2 7 35
M  V30 35 1 35 36
M  V30 36 2 36 37
M  V30 37 1 37 5
M  V30 38 1 34 9
M  V30 39 1 33 12
M  V30 40 1 31 18
M  V30 41 1 1 38
M  V30 42 1 1 39
M  V30 43 1 1 40
M  V30 44 1 2 41
M  V30 45 1 6 42
M  V30 46 1 10 43
M  V30 47 1 11 44
M  V30 48 1 15 45
M  V30 49 1 19 46
M  V30 50 1 25 47
M  V30 51 1 31 48
M  V30 52 1 34 49
M  V30 53 1 35 50
M  V30 54 1 36 51
M  V30 END BOND
M  V30 END CTAB
M  END
>  <Dataset>  (705) 
ChEMBL_Kinases

>  <Ligand_Instance>  (705) 
nan

>  <PDB_ID>  (705) 
nan

>  <Standardized_SMILES>  (705) 
CNC(=O)c1cc(Oc2ccc3nc(NC(=O)c4cc(C(F)(F)F)cc(C(F)(F)F)c4)sc3c2)ccn1

>  <Name>  (705) 
nan

>  <Pocket>  (705) 
nan

>  <ATP_Site>  (705) 
nan

>  <Peripheral>  (705) 
nan

>  <Num_H_Atoms_ProtBoundConf>  (705) 
nan

>  <Num_Resolved_Atoms>  (705) 
nan

>  <Num_Not_Resolved_Atoms>  (705) 
nan

$$$$
CHEMBL3800080
     RDKit          3D

  0  0  0  0  0  0  0  0  0  0999 V3000
M  V30 BEGIN CTAB
M  V30 COUNTS 56 60 0 0 0
M  V30 BEGIN ATOM
M  V30 1 C 2.012215 -2.202763 2.147927 0
M  V30 2 N 1.570013 -1.835597 0.807301 0
M  V30 3 C 2.188969 -2.746885 -0.108956 0
M  V30 4 N 3.584626 -2.394583 -0.034604 0
M  V30 5 C 3.567633 -0.989642 0.210745 0
M  V30 6 O 4.506242 -0.160543 0.224372 0
M  V30 7 C 2.157237 -0.518696 0.487306 0
M  V30 8 C 2.212826 0.359944 1.671848 0
M  V30 9 C 1.922745 1.799976 1.525010 0
M  V30 10 N 1.053544 2.045041 0.400785 0
M  V30 11 C -0.196809 2.685083 0.171536 0
M  V30 12 C 0.080659 4.029543 -0.122773 0
M  V30 13 Cl 1.647798 4.830123 -0.185044 0
M  V30 14 C -0.956668 4.926485 -0.417741 0
M  V30 15 N -2.227117 4.481277 -0.415276 0
M  V30 16 C -2.509948 3.211281 -0.138730 0
M  V30 17 C -1.517375 2.305189 0.154968 0
M  V30 18 C -1.702755 0.902531 0.484025 0
M  V30 19 C -2.492273 0.304020 -0.509874 0
M  V30 20 C -2.829180 -1.052234 -0.421344 0
M  V30 21 C -2.368110 -1.783796 0.662417 0
M  V30 22 C -2.644141 -3.207179 0.878687 0
M  V30 23 C -2.799124 -4.009392 1.989688 0
M  V30 24 N -3.039780 -5.251432 1.529225 0
M  V30 25 N -3.041425 -5.257969 0.196671 0
M  V30 26 C -3.267473 -6.426048 -0.646879 0
M  V30 27 C -2.799809 -4.009285 -0.254938 0
M  V30 28 C -1.593333 -1.183313 1.632089 0
M  V30 29 C -1.258943 0.150895 1.550340 0
M  V30 30 C 1.568295 1.532186 -0.828453 0
M  V30 31 C 1.654961 0.025882 -0.784824 0
M  V30 32 H 2.184043 -3.309063 2.177912 0
M  V30 33 H 1.171634 -2.039384 2.867489 0
M  V30 34 H 2.956934 -1.752119 2.449154 0
M  V30 35 H 1.768235 -2.752297 -1.125274 0
M  V30 36 H 2.019317 -3.769782 0.305700 0
M  V30 37 H 4.472220 -2.947613 -0.123221 0
M  V30 38 H 3.217163 0.282692 2.202221 0
M  V30 39 H 1.487921 -0.068033 2.436429 0
M  V30 40 H 1.462969 2.164505 2.474071 0
M  V30 41 H 2.881361 2.367806 1.327062 0
M  V30 42 H -0.859843 5.957007 -0.652478 0
M  V30 43 H -3.496060 2.736130 -0.106223 0
M  V30 44 H -2.914628 0.747205 -1.396859 0
M  V30 45 H -3.430486 -1.582056 -1.143691 0
M  V30 46 H -2.714926 -3.576746 2.971449 0
M  V30 47 H -3.971849 -7.107715 -0.137978 0
M  V30 48 H -3.678545 -6.094263 -1.632257 0
M  V30 49 H -2.330420 -6.991314 -0.806507 0
M  V30 50 H -2.753220 -3.766725 -1.317723 0
M  V30 51 H -1.176511 -1.655538 2.523488 0
M  V30 52 H -0.691058 0.793845 2.185338 0
M  V30 53 H 1.108963 1.871372 -1.752814 0
M  V30 54 H 2.645187 1.872322 -0.902066 0
M  V30 55 H 2.190104 -0.409352 -1.647993 0
M  V30 56 H 0.591502 -0.336851 -0.907888 0
M  V30 END ATOM
M  V30 BEGIN BOND
M  V30 1 1 1 2
M  V30 2 1 2 3
M  V30 3 1 3 4
M  V30 4 1 4 5
M  V30 5 2 5 6
M  V30 6 1 5 7
M  V30 7 1 7 8
M  V30 8 1 8 9
M  V30 9 1 9 10
M  V30 10 1 10 11
M  V30 11 2 11 12
M  V30 12 1 12 13
M  V30 13 1 12 14
M  V30 14 2 14 15
M  V30 15 1 15 16
M  V30 16 2 16 17
M  V30 17 1 17 18
M  V30 18 2 18 19
M  V30 19 1 19 20
M  V30 20 2 20 21
M  V30 21 1 21 22
M  V30 22 1 22 23
M  V30 23 2 23 24
M  V30 24 1 24 25
M  V30 25 1 25 26
M  V30 26 1 25 27
M  V30 27 1 21 28
M  V30 28 2 28 29
M  V30 29 1 10 30
M  V30 30 1 30 31
M  V30 31 1 7 2
M  V30 32 1 17 11
M  V30 33 1 29 18
M  V30 34 1 31 7
M  V30 35 2 27 22
M  V30 36 1 1 32
M  V30 37 1 1 33
M  V30 38 1 1 34
M  V30 39 1 3 35
M  V30 40 1 3 36
M  V30 41 1 4 37
M  V30 42 1 8 38
M  V30 43 1 8 39
M  V30 44 1 9 40
M  V30 45 1 9 41
M  V30 46 1 14 42
M  V30 47 1 16 43
M  V30 48 1 19 44
M  V30 49 1 20 45
M  V30 50 1 23 46
M  V30 51 1 26 47
M  V30 52 1 26 48
M  V30 53 1 26 49
M  V30 54 1 27 50
M  V30 55 1 28 51
M  V30 56 1 29 52
M  V30 57 1 30 53
M  V30 58 1 30 54
M  V30 59 1 31 55
M  V30 60 1 31 56
M  V30 END BOND
M  V30 END CTAB
M  END
>  <Dataset>  (706) 
ChEMBL_Kinases

>  <Ligand_Instance>  (706) 
nan

>  <PDB_ID>  (706) 
nan

>  <Standardized_SMILES>  (706) 
CN1CNC(=O)C12CCN(c1c(Cl)cncc1-c1ccc(-c3cnn(C)c3)cc1)CC2

>  <Name>  (706) 
nan

>  <Pocket>  (706) 
nan

>  <ATP_Site>  (706) 
nan

>  <Peripheral>  (706) 
nan

>  <Num_H_Atoms_ProtBoundConf>  (706) 
nan

>  <Num_Resolved_Atoms>  (706) 
nan

>  <Num_Not_Resolved_Atoms>  (706) 
nan

$$$$
CHEMBL3800053
     RDKit          3D

  0  0  0  0  0  0  0  0  0  0999 V3000
M  V30 BEGIN CTAB
M  V30 COUNTS 28 30 0 0 0
M  V30 BEGIN ATOM
M  V30 1 C -1.533365 -4.381902 -1.647117 0
M  V30 2 S -1.999067 -2.654270 -1.880759 0
M  V30 3 C -0.853996 -1.571429 -0.892356 0
M  V30 4 S 0.741176 -0.844860 -1.451220 0
M  V30 5 C 1.080975 -0.026078 0.074576 0
M  V30 6 C 2.290488 0.759588 0.212696 0
M  V30 7 C 2.776271 1.545591 1.236102 0
M  V30 8 C 3.998600 2.110084 0.940864 0
M  V30 9 N 4.248639 1.646456 -0.296751 0
M  V30 10 N 3.274398 0.872596 -0.719677 0
M  V30 11 C 0.046714 -0.312191 0.900586 0
M  V30 12 C -0.962495 -1.098420 0.440560 0
M  V30 13 C -2.125128 -1.429518 1.244150 0
M  V30 14 O -3.073815 -2.141767 0.876584 0
M  V30 15 N -2.222986 -0.916921 2.562090 0
M  V30 16 C -1.016761 -0.466487 3.175123 0
M  V30 17 C -0.005634 0.172928 2.299387 0
M  V30 18 H -0.475189 -4.418796 -1.279487 0
M  V30 19 H -2.197622 -4.805749 -0.847356 0
M  V30 20 H -1.651980 -4.907376 -2.615821 0
M  V30 21 H 2.303020 1.736519 2.162600 0
M  V30 22 H 4.602233 2.760890 1.551584 0
M  V30 23 H 5.109137 1.856527 -0.885665 0
M  V30 24 H -3.159313 -0.876219 3.058325 0
M  V30 25 H -1.324630 0.234308 3.995775 0
M  V30 26 H -0.561448 -1.352309 3.714764 0
M  V30 27 H 0.993101 -0.036758 2.816201 0
M  V30 28 H -0.095717 1.292579 2.356850 0
M  V30 END ATOM
M  V30 BEGIN BOND
M  V30 1 1 1 2
M  V30 2 1 2 3
M  V30 3 1 3 4
M  V30 4 1 4 5
M  V30 5 1 5 6
M  V30 6 1 6 7
M  V30 7 2 7 8
M  V30 8 1 8 9
M  V30 9 1 9 10
M  V30 10 2 5 11
M  V30 11 1 11 12
M  V30 12 1 12 13
M  V30 13 2 13 14
M  V30 14 1 13 15
M  V30 15 1 15 16
M  V30 16 1 16 17
M  V30 17 2 12 3
M  V30 18 2 10 6
M  V30 19 1 17 11
M  V30 20 1 1 18
M  V30 21 1 1 19
M  V30 22 1 1 20
M  V30 23 1 7 21
M  V30 24 1 8 22
M  V30 25 1 9 23
M  V30 26 1 15 24
M  V30 27 1 16 25
M  V30 28 1 16 26
M  V30 29 1 17 27
M  V30 30 1 17 28
M  V30 END BOND
M  V30 END CTAB
M  END
>  <Dataset>  (707) 
ChEMBL_Kinases

>  <Ligand_Instance>  (707) 
nan

>  <PDB_ID>  (707) 
nan

>  <Standardized_SMILES>  (707) 
CSc1sc(-c2cc[nH]n2)c2c1C(=O)NCC2

>  <Name>  (707) 
nan

>  <Pocket>  (707) 
nan

>  <ATP_Site>  (707) 
nan

>  <Peripheral>  (707) 
nan

>  <Num_H_Atoms_ProtBoundConf>  (707) 
nan

>  <Num_Resolved_Atoms>  (707) 
nan

>  <Num_Not_Resolved_Atoms>  (707) 
nan

$$$$
CHEMBL380004
     RDKit          3D

  0  0  0  0  0  0  0  0  0  0999 V3000
M  V30 BEGIN CTAB
M  V30 COUNTS 84 89 0 0 0
M  V30 BEGIN ATOM
M  V30 1 C 1.362099 -5.233656 7.185421 0
M  V30 2 C 1.131831 -5.433284 5.710909 0
M  V30 3 C 1.952411 -4.546523 4.848874 0
M  V30 4 C 3.310670 -4.782829 4.673374 0
M  V30 5 C 4.150369 -5.854941 5.251509 0
M  V30 6 N 3.692486 -3.809874 3.833231 0
M  V30 7 C 2.690032 -2.980298 3.466374 0
M  V30 8 C 2.773241 -1.800801 2.576789 0
M  V30 9 C 3.049175 -0.491739 3.227312 0
M  V30 10 C 4.410030 -0.621023 3.877919 0
M  V30 11 C 2.021912 -0.108578 4.294410 0
M  V30 12 C 3.054843 0.632330 2.256585 0
M  V30 13 C 3.434681 1.955512 2.853100 0
M  V30 14 O 4.299955 2.382509 3.699673 0
M  V30 15 N 2.621601 3.045198 2.353578 0
M  V30 16 C 1.540830 2.368310 1.679940 0
M  V30 17 C 0.438896 3.078187 1.180332 0
M  V30 18 C -0.621546 2.358499 0.709183 0
M  V30 19 C -0.566630 0.979680 0.745202 0
M  V30 20 C -1.727467 0.256162 0.248304 0
M  V30 21 C -2.035420 -0.961582 0.859059 0
M  V30 22 N -3.101334 -1.694653 0.449931 0
M  V30 23 C -3.873942 -1.220124 -0.575090 0
M  V30 24 C -3.601783 -0.004552 -1.217831 0
M  V30 25 O -4.547302 0.163308 -2.170993 0
M  V30 26 C -4.715221 1.167102 -3.091621 0
M  V30 27 C -3.569831 1.259561 -4.097392 0 CFG=1
M  V30 28 N -3.481790 0.012137 -4.787786 0
M  V30 29 C -3.717486 2.475008 -4.977057 0
M  V30 30 C -2.627914 2.575087 -5.979133 0
M  V30 31 C -1.443995 3.273511 -6.040117 0
M  V30 32 N -0.751011 3.013512 -7.159495 0
M  V30 33 C -1.476401 2.126212 -7.868500 0
M  V30 34 C -1.283102 1.506710 -9.082930 0
M  V30 35 C -2.169216 0.615067 -9.656789 0
M  V30 36 C -3.336595 0.341517 -8.931266 0
M  V30 37 C -3.528906 0.958005 -7.720667 0
M  V30 38 C -2.614408 1.849456 -7.172807 0
M  V30 39 C -2.532423 0.693203 -0.779332 0
M  V30 40 C 0.554027 0.386543 1.247709 0
M  V30 41 C 1.674611 0.997913 1.742256 0
M  V30 42 C 1.534303 -3.428099 4.108699 0
M  V30 43 C 0.121659 -2.997826 4.069165 0
M  V30 44 H 2.383172 -4.800776 7.363158 0
M  V30 45 H 0.656444 -4.549865 7.677481 0
M  V30 46 H 1.357112 -6.238939 7.669862 0
M  V30 47 H 0.043259 -5.351597 5.542748 0
M  V30 48 H 1.403359 -6.488747 5.460511 0
M  V30 49 H 4.322306 -5.706824 6.324389 0
M  V30 50 H 5.153658 -5.800214 4.781611 0
M  V30 51 H 3.766428 -6.862823 4.990394 0
M  V30 52 H 4.691459 -3.742721 3.511786 0
M  V30 53 H 1.972411 -1.841431 1.836802 0
M  V30 54 H 3.697387 -2.057612 1.916570 0
M  V30 55 H 5.009307 -1.395989 3.338690 0
M  V30 56 H 4.320372 -0.875341 4.958419 0
M  V30 57 H 4.968323 0.312173 3.726868 0
M  V30 58 H 2.415198 0.849920 4.743420 0
M  V30 59 H 1.880616 -0.884787 5.044959 0
M  V30 60 H 1.044624 0.155025 3.854978 0
M  V30 61 H 3.746606 0.447733 1.407575 0
M  V30 62 H 2.788186 4.091243 2.458570 0
M  V30 63 H 0.356498 4.146460 1.135107 0
M  V30 64 H -1.485641 2.883580 0.314660 0
M  V30 65 H -1.411208 -1.339422 1.685985 0
M  V30 66 H -4.675742 -1.953708 -0.746922 0
M  V30 67 H -4.788571 2.189304 -2.652018 0
M  V30 68 H -5.634661 1.014903 -3.689627 0
M  V30 69 H -2.574870 1.393442 -3.584209 0
M  V30 70 H -2.794916 -0.647007 -4.340281 0
M  V30 71 H -4.412752 -0.448695 -4.980390 0
M  V30 72 H -3.706151 3.365030 -4.319917 0
M  V30 73 H -4.666431 2.475037 -5.549109 0
M  V30 74 H -1.167273 3.949528 -5.228208 0
M  V30 75 H 0.165427 3.405518 -7.432892 0
M  V30 76 H -0.393712 1.677936 -9.690799 0
M  V30 77 H -1.993530 0.143143 -10.616273 0
M  V30 78 H -4.029213 -0.354968 -9.389021 0
M  V30 79 H -4.460086 0.672445 -7.274550 0
M  V30 80 H -2.350312 1.613410 -1.275486 0
M  V30 81 H 0.430419 -0.657425 1.205874 0
M  V30 82 H -0.470468 -3.575601 4.801804 0
M  V30 83 H -0.038409 -1.921643 4.156201 0
M  V30 84 H -0.348291 -3.302717 3.071582 0
M  V30 END ATOM
M  V30 BEGIN BOND
M  V30 1 1 1 2
M  V30 2 1 2 3
M  V30 3 2 3 4
M  V30 4 1 4 5
M  V30 5 1 4 6
M  V30 6 1 6 7
M  V30 7 1 7 8
M  V30 8 1 8 9
M  V30 9 1 9 10
M  V30 10 1 9 11
M  V30 11 1 9 12
M  V30 12 1 12 13
M  V30 13 2 13 14
M  V30 14 1 13 15
M  V30 15 1 15 16
M  V30 16 2 16 17
M  V30 17 1 17 18
M  V30 18 2 18 19
M  V30 19 1 19 20
M  V30 20 2 20 21
M  V30 21 1 21 22
M  V30 22 2 22 23
M  V30 23 1 23 24
M  V30 24 1 24 25
M  V30 25 1 25 26
M  V30 26 1 26 27
M  V30 27 1 27 28
M  V30 28 1 27 29
M  V30 29 1 29 30
M  V30 30 2 30 31
M  V30 31 1 31 32
M  V30 32 1 32 33
M  V30 33 2 33 34
M  V30 34 1 34 35
M  V30 35 2 35 36
M  V30 36 1 36 37
M  V30 37 2 37 38
M  V30 38 2 24 39
M  V30 39 1 19 40
M  V30 40 2 40 41
M  V30 41 2 7 42
M  V30 42 1 42 43
M  V30 43 1 42 3
M  V30 44 1 41 12
M  V30 45 1 41 16
M  V30 46 1 39 20
M  V30 47 1 38 30
M  V30 48 1 38 33
M  V30 49 1 1 44
M  V30 50 1 1 45
M  V30 51 1 1 46
M  V30 52 1 2 47
M  V30 53 1 2 48
M  V30 54 1 5 49
M  V30 55 1 5 50
M  V30 56 1 5 51
M  V30 57 1 6 52
M  V30 58 1 8 53
M  V30 59 1 8 54
M  V30 60 1 10 55
M  V30 61 1 10 56
M  V30 62 1 10 57
M  V30 63 1 11 58
M  V30 64 1 11 59
M  V30 65 1 11 60
M  V30 66 1 12 61
M  V30 67 1 15 62
M  V30 68 1 17 63
M  V30 69 1 18 64
M  V30 70 1 21 65
M  V30 71 1 23 66
M  V30 72 1 26 67
M  V30 73 1 26 68
M  V30 74 1 27 69 CFG=1
M  V30 75 1 28 70
M  V30 76 1 28 71
M  V30 77 1 29 72
M  V30 78 1 29 73
M  V30 79 1 31 74
M  V30 80 1 32 75
M  V30 81 1 34 76
M  V30 82 1 35 77
M  V30 83 1 36 78
M  V30 84 1 37 79
M  V30 85 1 39 80
M  V30 86 1 40 81
M  V30 87 1 43 82
M  V30 88 1 43 83
M  V30 89 1 43 84
M  V30 END BOND
M  V30 END CTAB
M  END
>  <Dataset>  (708) 
ChEMBL_Kinases

>  <Ligand_Instance>  (708) 
nan

>  <PDB_ID>  (708) 
nan

>  <Standardized_SMILES>  (708) 
CCc1c(C)[nH]c(CC(C)(C)C2C(=O)Nc3ccc(-c4cncc(OC[C@@H](N)Cc5c[nH]c6ccccc56)c4)cc32)c1C

>  <Name>  (708) 
nan

>  <Pocket>  (708) 
nan

>  <ATP_Site>  (708) 
nan

>  <Peripheral>  (708) 
nan

>  <Num_H_Atoms_ProtBoundConf>  (708) 
nan

>  <Num_Resolved_Atoms>  (708) 
nan

>  <Num_Not_Resolved_Atoms>  (708) 
nan

$$$$
CHEMBL3800037
     RDKit          3D

  0  0  0  0  0  0  0  0  0  0999 V3000
M  V30 BEGIN CTAB
M  V30 COUNTS 51 55 0 0 0
M  V30 BEGIN ATOM
M  V30 1 C -1.127549 -4.828051 2.360240 0
M  V30 2 N -0.226343 -4.490787 1.306433 0
M  V30 3 C 0.465787 -3.293378 1.023894 0
M  V30 4 C 0.631576 -2.264621 1.929336 0
M  V30 5 C 1.310076 -1.102735 1.638526 0
M  V30 6 C 1.868286 -0.912401 0.394104 0
M  V30 7 C 2.606813 0.226316 -0.131546 0
M  V30 8 C 3.831524 0.142804 -0.748949 0
M  V30 9 N 4.467657 1.233197 -1.207248 0
M  V30 10 C 3.908418 2.452669 -1.068700 0
M  V30 11 C 2.662355 2.564151 -0.443909 0
M  V30 12 F 2.246466 3.873848 -0.389727 0
M  V30 13 C 1.983983 1.439180 0.040058 0
M  V30 14 N 0.760189 1.848305 0.607662 0
M  V30 15 C 0.263449 2.269911 1.898357 0
M  V30 16 C -0.860315 1.460126 2.435099 0
M  V30 17 C -1.811773 0.898497 1.443588 0
M  V30 18 C -1.305286 0.787470 0.051614 0
M  V30 19 C -0.359164 1.878089 -0.342469 0
M  V30 20 C -3.151551 1.602880 1.435125 0
M  V30 21 N -3.992365 0.624166 0.762278 0
M  V30 22 C -3.425959 -0.622580 1.173402 0
M  V30 23 O -3.948861 -1.766079 0.961230 0
M  V30 24 O -2.223949 -0.416319 1.837827 0
M  V30 25 C 1.689787 -1.965001 -0.507923 0
M  V30 26 C 0.999371 -3.149469 -0.214146 0
M  V30 27 C 0.762580 -4.327065 -1.125379 0
M  V30 28 S 0.256501 -5.583173 0.026514 0
M  V30 29 O 1.365786 -6.476297 0.439825 0
M  V30 30 O -0.967796 -6.305203 -0.443759 0
M  V30 31 H -1.982291 -5.387398 1.922751 0
M  V30 32 H -1.562773 -3.944447 2.849931 0
M  V30 33 H -0.661316 -5.535809 3.098233 0
M  V30 34 H 0.246786 -2.279546 2.938337 0
M  V30 35 H 1.471737 -0.279639 2.315585 0
M  V30 36 H 4.241104 -0.852605 -0.837986 0
M  V30 37 H 4.476011 3.282481 -1.460150 0
M  V30 38 H -0.009616 3.365928 1.876399 0
M  V30 39 H 1.101530 2.222739 2.625377 0
M  V30 40 H -1.468013 2.155261 3.092799 0
M  V30 41 H -0.560634 0.651139 3.151081 0
M  V30 42 H -0.886578 -0.229034 -0.183683 0
M  V30 43 H -2.181549 0.869246 -0.649410 0
M  V30 44 H -0.935521 2.846449 -0.259468 0
M  V30 45 H -0.051790 1.686385 -1.377221 0
M  V30 46 H -3.494418 1.745672 2.470117 0
M  V30 47 H -3.066145 2.540603 0.851726 0
M  V30 48 H -4.821596 0.790888 0.123721 0
M  V30 49 H 2.109147 -1.885591 -1.524906 0
M  V30 50 H 1.692985 -4.592694 -1.664115 0
M  V30 51 H -0.089050 -4.095186 -1.775816 0
M  V30 END ATOM
M  V30 BEGIN BOND
M  V30 1 1 1 2
M  V30 2 1 2 3
M  V30 3 2 3 4
M  V30 4 1 4 5
M  V30 5 2 5 6
M  V30 6 1 6 7
M  V30 7 2 7 8
M  V30 8 1 8 9
M  V30 9 2 9 10
M  V30 10 1 10 11
M  V30 11 1 11 12
M  V30 12 2 11 13
M  V30 13 1 13 14
M  V30 14 1 14 15
M  V30 15 1 15 16
M  V30 16 1 16 17
M  V30 17 1 17 18
M  V30 18 1 18 19
M  V30 19 1 17 20
M  V30 20 1 20 21
M  V30 21 1 21 22
M  V30 22 2 22 23
M  V30 23 1 22 24
M  V30 24 1 6 25
M  V30 25 2 25 26
M  V30 26 1 26 27
M  V30 27 1 27 28
M  V30 28 2 28 29
M  V30 29 2 28 30
M  V30 30 1 28 2
M  V30 31 1 26 3
M  V30 32 1 13 7
M  V30 33 1 19 14
M  V30 34 1 24 17
M  V30 35 1 1 31
M  V30 36 1 1 32
M  V30 37 1 1 33
M  V30 38 1 4 34
M  V30 39 1 5 35
M  V30 40 1 8 36
M  V30 41 1 10 37
M  V30 42 1 15 38
M  V30 43 1 15 39
M  V30 44 1 16 40
M  V30 45 1 16 41
M  V30 46 1 18 42
M  V30 47 1 18 43
M  V30 48 1 19 44
M  V30 49 1 19 45
M  V30 50 1 20 46
M  V30 51 1 20 47
M  V30 52 1 21 48
M  V30 53 1 25 49
M  V30 54 1 27 50
M  V30 55 1 27 51
M  V30 END BOND
M  V30 END CTAB
M  END
>  <Dataset>  (709) 
ChEMBL_Kinases

>  <Ligand_Instance>  (709) 
nan

>  <PDB_ID>  (709) 
nan

>  <Standardized_SMILES>  (709) 
CN1c2ccc(-c3cncc(F)c3N3CCC4(CC3)CNC(=O)O4)cc2CS1(=O)=O

>  <Name>  (709) 
nan

>  <Pocket>  (709) 
nan

>  <ATP_Site>  (709) 
nan

>  <Peripheral>  (709) 
nan

>  <Num_H_Atoms_ProtBoundConf>  (709) 
nan

>  <Num_Resolved_Atoms>  (709) 
nan

>  <Num_Not_Resolved_Atoms>  (709) 
nan

$$$$
CHEMBL500
     RDKit          3D

  0  0  0  0  0  0  0  0  0  0999 V3000
M  V30 BEGIN CTAB
M  V30 COUNTS 38 39 0 0 0
M  V30 BEGIN ATOM
M  V30 1 C -0.117944 -3.860274 2.406052 0
M  V30 2 C -0.709608 -4.501849 1.205599 0
M  V30 3 C -2.138911 -4.903664 1.515989 0
M  V30 4 N -0.534284 -3.911496 -0.046904 0
M  V30 5 C -0.953530 -2.634953 -0.387037 0
M  V30 6 C -0.183970 -1.467554 0.258239 0
M  V30 7 O 1.145181 -1.528646 -0.082144 0
M  V30 8 C -0.819487 -0.180708 -0.215382 0
M  V30 9 O -0.340066 0.998731 0.202433 0
M  V30 10 C 0.809407 1.659421 0.042896 0
M  V30 11 C 1.983569 1.440612 -0.630277 0
M  V30 12 C 3.058883 2.282717 -0.657929 0
M  V30 13 C 3.020658 3.475208 0.032077 0
M  V30 14 C 1.870649 3.760774 0.731369 0
M  V30 15 N 1.626460 4.861320 1.463497 0
M  V30 16 C 0.393527 4.757321 1.979590 0
M  V30 17 C -0.104555 3.553225 1.535442 0
M  V30 18 C 0.803608 2.872091 0.729488 0
M  V30 19 H -0.863444 -3.208240 2.941921 0
M  V30 20 H 0.873939 -3.431908 2.302473 0
M  V30 21 H 0.026098 -4.700962 3.165128 0
M  V30 22 H -0.170984 -5.519056 1.130366 0
M  V30 23 H -2.891057 -4.308351 0.970606 0
M  V30 24 H -2.307745 -4.736106 2.594462 0
M  V30 25 H -2.323381 -6.002089 1.361126 0
M  V30 26 H -0.504375 -4.622640 -0.803177 0
M  V30 27 H -0.753500 -2.490210 -1.495397 0
M  V30 28 H -2.040377 -2.426636 -0.300733 0
M  V30 29 H -0.270460 -1.606969 1.335417 0
M  V30 30 H 1.712124 -2.046593 0.556002 0
M  V30 31 H -1.935176 -0.237311 -0.030481 0
M  V30 32 H -0.787849 -0.194628 -1.359123 0
M  V30 33 H 2.077432 0.558673 -1.202949 0
M  V30 34 H 3.953931 2.027022 -1.219688 0
M  V30 35 H 3.860872 4.129858 0.007407 0
M  V30 36 H 2.261332 5.674368 1.623949 0
M  V30 37 H -0.149377 5.459912 2.623553 0
M  V30 38 H -1.102871 3.188458 1.798320 0
M  V30 END ATOM
M  V30 BEGIN BOND
M  V30 1 1 1 2
M  V30 2 1 2 3
M  V30 3 1 2 4
M  V30 4 1 4 5
M  V30 5 1 5 6
M  V30 6 1 6 7
M  V30 7 1 6 8
M  V30 8 1 8 9
M  V30 9 1 9 10
M  V30 10 2 10 11
M  V30 11 1 11 12
M  V30 12 2 12 13
M  V30 13 1 13 14
M  V30 14 1 14 15
M  V30 15 1 15 16
M  V30 16 2 16 17
M  V30 17 1 17 18
M  V30 18 1 18 10
M  V30 19 2 18 14
M  V30 20 1 1 19
M  V30 21 1 1 20
M  V30 22 1 1 21
M  V30 23 1 2 22
M  V30 24 1 3 23
M  V30 25 1 3 24
M  V30 26 1 3 25
M  V30 27 1 4 26
M  V30 28 1 5 27
M  V30 29 1 5 28
M  V30 30 1 6 29
M  V30 31 1 7 30
M  V30 32 1 8 31
M  V30 33 1 8 32
M  V30 34 1 11 33
M  V30 35 1 12 34
M  V30 36 1 13 35
M  V30 37 1 15 36
M  V30 38 1 16 37
M  V30 39 1 17 38
M  V30 END BOND
M  V30 END CTAB
M  END
>  <Dataset>  (710) 
ChEMBL_Kinases

>  <Ligand_Instance>  (710) 
nan

>  <PDB_ID>  (710) 
nan

>  <Standardized_SMILES>  (710) 
CC(C)NCC(O)COc1cccc2[nH]ccc12

>  <Name>  (710) 
PINDOLOL

>  <Pocket>  (710) 
nan

>  <ATP_Site>  (710) 
nan

>  <Peripheral>  (710) 
nan

>  <Num_H_Atoms_ProtBoundConf>  (710) 
nan

>  <Num_Resolved_Atoms>  (710) 
nan

>  <Num_Not_Resolved_Atoms>  (710) 
nan

$$$$
CHEMBL3799978
     RDKit          3D

  0  0  0  0  0  0  0  0  0  0999 V3000
M  V30 BEGIN CTAB
M  V30 COUNTS 34 36 0 0 0
M  V30 BEGIN ATOM
M  V30 1 C -1.331010 -2.332521 5.551305 0
M  V30 2 C -0.723544 -3.348196 4.623817 0
M  V30 3 C -0.585059 -2.808712 3.216329 0
M  V30 4 S 0.463822 -1.348010 3.163128 0
M  V30 5 C 0.613287 -0.716950 1.447784 0
M  V30 6 S 1.833278 -1.194843 0.273774 0
M  V30 7 C 1.238022 -0.157707 -0.987096 0
M  V30 8 C 1.900493 -0.099395 -2.349705 0
M  V30 9 C 3.003007 -0.833700 -2.721315 0
M  V30 10 C 3.217280 -0.428224 -4.043788 0
M  V30 11 N 2.284443 0.495173 -4.418356 0
M  V30 12 N 1.481582 0.683426 -3.357534 0
M  V30 13 C 0.180324 0.483638 -0.487030 0
M  V30 14 C -0.116640 0.167669 0.784634 0
M  V30 15 C -1.292908 0.867743 1.359603 0
M  V30 16 O -1.705044 0.682455 2.549539 0
M  V30 17 N -2.032068 1.812159 0.564470 0
M  V30 18 C -2.054038 1.550048 -0.863404 0
M  V30 19 C -0.602066 1.473955 -1.280331 0
M  V30 20 H -2.414637 -2.511390 5.676397 0
M  V30 21 H -0.884495 -2.487060 6.568438 0
M  V30 22 H -1.125026 -1.288979 5.246401 0
M  V30 23 H -1.402457 -4.223400 4.593678 0
M  V30 24 H 0.241348 -3.706224 5.028115 0
M  V30 25 H -1.576185 -2.660506 2.778274 0
M  V30 26 H -0.083254 -3.587667 2.602784 0
M  V30 27 H 3.569444 -1.548303 -2.142859 0
M  V30 28 H 4.023238 -0.812155 -4.664066 0
M  V30 29 H 2.237959 0.945500 -5.359071 0
M  V30 30 H -2.530624 2.647304 0.988566 0
M  V30 31 H -2.571347 0.594744 -1.045607 0
M  V30 32 H -2.503171 2.393412 -1.430241 0
M  V30 33 H -0.610959 1.279264 -2.364971 0
M  V30 34 H -0.144602 2.473967 -1.043417 0
M  V30 END ATOM
M  V30 BEGIN BOND
M  V30 1 1 1 2
M  V30 2 1 2 3
M  V30 3 1 3 4
M  V30 4 1 4 5
M  V30 5 1 5 6
M  V30 6 1 6 7
M  V30 7 1 7 8
M  V30 8 1 8 9
M  V30 9 2 9 10
M  V30 10 1 10 11
M  V30 11 1 11 12
M  V30 12 2 7 13
M  V30 13 1 13 14
M  V30 14 1 14 15
M  V30 15 2 15 16
M  V30 16 1 15 17
M  V30 17 1 17 18
M  V30 18 1 18 19
M  V30 19 2 14 5
M  V30 20 2 12 8
M  V30 21 1 19 13
M  V30 22 1 1 20
M  V30 23 1 1 21
M  V30 24 1 1 22
M  V30 25 1 2 23
M  V30 26 1 2 24
M  V30 27 1 3 25
M  V30 28 1 3 26
M  V30 29 1 9 27
M  V30 30 1 10 28
M  V30 31 1 11 29
M  V30 32 1 17 30
M  V30 33 1 18 31
M  V30 34 1 18 32
M  V30 35 1 19 33
M  V30 36 1 19 34
M  V30 END BOND
M  V30 END CTAB
M  END
>  <Dataset>  (711) 
ChEMBL_Kinases

>  <Ligand_Instance>  (711) 
nan

>  <PDB_ID>  (711) 
nan

>  <Standardized_SMILES>  (711) 
CCCSc1sc(-c2cc[nH]n2)c2c1C(=O)NCC2

>  <Name>  (711) 
nan

>  <Pocket>  (711) 
nan

>  <ATP_Site>  (711) 
nan

>  <Peripheral>  (711) 
nan

>  <Num_H_Atoms_ProtBoundConf>  (711) 
nan

>  <Num_Resolved_Atoms>  (711) 
nan

>  <Num_Not_Resolved_Atoms>  (711) 
nan

$$$$
CHEMBL3799972
     RDKit          3D

  0  0  0  0  0  0  0  0  0  0999 V3000
M  V30 BEGIN CTAB
M  V30 COUNTS 31 33 0 0 0
M  V30 BEGIN ATOM
M  V30 1 C -1.056560 -1.111852 5.470428 0
M  V30 2 S -0.016722 0.123331 4.657229 0
M  V30 3 C 0.154531 -0.228007 2.940039 0
M  V30 4 S 1.501138 -1.278665 2.382057 0
M  V30 5 C 1.038781 -1.176194 0.610128 0
M  V30 6 C 1.851445 -1.926602 -0.333631 0
M  V30 7 C 2.988223 -2.640837 0.040574 0
M  V30 8 C 3.541042 -3.270105 -1.037986 0
M  V30 9 N 2.756593 -2.948055 -2.059925 0
M  V30 10 N 1.797593 -2.180572 -1.638115 0
M  V30 11 C -0.077183 -0.371092 0.543745 0
M  V30 12 C -0.475379 0.077288 1.782149 0
M  V30 13 C -1.698039 0.905463 1.884992 0
M  V30 14 O -2.180691 1.384091 2.971703 0
M  V30 15 N -2.422333 1.212297 0.698933 0
M  V30 16 C -1.530473 1.350084 -0.410452 0
M  V30 17 C -0.805719 0.041424 -0.678948 0 CFG=1
M  V30 18 C 0.115188 0.244100 -1.874727 0
M  V30 19 H -0.773203 -2.104833 5.029036 0
M  V30 20 H -0.847283 -1.184607 6.559720 0
M  V30 21 H -2.132158 -0.962371 5.251428 0
M  V30 22 H 3.513383 -2.798465 0.980607 0
M  V30 23 H 4.398297 -3.901843 -1.172161 0
M  V30 24 H 2.745936 -3.171746 -3.093561 0
M  V30 25 H -3.480329 1.328083 0.636559 0
M  V30 26 H -0.741051 2.113598 -0.305587 0
M  V30 27 H -2.179950 1.578051 -1.313508 0
M  V30 28 H -1.596372 -0.672040 -0.981296 0
M  V30 29 H -0.092550 -0.554517 -2.599388 0
M  V30 30 H 1.155060 0.426900 -1.616760 0
M  V30 31 H -0.296578 1.173381 -2.407819 0
M  V30 END ATOM
M  V30 BEGIN BOND
M  V30 1 1 1 2
M  V30 2 1 2 3
M  V30 3 1 3 4
M  V30 4 1 4 5
M  V30 5 1 5 6
M  V30 6 1 6 7
M  V30 7 2 7 8
M  V30 8 1 8 9
M  V30 9 1 9 10
M  V30 10 2 5 11
M  V30 11 1 11 12
M  V30 12 1 12 13
M  V30 13 2 13 14
M  V30 14 1 13 15
M  V30 15 1 15 16
M  V30 16 1 16 17
M  V30 17 1 17 18
M  V30 18 2 12 3
M  V30 19 2 10 6
M  V30 20 1 17 11
M  V30 21 1 1 19
M  V30 22 1 1 20
M  V30 23 1 1 21
M  V30 24 1 7 22
M  V30 25 1 8 23
M  V30 26 1 9 24
M  V30 27 1 15 25
M  V30 28 1 16 26
M  V30 29 1 16 27
M  V30 30 1 17 28 CFG=3
M  V30 31 1 18 29
M  V30 32 1 18 30
M  V30 33 1 18 31
M  V30 END BOND
M  V30 END CTAB
M  END
>  <Dataset>  (712) 
ChEMBL_Kinases

>  <Ligand_Instance>  (712) 
nan

>  <PDB_ID>  (712) 
nan

>  <Standardized_SMILES>  (712) 
CSc1sc(-c2cc[nH]n2)c2c1C(=O)NC[C@H]2C

>  <Name>  (712) 
nan

>  <Pocket>  (712) 
nan

>  <ATP_Site>  (712) 
nan

>  <Peripheral>  (712) 
nan

>  <Num_H_Atoms_ProtBoundConf>  (712) 
nan

>  <Num_Resolved_Atoms>  (712) 
nan

>  <Num_Not_Resolved_Atoms>  (712) 
nan

$$$$
CHEMBL501406
     RDKit          3D

  0  0  0  0  0  0  0  0  0  0999 V3000
M  V30 BEGIN CTAB
M  V30 COUNTS 17 18 0 0 0
M  V30 BEGIN ATOM
M  V30 1 N -0.658363 -1.695922 -0.302804 0
M  V30 2 C 0.213587 -1.156823 0.685905 0
M  V30 3 N 0.616064 -1.936376 1.722727 0
M  V30 4 N 1.415543 -1.235928 2.512857 0
M  V30 5 C 1.551568 0.014264 2.008895 0
M  V30 6 C 2.242371 1.145374 2.394766 0
M  V30 7 C 2.165179 2.307928 1.624099 0
M  V30 8 Br 3.132231 3.860892 2.181408 0
M  V30 9 C 1.384622 2.309119 0.466015 0
M  V30 10 C 0.677988 1.187010 0.051580 0
M  V30 11 C 0.797141 0.086197 0.849606 0
M  V30 12 H -0.412872 -2.643430 -0.718880 0
M  V30 13 H -1.539007 -1.308377 -0.712559 0
M  V30 14 H 1.869944 -1.582568 3.382329 0
M  V30 15 H 2.844924 1.140716 3.290881 0
M  V30 16 H 1.343993 3.225771 -0.111651 0
M  V30 17 H 0.072039 1.189210 -0.848151 0
M  V30 END ATOM
M  V30 BEGIN BOND
M  V30 1 1 1 2
M  V30 2 2 2 3
M  V30 3 1 3 4
M  V30 4 1 4 5
M  V30 5 2 5 6
M  V30 6 1 6 7
M  V30 7 1 7 8
M  V30 8 2 7 9
M  V30 9 1 9 10
M  V30 10 2 10 11
M  V30 11 1 11 2
M  V30 12 1 11 5
M  V30 13 1 1 12
M  V30 14 1 1 13
M  V30 15 1 4 14
M  V30 16 1 6 15
M  V30 17 1 9 16
M  V30 18 1 10 17
M  V30 END BOND
M  V30 END CTAB
M  END
>  <Dataset>  (713) 
ChEMBL_Kinases

>  <Ligand_Instance>  (713) 
nan

>  <PDB_ID>  (713) 
nan

>  <Standardized_SMILES>  (713) 
Nc1n[nH]c2cc(Br)ccc12

>  <Name>  (713) 
nan

>  <Pocket>  (713) 
nan

>  <ATP_Site>  (713) 
nan

>  <Peripheral>  (713) 
nan

>  <Num_H_Atoms_ProtBoundConf>  (713) 
nan

>  <Num_Resolved_Atoms>  (713) 
nan

>  <Num_Not_Resolved_Atoms>  (713) 
nan

$$$$
CHEMBL3799887
     RDKit          3D

  0  0  0  0  0  0  0  0  0  0999 V3000
M  V30 BEGIN CTAB
M  V30 COUNTS 41 43 0 0 0
M  V30 BEGIN ATOM
M  V30 1 C 0.225909 -3.527739 2.389997 0
M  V30 2 C 1.188124 -2.413977 2.400209 0
M  V30 3 N 0.653224 -1.084150 2.467662 0
M  V30 4 C 0.756658 -0.210972 1.315058 0
M  V30 5 C 0.814884 -0.817465 0.047081 0
M  V30 6 C 0.907592 0.026648 -1.034576 0
M  V30 7 C 0.976371 -0.581176 -2.375849 0
M  V30 8 C 1.688297 -1.535630 -3.067516 0
M  V30 9 N 1.210838 -1.569629 -4.333592 0
M  V30 10 N 0.236407 -0.692689 -4.487008 0
M  V30 11 C 0.063565 -0.068456 -3.311282 0
M  V30 12 C -1.002646 0.978143 -3.205832 0
M  V30 13 C 0.943481 1.416798 -0.916465 0
M  V30 14 C 0.883349 1.983851 0.362372 0
M  V30 15 C 0.789094 1.164934 1.482597 0
M  V30 16 C 0.716796 1.681741 2.843276 0
M  V30 17 O 0.748580 2.945394 2.996110 0
M  V30 18 N 0.616383 0.792634 3.939805 0
M  V30 19 C -0.018950 -0.497998 3.620634 0
M  V30 20 C -1.432859 -0.203462 3.226425 0
M  V30 21 C 0.101050 -1.306203 4.870992 0
M  V30 22 H -0.708531 -3.231495 1.860008 0
M  V30 23 H 0.041191 -4.021632 3.350686 0
M  V30 24 H 0.632863 -4.341422 1.751312 0
M  V30 25 H 1.827672 -2.513895 1.508014 0
M  V30 26 H 1.861009 -2.553038 3.302496 0
M  V30 27 H 0.787371 -1.880037 -0.083851 0
M  V30 28 H 2.447773 -2.041308 -2.489375 0
M  V30 29 H 1.655231 -2.256162 -5.000636 0
M  V30 30 H -1.258156 1.145735 -2.131165 0
M  V30 31 H -1.945609 0.642280 -3.677883 0
M  V30 32 H -0.662383 1.898362 -3.707961 0
M  V30 33 H 1.017637 2.054083 -1.766539 0
M  V30 34 H 0.909946 3.059456 0.498015 0
M  V30 35 H 0.988678 1.103935 4.873959 0
M  V30 36 H -1.684676 -0.601543 2.203174 0
M  V30 37 H -1.599528 0.909166 3.094226 0
M  V30 38 H -2.133221 -0.510009 4.002918 0
M  V30 39 H -0.646307 -2.142395 4.933397 0
M  V30 40 H -0.176546 -0.686096 5.750441 0
M  V30 41 H 1.132273 -1.610635 5.053745 0
M  V30 END ATOM
M  V30 BEGIN BOND
M  V30 1 1 1 2
M  V30 2 1 2 3
M  V30 3 1 3 4
M  V30 4 2 4 5
M  V30 5 1 5 6
M  V30 6 1 6 7
M  V30 7 2 7 8
M  V30 8 1 8 9
M  V30 9 1 9 10
M  V30 10 2 10 11
M  V30 11 1 11 12
M  V30 12 2 6 13
M  V30 13 1 13 14
M  V30 14 2 14 15
M  V30 15 1 15 16
M  V30 16 2 16 17
M  V30 17 1 16 18
M  V30 18 1 18 19
M  V30 19 1 19 20
M  V30 20 1 19 21
M  V30 21 1 19 3
M  V30 22 1 15 4
M  V30 23 1 11 7
M  V30 24 1 1 22
M  V30 25 1 1 23
M  V30 26 1 1 24
M  V30 27 1 2 25
M  V30 28 1 2 26
M  V30 29 1 5 27
M  V30 30 1 8 28
M  V30 31 1 9 29
M  V30 32 1 12 30
M  V30 33 1 12 31
M  V30 34 1 12 32
M  V30 35 1 13 33
M  V30 36 1 14 34
M  V30 37 1 18 35
M  V30 38 1 20 36
M  V30 39 1 20 37
M  V30 40 1 20 38
M  V30 41 1 21 39
M  V30 42 1 21 40
M  V30 43 1 21 41
M  V30 END BOND
M  V30 END CTAB
M  END
>  <Dataset>  (714) 
ChEMBL_Kinases

>  <Ligand_Instance>  (714) 
nan

>  <PDB_ID>  (714) 
nan

>  <Standardized_SMILES>  (714) 
CCN1c2cc(-c3c[nH]nc3C)ccc2C(=O)NC1(C)C

>  <Name>  (714) 
nan

>  <Pocket>  (714) 
nan

>  <ATP_Site>  (714) 
nan

>  <Peripheral>  (714) 
nan

>  <Num_H_Atoms_ProtBoundConf>  (714) 
nan

>  <Num_Resolved_Atoms>  (714) 
nan

>  <Num_Not_Resolved_Atoms>  (714) 
nan

$$$$
CHEMBL501601
     RDKit          3D

  0  0  0  0  0  0  0  0  0  0999 V3000
M  V30 BEGIN CTAB
M  V30 COUNTS 33 35 0 0 0
M  V30 BEGIN ATOM
M  V30 1 C -1.426006 0.828874 5.601015 0
M  V30 2 C -0.776636 -0.333738 5.233541 0
M  V30 3 C -0.457889 -0.564451 3.898426 0
M  V30 4 C 0.187989 -1.695077 3.445556 0
M  V30 5 C 0.450451 -1.805748 2.076887 0
M  V30 6 C 0.070837 -0.799323 1.181769 0
M  V30 7 O 0.421169 -1.108715 -0.095935 0
M  V30 8 C 0.227630 -0.386103 -1.263351 0
M  V30 9 C 1.489775 0.023293 -1.976639 0
M  V30 10 C 1.664033 -0.743580 -3.250879 0
M  V30 11 N 1.355046 -2.139755 -2.999968 0
M  V30 12 C -0.079793 -2.297367 -2.845007 0
M  V30 13 C -0.707077 -1.050290 -2.245668 0
M  V30 14 C -0.572906 0.310558 1.690893 0
M  V30 15 C -0.842200 0.440892 3.038210 0
M  V30 16 C -1.490421 1.610192 3.375314 0
M  V30 17 N -1.777643 1.783487 4.695914 0
M  V30 18 H -1.675401 1.009527 6.645224 0
M  V30 19 H -0.497347 -1.092902 5.955724 0
M  V30 20 H 0.466516 -2.450813 4.161007 0
M  V30 21 H 0.958067 -2.725105 1.825431 0
M  V30 22 H -0.302313 0.563605 -0.966652 0
M  V30 23 H 1.487919 1.119327 -2.218156 0
M  V30 24 H 2.396098 -0.111951 -1.346210 0
M  V30 25 H 2.669373 -0.661128 -3.667270 0
M  V30 26 H 0.960914 -0.365995 -4.012288 0
M  V30 27 H 1.828945 -2.482730 -2.139408 0
M  V30 28 H -0.379015 -3.180348 -2.273938 0
M  V30 29 H -0.480803 -2.374279 -3.882979 0
M  V30 30 H -1.656483 -1.359064 -1.781791 0
M  V30 31 H -0.975131 -0.332281 -3.048474 0
M  V30 32 H -0.828577 1.029571 0.948156 0
M  V30 33 H -1.768143 2.359347 2.676653 0
M  V30 END ATOM
M  V30 BEGIN BOND
M  V30 1 2 1 2
M  V30 2 1 2 3
M  V30 3 2 3 4
M  V30 4 1 4 5
M  V30 5 2 5 6
M  V30 6 1 6 7
M  V30 7 1 7 8
M  V30 8 1 8 9
M  V30 9 1 9 10
M  V30 10 1 10 11
M  V30 11 1 11 12
M  V30 12 1 12 13
M  V30 13 1 6 14
M  V30 14 2 14 15
M  V30 15 1 15 16
M  V30 16 2 16 17
M  V30 17 1 17 1
M  V30 18 1 15 3
M  V30 19 1 13 8
M  V30 20 1 1 18
M  V30 21 1 2 19
M  V30 22 1 4 20
M  V30 23 1 5 21
M  V30 24 1 8 22
M  V30 25 1 9 23
M  V30 26 1 9 24
M  V30 27 1 10 25
M  V30 28 1 10 26
M  V30 29 1 11 27
M  V30 30 1 12 28
M  V30 31 1 12 29
M  V30 32 1 13 30
M  V30 33 1 13 31
M  V30 34 1 14 32
M  V30 35 1 16 33
M  V30 END BOND
M  V30 END CTAB
M  END
>  <Dataset>  (715) 
ChEMBL_Kinases

>  <Ligand_Instance>  (715) 
nan

>  <PDB_ID>  (715) 
nan

>  <Standardized_SMILES>  (715) 
c1cc2ccc(OC3CCNCC3)cc2cn1

>  <Name>  (715) 
nan

>  <Pocket>  (715) 
nan

>  <ATP_Site>  (715) 
nan

>  <Peripheral>  (715) 
nan

>  <Num_H_Atoms_ProtBoundConf>  (715) 
nan

>  <Num_Resolved_Atoms>  (715) 
nan

>  <Num_Not_Resolved_Atoms>  (715) 
nan

$$$$
CHEMBL3799746
     RDKit          3D

  0  0  0  0  0  0  0  0  0  0999 V3000
M  V30 BEGIN CTAB
M  V30 COUNTS 50 53 0 0 0
M  V30 BEGIN ATOM
M  V30 1 C 6.442876 -3.954980 3.232377 0
M  V30 2 N 6.764647 -2.780517 2.414937 0
M  V30 3 C 5.789220 -2.596945 1.398600 0
M  V30 4 O 4.823116 -3.408448 1.319085 0
M  V30 5 C 5.927184 -1.463168 0.459915 0
M  V30 6 C 4.961495 -1.306086 -0.523286 0
M  V30 7 C 5.085116 -0.235225 -1.415672 0
M  V30 8 O 4.059422 -0.191667 -2.344901 0
M  V30 9 C 2.869568 0.492140 -2.161953 0
M  V30 10 C 2.565256 1.795688 -2.488837 0
M  V30 11 C 1.366957 2.394789 -2.274939 0
M  V30 12 C 0.326207 1.705486 -1.688680 0
M  V30 13 N -0.894324 2.097584 -1.398599 0
M  V30 14 C -1.759244 1.505926 -0.905159 0
M  V30 15 N -3.141608 1.646043 -0.475956 0
M  V30 16 C -3.885891 0.612390 0.122204 0
M  V30 17 O -3.346395 -0.508153 0.307429 0
M  V30 18 N -5.230019 0.880915 0.495793 0
M  V30 19 C -5.918492 -0.233178 1.101372 0
M  V30 20 C -6.635138 -1.153915 0.353426 0
M  V30 21 C -7.255645 -2.184164 1.049979 0
M  V30 22 C -7.163780 -2.287586 2.423217 0
M  V30 23 Cl -7.952228 -3.594008 3.292915 0
M  V30 24 C -6.441212 -1.356266 3.160166 0
M  V30 25 C -6.300598 -1.406493 4.638724 0
M  V30 26 F -5.524838 -0.352463 5.117537 0
M  V30 27 F -5.775002 -2.616539 5.075456 0
M  V30 28 F -7.568389 -1.247476 5.185508 0
M  V30 29 C -5.812851 -0.317927 2.483350 0
M  V30 30 S -0.952461 -0.192097 -0.620536 0
M  V30 31 C 0.649644 0.373430 -1.358938 0
M  V30 32 C 1.876342 -0.258408 -1.571767 0
M  V30 33 C 6.165815 0.620226 -1.277876 0
M  V30 34 C 7.091991 0.428590 -0.296656 0
M  V30 35 N 6.976523 -0.599012 0.562417 0
M  V30 36 H 5.631493 -3.649176 3.918217 0
M  V30 37 H 7.350658 -4.171218 3.834046 0
M  V30 38 H 6.189919 -4.828257 2.597680 0
M  V30 39 H 7.591425 -2.138852 2.532266 0
M  V30 40 H 4.151692 -2.027421 -0.551573 0
M  V30 41 H 3.407415 2.331461 -2.955946 0
M  V30 42 H 1.305828 3.432868 -2.597597 0
M  V30 43 H -3.475298 2.589999 -0.673550 0
M  V30 44 H -5.635898 1.834369 0.319897 0
M  V30 45 H -6.688931 -1.047995 -0.712398 0
M  V30 46 H -7.819364 -2.910097 0.471289 0
M  V30 47 H -5.245742 0.414770 3.051686 0
M  V30 48 H 1.874944 -1.290116 -1.229710 0
M  V30 49 H 6.167458 1.398113 -2.002489 0
M  V30 50 H 7.912657 1.111625 -0.223206 0
M  V30 END ATOM
M  V30 BEGIN BOND
M  V30 1 1 1 2
M  V30 2 1 2 3
M  V30 3 2 3 4
M  V30 4 1 3 5
M  V30 5 2 5 6
M  V30 6 1 6 7
M  V30 7 1 7 8
M  V30 8 1 8 9
M  V30 9 2 9 10
M  V30 10 1 10 11
M  V30 11 2 11 12
M  V30 12 1 12 13
M  V30 13 2 13 14
M  V30 14 1 14 15
M  V30 15 1 15 16
M  V30 16 2 16 17
M  V30 17 1 16 18
M  V30 18 1 18 19
M  V30 19 2 19 20
M  V30 20 1 20 21
M  V30 21 2 21 22
M  V30 22 1 22 23
M  V30 23 1 22 24
M  V30 24 1 24 25
M  V30 25 1 25 26
M  V30 26 1 25 27
M  V30 27 1 25 28
M  V30 28 2 24 29
M  V30 29 1 14 30
M  V30 30 1 30 31
M  V30 31 2 31 32
M  V30 32 2 7 33
M  V30 33 1 33 34
M  V30 34 2 34 35
M  V30 35 1 35 5
M  V30 36 1 32 9
M  V30 37 1 31 12
M  V30 38 1 29 19
M  V30 39 1 1 36
M  V30 40 1 1 37
M  V30 41 1 1 38
M  V30 42 1 2 39
M  V30 43 1 6 40
M  V30 44 1 10 41
M  V30 45 1 11 42
M  V30 46 1 15 43
M  V30 47 1 18 44
M  V30 48 1 20 45
M  V30 49 1 21 46
M  V30 50 1 29 47
M  V30 51 1 32 48
M  V30 52 1 33 49
M  V30 53 1 34 50
M  V30 END BOND
M  V30 END CTAB
M  END
>  <Dataset>  (716) 
ChEMBL_Kinases

>  <Ligand_Instance>  (716) 
nan

>  <PDB_ID>  (716) 
nan

>  <Standardized_SMILES>  (716) 
CNC(=O)c1cc(Oc2ccc3nc(NC(=O)Nc4ccc(Cl)c(C(F)(F)F)c4)sc3c2)ccn1

>  <Name>  (716) 
nan

>  <Pocket>  (716) 
nan

>  <ATP_Site>  (716) 
nan

>  <Peripheral>  (716) 
nan

>  <Num_H_Atoms_ProtBoundConf>  (716) 
nan

>  <Num_Resolved_Atoms>  (716) 
nan

>  <Num_Not_Resolved_Atoms>  (716) 
nan

$$$$
CHEMBL3799852
     RDKit          3D

  0  0  0  0  0  0  0  0  0  0999 V3000
M  V30 BEGIN CTAB
M  V30 COUNTS 34 36 0 0 0
M  V30 BEGIN ATOM
M  V30 1 C 1.663334 -1.355798 2.879358 0
M  V30 2 C 0.172219 -1.072969 2.866801 0
M  V30 3 C -0.482344 -1.431604 1.570510 0 CFG=2
M  V30 4 C -0.293066 -2.900244 1.308651 0
M  V30 5 N 1.004506 -3.236219 0.753059 0
M  V30 6 C 1.425180 -2.382222 -0.304509 0
M  V30 7 O 2.281458 -2.875664 -1.087085 0
M  V30 8 C 0.894956 -1.021497 -0.467159 0
M  V30 9 C 1.279678 -0.190446 -1.486119 0
M  V30 10 S 2.419658 -0.387980 -2.818840 0
M  V30 11 C 1.476681 -1.094252 -4.217407 0
M  V30 12 S 0.314789 1.302381 -1.198462 0
M  V30 13 C -0.519730 0.684559 0.260607 0
M  V30 14 C -1.480058 1.510683 0.956725 0
M  V30 15 C -1.834814 2.796270 0.605997 0
M  V30 16 C -2.779242 3.266456 1.494649 0
M  V30 17 N -2.992703 2.272247 2.374795 0
M  V30 18 N -2.223403 1.252772 2.043797 0
M  V30 19 C -0.035565 -0.576838 0.441811 0
M  V30 20 H 2.189056 -0.868837 2.035593 0
M  V30 21 H 1.875115 -2.439791 2.825970 0
M  V30 22 H 2.091992 -1.021611 3.865430 0
M  V30 23 H -0.054011 -0.046175 3.191566 0
M  V30 24 H -0.285520 -1.756352 3.641146 0
M  V30 25 H -1.595404 -1.320898 1.749995 0
M  V30 26 H -1.083390 -3.323395 0.657754 0
M  V30 27 H -0.377739 -3.428150 2.280353 0
M  V30 28 H 1.628800 -4.034883 1.063633 0
M  V30 29 H 0.416095 -0.710006 -4.160188 0
M  V30 30 H 1.378360 -2.180746 -3.980662 0
M  V30 31 H 1.924893 -0.878627 -5.186927 0
M  V30 32 H -1.490959 3.418936 -0.207564 0
M  V30 33 H -3.261518 4.238376 1.496682 0
M  V30 34 H -3.648913 2.249040 3.208283 0
M  V30 END ATOM
M  V30 BEGIN BOND
M  V30 1 1 1 2
M  V30 2 1 2 3
M  V30 3 1 3 4
M  V30 4 1 4 5
M  V30 5 1 5 6
M  V30 6 2 6 7
M  V30 7 1 6 8
M  V30 8 2 8 9
M  V30 9 1 9 10
M  V30 10 1 10 11
M  V30 11 1 9 12
M  V30 12 1 12 13
M  V30 13 1 13 14
M  V30 14 1 14 15
M  V30 15 2 15 16
M  V30 16 1 16 17
M  V30 17 1 17 18
M  V30 18 2 13 19
M  V30 19 1 19 3
M  V30 20 1 19 8
M  V30 21 2 18 14
M  V30 22 1 1 20
M  V30 23 1 1 21
M  V30 24 1 1 22
M  V30 25 1 2 23
M  V30 26 1 2 24
M  V30 27 1 3 25 CFG=1
M  V30 28 1 4 26
M  V30 29 1 4 27
M  V30 30 1 5 28
M  V30 31 1 11 29
M  V30 32 1 11 30
M  V30 33 1 11 31
M  V30 34 1 15 32
M  V30 35 1 16 33
M  V30 36 1 17 34
M  V30 END BOND
M  V30 END CTAB
M  END
>  <Dataset>  (717) 
ChEMBL_Kinases

>  <Ligand_Instance>  (717) 
nan

>  <PDB_ID>  (717) 
nan

>  <Standardized_SMILES>  (717) 
CC[C@@H]1CNC(=O)c2c(SC)sc(-c3cc[nH]n3)c21

>  <Name>  (717) 
nan

>  <Pocket>  (717) 
nan

>  <ATP_Site>  (717) 
nan

>  <Peripheral>  (717) 
nan

>  <Num_H_Atoms_ProtBoundConf>  (717) 
nan

>  <Num_Resolved_Atoms>  (717) 
nan

>  <Num_Not_Resolved_Atoms>  (717) 
nan

$$$$
CHEMBL3799826
     RDKit          3D

  0  0  0  0  0  0  0  0  0  0999 V3000
M  V30 BEGIN CTAB
M  V30 COUNTS 55 59 0 0 0
M  V30 BEGIN ATOM
M  V30 1 C 3.073848 -5.203277 5.152613 0
M  V30 2 N 2.650916 -3.898717 4.692508 0
M  V30 3 C 2.626362 -3.506170 3.405250 0
M  V30 4 C 2.160912 -2.192730 3.384725 0
M  V30 5 C 1.915770 -1.238009 2.325596 0
M  V30 6 C 2.035410 0.131228 2.433664 0
M  V30 7 C 1.777909 0.960771 1.362258 0
M  V30 8 C 1.382247 0.465275 0.108917 0
M  V30 9 C 1.180232 1.528479 -0.861711 0
M  V30 10 C 2.235747 2.439643 -0.993159 0
M  V30 11 N 2.162702 3.455494 -1.869011 0
M  V30 12 C 1.028338 3.522985 -2.586279 0
M  V30 13 C -0.067562 2.677102 -2.531744 0
M  V30 14 C -1.236423 2.915155 -3.409846 0
M  V30 15 F -2.397858 3.131576 -2.695456 0
M  V30 16 F -1.015710 4.072730 -4.133974 0
M  V30 17 F -1.402686 1.913969 -4.342329 0
M  V30 18 C 0.033656 1.636397 -1.618837 0
M  V30 19 N -1.072513 0.756155 -1.534388 0
M  V30 20 C -2.054529 1.138967 -0.575274 0
M  V30 21 C -2.104334 0.121601 0.532085 0
M  V30 22 C -2.337243 -1.272678 0.043961 0
M  V30 23 C -1.949508 -1.561913 -1.354280 0
M  V30 24 C -1.474772 -0.445871 -2.194706 0
M  V30 25 C -3.817852 -1.654332 0.202022 0
M  V30 26 N -3.743374 -3.040069 0.672811 0
M  V30 27 C -2.404352 -3.375882 1.008151 0
M  V30 28 O -1.894075 -4.488413 1.301363 0
M  V30 29 O -1.697891 -2.183290 0.954913 0
M  V30 30 C 1.268477 -0.881645 0.014389 0
M  V30 31 C 1.526643 -1.706936 1.087991 0
M  V30 32 C 1.921503 -1.852381 4.707917 0
M  V30 33 N 2.228725 -2.910101 5.480507 0
M  V30 34 H 2.549668 -5.505596 6.076333 0
M  V30 35 H 4.185361 -5.256092 5.308592 0
M  V30 36 H 2.854265 -5.993219 4.388000 0
M  V30 37 H 2.888049 -4.015553 2.505706 0
M  V30 38 H 2.341029 0.509507 3.403013 0
M  V30 39 H 1.912826 2.022923 1.591403 0
M  V30 40 H 3.135327 2.333993 -0.381486 0
M  V30 41 H 0.968529 4.343517 -3.294517 0
M  V30 42 H -3.086768 1.137983 -1.031475 0
M  V30 43 H -1.924561 2.117454 -0.102141 0
M  V30 44 H -3.001552 0.405902 1.158821 0
M  V30 45 H -1.258663 0.198740 1.245534 0
M  V30 46 H -1.105277 -2.318733 -1.319810 0
M  V30 47 H -2.767287 -2.117546 -1.882599 0
M  V30 48 H -2.322693 -0.159896 -2.886739 0
M  V30 49 H -0.679147 -0.775803 -2.926682 0
M  V30 50 H -4.349276 -1.681834 -0.762907 0
M  V30 51 H -4.312096 -1.006601 0.928941 0
M  V30 52 H -4.560825 -3.683707 0.748763 0
M  V30 53 H 0.977033 -1.219351 -0.946128 0
M  V30 54 H 1.400738 -2.760107 0.887901 0
M  V30 55 H 1.561687 -0.972029 5.228080 0
M  V30 END ATOM
M  V30 BEGIN BOND
M  V30 1 1 1 2
M  V30 2 1 2 3
M  V30 3 2 3 4
M  V30 4 1 4 5
M  V30 5 2 5 6
M  V30 6 1 6 7
M  V30 7 2 7 8
M  V30 8 1 8 9
M  V30 9 2 9 10
M  V30 10 1 10 11
M  V30 11 2 11 12
M  V30 12 1 12 13
M  V30 13 1 13 14
M  V30 14 1 14 15
M  V30 15 1 14 16
M  V30 16 1 14 17
M  V30 17 2 13 18
M  V30 18 1 18 19
M  V30 19 1 19 20
M  V30 20 1 20 21
M  V30 21 1 21 22
M  V30 22 1 22 23
M  V30 23 1 23 24
M  V30 24 1 22 25
M  V30 25 1 25 26
M  V30 26 1 26 27
M  V30 27 2 27 28
M  V30 28 1 27 29
M  V30 29 1 8 30
M  V30 30 2 30 31
M  V30 31 1 4 32
M  V30 32 2 32 33
M  V30 33 1 33 2
M  V30 34 1 31 5
M  V30 35 1 18 9
M  V30 36 1 24 19
M  V30 37 1 29 22
M  V30 38 1 1 34
M  V30 39 1 1 35
M  V30 40 1 1 36
M  V30 41 1 3 37
M  V30 42 1 6 38
M  V30 43 1 7 39
M  V30 44 1 10 40
M  V30 45 1 12 41
M  V30 46 1 20 42
M  V30 47 1 20 43
M  V30 48 1 21 44
M  V30 49 1 21 45
M  V30 50 1 23 46
M  V30 51 1 23 47
M  V30 52 1 24 48
M  V30 53 1 24 49
M  V30 54 1 25 50
M  V30 55 1 25 51
M  V30 56 1 26 52
M  V30 57 1 30 53
M  V30 58 1 31 54
M  V30 59 1 32 55
M  V30 END BOND
M  V30 END CTAB
M  END
>  <Dataset>  (718) 
ChEMBL_Kinases

>  <Ligand_Instance>  (718) 
nan

>  <PDB_ID>  (718) 
nan

>  <Standardized_SMILES>  (718) 
Cn1cc(-c2ccc(-c3cncc(C(F)(F)F)c3N3CCC4(CC3)CNC(=O)O4)cc2)cn1

>  <Name>  (718) 
nan

>  <Pocket>  (718) 
nan

>  <ATP_Site>  (718) 
nan

>  <Peripheral>  (718) 
nan

>  <Num_H_Atoms_ProtBoundConf>  (718) 
nan

>  <Num_Resolved_Atoms>  (718) 
nan

>  <Num_Not_Resolved_Atoms>  (718) 
nan

$$$$
CHEMBL502124
     RDKit          3D

  0  0  0  0  0  0  0  0  0  0999 V3000
M  V30 BEGIN CTAB
M  V30 COUNTS 73 77 0 0 0
M  V30 BEGIN ATOM
M  V30 1 C -3.718721 -4.529531 -2.129100 0
M  V30 2 C -2.778910 -4.783520 -3.295567 0
M  V30 3 N -1.712261 -3.860551 -3.194466 0
M  V30 4 C -1.999658 -2.506867 -3.406681 0
M  V30 5 C -0.873792 -1.537577 -3.364090 0
M  V30 6 N 0.313165 -2.156557 -3.878972 0
M  V30 7 C 1.381002 -1.383846 -4.409492 0
M  V30 8 O 2.498571 -1.791708 -4.895974 0
M  V30 9 C 1.438582 0.113073 -4.516558 0
M  V30 10 C 2.538347 0.646221 -3.660924 0
M  V30 11 C 3.847413 0.946172 -3.947149 0
M  V30 12 C 4.684713 1.424935 -2.961428 0
M  V30 13 C 4.263396 1.624802 -1.663140 0
M  V30 14 N 5.170073 2.114764 -0.659803 0
M  V30 15 C 4.546544 2.368868 0.611378 0
M  V30 16 N 4.111079 3.605560 1.006026 0
M  V30 17 C 3.516956 3.733020 2.224185 0
M  V30 18 C 3.380455 2.587175 3.018547 0
M  V30 19 F 2.758671 2.908100 4.194297 0
M  V30 20 C 3.825175 1.352564 2.603790 0
M  V30 21 N 3.536008 0.430973 3.632491 0
M  V30 22 C 2.151147 0.179790 3.848537 0
M  V30 23 C 1.159973 0.775813 3.074367 0
M  V30 24 C -0.193830 0.514380 3.334920 0
M  V30 25 C -0.585197 -0.327986 4.351688 0
M  V30 26 C -1.977800 -0.629188 4.649983 0
M  V30 27 O -2.268057 -1.282583 5.685609 0
M  V30 28 N -3.059138 -0.229720 3.837612 0
M  V30 29 C -4.432336 -0.495358 4.096177 0
M  V30 30 C -4.910977 -1.688994 3.604272 0
M  V30 31 C -6.209130 -2.109895 3.756219 0
M  V30 32 C -6.993963 -1.215687 4.453357 0
M  V30 33 C -6.634038 -0.000874 4.990530 0
M  V30 34 C -5.294705 0.348914 4.789334 0
M  V30 35 Cl -4.614797 1.866983 5.395077 0
M  V30 36 C 0.411004 -0.908495 5.105534 0
M  V30 37 C 1.745919 -0.664141 4.864600 0
M  V30 38 N 4.400449 1.285205 1.399029 0
M  V30 39 C 2.947336 1.317264 -1.397357 0
M  V30 40 C 2.074958 0.837217 -2.347820 0
M  V30 41 C 0.614875 -3.572030 -3.939308 0
M  V30 42 C -0.395073 -4.326387 -3.162094 0
M  V30 43 H -3.226369 -3.953180 -1.328490 0
M  V30 44 H -4.591449 -3.931365 -2.468829 0
M  V30 45 H -4.087488 -5.468795 -1.655003 0
M  V30 46 H -2.345327 -5.803545 -3.091421 0
M  V30 47 H -3.336410 -4.756918 -4.241813 0
M  V30 48 H -2.774829 -2.136986 -2.664237 0
M  V30 49 H -2.504506 -2.366811 -4.392163 0
M  V30 50 H -1.117745 -0.576918 -3.815527 0
M  V30 51 H -0.677488 -1.300269 -2.274347 0
M  V30 52 H 1.669171 0.406094 -5.543378 0
M  V30 53 H 0.475792 0.568881 -4.261765 0
M  V30 54 H 4.074974 0.759420 -4.981503 0
M  V30 55 H 5.688451 1.635020 -3.267216 0
M  V30 56 H 6.160678 2.239580 -0.919943 0
M  V30 57 H 3.186610 4.729063 2.486796 0
M  V30 58 H 4.232439 -0.059264 4.220105 0
M  V30 59 H 1.376320 1.435131 2.272064 0
M  V30 60 H -0.939684 0.997155 2.710771 0
M  V30 61 H -2.872369 0.317716 2.950003 0
M  V30 62 H -4.247212 -2.373757 3.054199 0
M  V30 63 H -6.642171 -3.022715 3.400756 0
M  V30 64 H -8.042816 -1.477192 4.616097 0
M  V30 65 H -7.281476 0.662822 5.522231 0
M  V30 66 H 0.218388 -1.592313 5.933778 0
M  V30 67 H 2.549634 -1.126683 5.460955 0
M  V30 68 H 2.609624 1.470141 -0.377258 0
M  V30 69 H 1.054029 0.637984 -1.987366 0
M  V30 70 H 1.627848 -3.695092 -3.454519 0
M  V30 71 H 0.766760 -3.910759 -4.979354 0
M  V30 72 H -0.043184 -4.407383 -2.096453 0
M  V30 73 H -0.382890 -5.384984 -3.561674 0
M  V30 END ATOM
M  V30 BEGIN BOND
M  V30 1 1 1 2
M  V30 2 1 2 3
M  V30 3 1 3 4
M  V30 4 1 4 5
M  V30 5 1 5 6
M  V30 6 1 6 7
M  V30 7 2 7 8
M  V30 8 1 7 9
M  V30 9 1 9 10
M  V30 10 2 10 11
M  V30 11 1 11 12
M  V30 12 2 12 13
M  V30 13 1 13 14
M  V30 14 1 14 15
M  V30 15 2 15 16
M  V30 16 1 16 17
M  V30 17 2 17 18
M  V30 18 1 18 19
M  V30 19 1 18 20
M  V30 20 1 20 21
M  V30 21 1 21 22
M  V30 22 2 22 23
M  V30 23 1 23 24
M  V30 24 2 24 25
M  V30 25 1 25 26
M  V30 26 2 26 27
M  V30 27 1 26 28
M  V30 28 1 28 29
M  V30 29 2 29 30
M  V30 30 1 30 31
M  V30 31 2 31 32
M  V30 32 1 32 33
M  V30 33 2 33 34
M  V30 34 1 34 35
M  V30 35 1 25 36
M  V30 36 2 36 37
M  V30 37 2 20 38
M  V30 38 1 13 39
M  V30 39 2 39 40
M  V30 40 1 6 41
M  V30 41 1 41 42
M  V30 42 1 42 3
M  V30 43 1 40 10
M  V30 44 1 38 15
M  V30 45 1 37 22
M  V30 46 1 34 29
M  V30 47 1 1 43
M  V30 48 1 1 44
M  V30 49 1 1 45
M  V30 50 1 2 46
M  V30 51 1 2 47
M  V30 52 1 4 48
M  V30 53 1 4 49
M  V30 54 1 5 50
M  V30 55 1 5 51
M  V30 56 1 9 52
M  V30 57 1 9 53
M  V30 58 1 11 54
M  V30 59 1 12 55
M  V30 60 1 14 56
M  V30 61 1 17 57
M  V30 62 1 21 58
M  V30 63 1 23 59
M  V30 64 1 24 60
M  V30 65 1 28 61
M  V30 66 1 30 62
M  V30 67 1 31 63
M  V30 68 1 32 64
M  V30 69 1 33 65
M  V30 70 1 36 66
M  V30 71 1 37 67
M  V30 72 1 39 68
M  V30 73 1 40 69
M  V30 74 1 41 70
M  V30 75 1 41 71
M  V30 76 1 42 72
M  V30 77 1 42 73
M  V30 END BOND
M  V30 END CTAB
M  END
>  <Dataset>  (719) 
ChEMBL_Kinases

>  <Ligand_Instance>  (719) 
nan

>  <PDB_ID>  (719) 
nan

>  <Standardized_SMILES>  (719) 
CCN1CCN(C(=O)Cc2ccc(Nc3ncc(F)c(Nc4ccc(C(=O)Nc5ccccc5Cl)cc4)n3)cc2)CC1

>  <Name>  (719) 
nan

>  <Pocket>  (719) 
nan

>  <ATP_Site>  (719) 
nan

>  <Peripheral>  (719) 
nan

>  <Num_H_Atoms_ProtBoundConf>  (719) 
nan

>  <Num_Resolved_Atoms>  (719) 
nan

>  <Num_Not_Resolved_Atoms>  (719) 
nan

$$$$
CHEMBL3799824
     RDKit          3D

  0  0  0  0  0  0  0  0  0  0999 V3000
M  V30 BEGIN CTAB
M  V30 COUNTS 52 56 0 0 0
M  V30 BEGIN ATOM
M  V30 1 C 3.387692 -6.250401 1.639491 0
M  V30 2 N 2.711120 -4.993671 1.939202 0
M  V30 3 C 3.109411 -3.847226 1.196152 0
M  V30 4 N 4.045696 -3.748871 0.229379 0
M  V30 5 N 4.127323 -2.511501 -0.224080 0
M  V30 6 C 3.254789 -1.708948 0.408216 0
M  V30 7 C 2.892787 -0.356198 0.363908 0
M  V30 8 C 1.896143 0.163927 1.205160 0
M  V30 9 C 1.766458 1.583793 0.923385 0
M  V30 10 C 2.855390 2.430505 0.877932 0
M  V30 11 N 2.687527 3.738938 0.615783 0
M  V30 12 C 1.468669 4.277176 0.388697 0
M  V30 13 C 0.356279 3.428430 0.432064 0
M  V30 14 Cl -1.170667 4.269286 0.116502 0
M  V30 15 C 0.495352 2.060430 0.702322 0
M  V30 16 N -0.761084 1.439376 0.685685 0
M  V30 17 C -1.737389 1.217040 1.700350 0
M  V30 18 C -2.333023 -0.165863 1.579780 0
M  V30 19 C -2.948130 -0.429541 0.225580 0
M  V30 20 C -4.438875 -0.610942 0.313406 0
M  V30 21 C -4.765831 -1.257574 -1.037970 0
M  V30 22 N -3.557199 -2.044547 -1.259692 0
M  V30 23 C -2.508816 -1.747521 -0.318478 0
M  V30 24 O -1.550251 -2.538720 -0.149347 0
M  V30 25 C -2.592811 0.675427 -0.749122 0
M  V30 26 C -1.099642 0.937689 -0.653848 0
M  V30 27 C 1.287971 -0.710850 2.077402 0
M  V30 28 C 1.646926 -2.037735 2.116684 0
M  V30 29 C 2.624391 -2.557750 1.294266 0
M  V30 30 H 3.148967 -6.565847 0.597432 0
M  V30 31 H 3.078781 -7.033012 2.371163 0
M  V30 32 H 4.489774 -6.183312 1.748244 0
M  V30 33 H 1.966358 -4.874369 2.648849 0
M  V30 34 H 4.780582 -2.184058 -0.976342 0
M  V30 35 H 3.489095 0.156523 -0.387174 0
M  V30 36 H 3.807781 1.949904 1.066618 0
M  V30 37 H 1.407376 5.336681 0.184156 0
M  V30 38 H -2.581528 1.951539 1.575101 0
M  V30 39 H -1.333166 1.315726 2.714996 0
M  V30 40 H -1.570945 -0.939323 1.762292 0
M  V30 41 H -3.117285 -0.316325 2.376907 0
M  V30 42 H -4.623682 -1.413916 1.058151 0
M  V30 43 H -5.001886 0.307671 0.490394 0
M  V30 44 H -4.845937 -0.483598 -1.831653 0
M  V30 45 H -5.660120 -1.904561 -0.975198 0
M  V30 46 H -3.538972 -2.743477 -2.058073 0
M  V30 47 H -3.121391 1.599887 -0.503313 0
M  V30 48 H -2.808260 0.343245 -1.769236 0
M  V30 49 H -0.482972 0.075662 -0.916084 0
M  V30 50 H -0.905989 1.803173 -1.349839 0
M  V30 51 H 0.552854 -0.183693 2.664438 0
M  V30 52 H 1.084698 -2.615223 2.853049 0
M  V30 END ATOM
M  V30 BEGIN BOND
M  V30 1 1 1 2
M  V30 2 1 2 3
M  V30 3 2 3 4
M  V30 4 1 4 5
M  V30 5 1 5 6
M  V30 6 2 6 7
M  V30 7 1 7 8
M  V30 8 1 8 9
M  V30 9 2 9 10
M  V30 10 1 10 11
M  V30 11 2 11 12
M  V30 12 1 12 13
M  V30 13 1 13 14
M  V30 14 2 13 15
M  V30 15 1 15 16
M  V30 16 1 16 17
M  V30 17 1 17 18
M  V30 18 1 18 19
M  V30 19 1 19 20
M  V30 20 1 20 21
M  V30 21 1 21 22
M  V30 22 1 22 23
M  V30 23 2 23 24
M  V30 24 1 19 25
M  V30 25 1 25 26
M  V30 26 2 8 27
M  V30 27 1 27 28
M  V30 28 2 28 29
M  V30 29 1 29 3
M  V30 30 1 29 6
M  V30 31 1 15 9
M  V30 32 1 26 16
M  V30 33 1 23 19
M  V30 34 1 1 30
M  V30 35 1 1 31
M  V30 36 1 1 32
M  V30 37 1 2 33
M  V30 38 1 5 34
M  V30 39 1 7 35
M  V30 40 1 10 36
M  V30 41 1 12 37
M  V30 42 1 17 38
M  V30 43 1 17 39
M  V30 44 1 18 40
M  V30 45 1 18 41
M  V30 46 1 20 42
M  V30 47 1 20 43
M  V30 48 1 21 44
M  V30 49 1 21 45
M  V30 50 1 22 46
M  V30 51 1 25 47
M  V30 52 1 25 48
M  V30 53 1 26 49
M  V30 54 1 26 50
M  V30 55 1 27 51
M  V30 56 1 28 52
M  V30 END BOND
M  V30 END CTAB
M  END
>  <Dataset>  (720) 
ChEMBL_Kinases

>  <Ligand_Instance>  (720) 
nan

>  <PDB_ID>  (720) 
nan

>  <Standardized_SMILES>  (720) 
CNc1n[nH]c2cc(-c3cncc(Cl)c3N3CCC4(CCNC4=O)CC3)ccc12

>  <Name>  (720) 
nan

>  <Pocket>  (720) 
nan

>  <ATP_Site>  (720) 
nan

>  <Peripheral>  (720) 
nan

>  <Num_H_Atoms_ProtBoundConf>  (720) 
nan

>  <Num_Resolved_Atoms>  (720) 
nan

>  <Num_Not_Resolved_Atoms>  (720) 
nan

$$$$
CHEMBL3799819
     RDKit          3D

  0  0  0  0  0  0  0  0  0  0999 V3000
M  V30 BEGIN CTAB
M  V30 COUNTS 51 53 0 0 0
M  V30 BEGIN ATOM
M  V30 1 C 1.693200 -3.992414 6.012585 0
M  V30 2 C 3.022603 -3.407894 5.635672 0
M  V30 3 C 2.835747 -1.895872 5.455978 0
M  V30 4 N 3.560285 -3.995413 4.423001 0
M  V30 5 C 2.641007 -3.755335 3.355997 0
M  V30 6 C 2.703889 -2.631528 2.555309 0
M  V30 7 C 1.763640 -2.498284 1.550218 0
M  V30 8 C 1.773950 -1.333704 0.667909 0
M  V30 9 C 2.868826 -0.759543 0.048900 0
M  V30 10 N 2.448625 0.302165 -0.682697 0
M  V30 11 C 1.111199 0.430150 -0.553506 0
M  V30 12 C 0.343608 1.480323 -1.217620 0
M  V30 13 O 0.975302 2.298277 -1.941568 0
M  V30 14 N -1.069097 1.571506 -1.048990 0
M  V30 15 C -1.848585 2.607711 -1.700554 0 CFG=2
M  V30 16 C -2.594712 3.491453 -0.737919 0
M  V30 17 O -3.310164 4.472083 -1.365618 0
M  V30 18 C -2.773195 1.909521 -2.625433 0
M  V30 19 C -4.126657 2.033286 -2.852511 0
M  V30 20 C -4.752030 1.248313 -3.796313 0
M  V30 21 C -4.106727 0.316938 -4.556814 0
M  V30 22 C -2.756066 0.172963 -4.350366 0
M  V30 23 C -2.108033 0.952640 -3.406063 0
M  V30 24 C 0.682901 -0.573802 0.277783 0
M  V30 25 C 0.788915 -3.476459 1.363616 0
M  V30 26 Cl -0.432661 -3.371318 0.110162 0
M  V30 27 C 0.774976 -4.591793 2.204811 0
M  V30 28 N 1.699185 -4.725728 3.195013 0
M  V30 29 H 1.693980 -5.098576 5.936086 0
M  V30 30 H 1.499708 -3.735387 7.076308 0
M  V30 31 H 0.849157 -3.562445 5.405878 0
M  V30 32 H 3.702646 -3.565468 6.492804 0
M  V30 33 H 2.012366 -1.671688 4.765722 0
M  V30 34 H 3.787604 -1.451428 5.090700 0
M  V30 35 H 2.596093 -1.451970 6.438652 0
M  V30 36 H 4.489651 -4.496590 4.440088 0
M  V30 37 H 3.473197 -1.890922 2.726636 0
M  V30 38 H 3.891957 -1.131643 0.157321 0
M  V30 39 H 3.126249 0.874648 -1.229940 0
M  V30 40 H -1.601081 0.899691 -0.452184 0
M  V30 41 H -1.214173 3.279197 -2.313021 0
M  V30 42 H -3.234302 2.864068 -0.050206 0
M  V30 43 H -1.831058 3.929374 -0.037450 0
M  V30 44 H -4.091850 4.778031 -0.807239 0
M  V30 45 H -4.583951 2.771062 -2.232017 0
M  V30 46 H -5.812303 1.460822 -3.859291 0
M  V30 47 H -4.726964 -0.224133 -5.256413 0
M  V30 48 H -2.249007 -0.566440 -4.955359 0
M  V30 49 H -1.046835 0.735959 -3.346890 0
M  V30 50 H -0.343731 -0.745413 0.580918 0
M  V30 51 H 0.050419 -5.405700 2.132575 0
M  V30 END ATOM
M  V30 BEGIN BOND
M  V30 1 1 1 2
M  V30 2 1 2 3
M  V30 3 1 2 4
M  V30 4 1 4 5
M  V30 5 2 5 6
M  V30 6 1 6 7
M  V30 7 1 7 8
M  V30 8 2 8 9
M  V30 9 1 9 10
M  V30 10 1 10 11
M  V30 11 1 11 12
M  V30 12 2 12 13
M  V30 13 1 12 14
M  V30 14 1 14 15
M  V30 15 1 15 16
M  V30 16 1 16 17
M  V30 17 1 15 18
M  V30 18 2 18 19
M  V30 19 1 19 20
M  V30 20 2 20 21
M  V30 21 1 21 22
M  V30 22 2 22 23
M  V30 23 2 11 24
M  V30 24 2 7 25
M  V30 25 1 25 26
M  V30 26 1 25 27
M  V30 27 2 27 28
M  V30 28 1 28 5
M  V30 29 1 24 8
M  V30 30 1 23 18
M  V30 31 1 1 29
M  V30 32 1 1 30
M  V30 33 1 1 31
M  V30 34 1 2 32
M  V30 35 1 3 33
M  V30 36 1 3 34
M  V30 37 1 3 35
M  V30 38 1 4 36
M  V30 39 1 6 37
M  V30 40 1 9 38
M  V30 41 1 10 39
M  V30 42 1 14 40
M  V30 43 1 15 41 CFG=3
M  V30 44 1 16 42
M  V30 45 1 16 43
M  V30 46 1 17 44
M  V30 47 1 19 45
M  V30 48 1 20 46
M  V30 49 1 21 47
M  V30 50 1 22 48
M  V30 51 1 23 49
M  V30 52 1 24 50
M  V30 53 1 27 51
M  V30 END BOND
M  V30 END CTAB
M  END
>  <Dataset>  (721) 
ChEMBL_Kinases

>  <Ligand_Instance>  (721) 
nan

>  <PDB_ID>  (721) 
nan

>  <Standardized_SMILES>  (721) 
CC(C)Nc1cc(-c2c[nH]c(C(=O)N[C@H](CO)c3ccccc3)c2)c(Cl)cn1

>  <Name>  (721) 
nan

>  <Pocket>  (721) 
nan

>  <ATP_Site>  (721) 
nan

>  <Peripheral>  (721) 
nan

>  <Num_H_Atoms_ProtBoundConf>  (721) 
nan

>  <Num_Resolved_Atoms>  (721) 
nan

>  <Num_Not_Resolved_Atoms>  (721) 
nan

$$$$
CHEMBL3799807
     RDKit          3D

  0  0  0  0  0  0  0  0  0  0999 V3000
M  V30 BEGIN CTAB
M  V30 COUNTS 50 54 0 0 0
M  V30 BEGIN ATOM
M  V30 1 C -0.156977 -0.818902 -3.862050 0
M  V30 2 O 0.881209 -0.945935 -2.905931 0
M  V30 3 C 0.633491 -1.029783 -1.544702 0
M  V30 4 N 1.737711 -1.145302 -0.789179 0
M  V30 5 C 1.596501 -1.231520 0.558574 0
M  V30 6 N 2.653471 -1.374845 1.491159 0
M  V30 7 C 3.726801 -0.702510 2.143882 0
M  V30 8 C 3.388220 0.621497 2.766020 0
M  V30 9 C 2.959177 1.588021 1.732210 0
M  V30 10 C 3.430909 1.509224 0.426735 0
M  V30 11 N 2.898476 2.501224 -0.302096 0
M  V30 12 C 2.081155 3.263488 0.436778 0
M  V30 13 C 1.277276 4.396551 0.277076 0
M  V30 14 C 0.532282 4.971332 1.281563 0
M  V30 15 C 0.615612 4.342408 2.535077 0
M  V30 16 C 1.394229 3.233439 2.717078 0
M  V30 17 C 2.126414 2.689031 1.687303 0
M  V30 18 N 0.352377 -1.201763 1.125372 0
M  V30 19 C -0.753717 -1.087354 0.371137 0
M  V30 20 N -2.138612 -1.047066 0.691866 0
M  V30 21 C -2.808538 -2.326206 0.774068 0
M  V30 22 C -4.190271 -2.427500 0.992392 0
M  V30 23 C -4.743533 -3.694904 1.058184 0
M  V30 24 C -4.031082 -4.865894 0.923407 0
M  V30 25 N -4.256827 -6.192458 0.935601 0
M  V30 26 N -3.147821 -6.881601 0.746971 0
M  V30 27 C -2.079189 -6.044963 0.592386 0
M  V30 28 C -2.646675 -4.787179 0.704836 0
M  V30 29 C -2.121713 -3.513859 0.643441 0
M  V30 30 N -0.586558 -1.003127 -0.958214 0
M  V30 31 H -0.942365 -1.557386 -3.574671 0
M  V30 32 H 0.226679 -1.105994 -4.865584 0
M  V30 33 H -0.517459 0.219733 -3.828929 0
M  V30 34 H 2.563117 -2.400178 1.763759 0
M  V30 35 H 4.605495 -0.561384 1.464726 0
M  V30 36 H 4.132707 -1.336060 2.977767 0
M  V30 37 H 4.290837 0.994449 3.330904 0
M  V30 38 H 2.627853 0.452880 3.550753 0
M  V30 39 H 4.118640 0.776886 0.013543 0
M  V30 40 H 3.065105 2.701490 -1.321571 0
M  V30 41 H 1.340782 4.745350 -0.757407 0
M  V30 42 H -0.038840 5.846341 1.006011 0
M  V30 43 H 0.002918 4.844351 3.276162 0
M  V30 44 H 1.420842 2.790796 3.700394 0
M  V30 45 H -2.736838 -0.214718 0.881837 0
M  V30 46 H -4.781434 -1.529598 1.107320 0
M  V30 47 H -5.819082 -3.826793 1.227104 0
M  V30 48 H -5.202304 -6.621835 1.078185 0
M  V30 49 H -1.027859 -6.217153 0.417832 0
M  V30 50 H -1.051070 -3.436158 0.470187 0
M  V30 END ATOM
M  V30 BEGIN BOND
M  V30 1 1 1 2
M  V30 2 1 2 3
M  V30 3 2 3 4
M  V30 4 1 4 5
M  V30 5 1 5 6
M  V30 6 1 6 7
M  V30 7 1 7 8
M  V30 8 1 8 9
M  V30 9 2 9 10
M  V30 10 1 10 11
M  V30 11 1 11 12
M  V30 12 2 12 13
M  V30 13 1 13 14
M  V30 14 2 14 15
M  V30 15 1 15 16
M  V30 16 2 16 17
M  V30 17 2 5 18
M  V30 18 1 18 19
M  V30 19 1 19 20
M  V30 20 1 20 21
M  V30 21 2 21 22
M  V30 22 1 22 23
M  V30 23 2 23 24
M  V30 24 1 24 25
M  V30 25 1 25 26
M  V30 26 2 26 27
M  V30 27 1 27 28
M  V30 28 2 28 29
M  V30 29 2 19 30
M  V30 30 1 30 3
M  V30 31 1 17 9
M  V30 32 1 29 21
M  V30 33 1 17 12
M  V30 34 1 28 24
M  V30 35 1 1 31
M  V30 36 1 1 32
M  V30 37 1 1 33
M  V30 38 1 6 34
M  V30 39 1 7 35
M  V30 40 1 7 36
M  V30 41 1 8 37
M  V30 42 1 8 38
M  V30 43 1 10 39
M  V30 44 1 11 40
M  V30 45 1 13 41
M  V30 46 1 14 42
M  V30 47 1 15 43
M  V30 48 1 16 44
M  V30 49 1 20 45
M  V30 50 1 22 46
M  V30 51 1 23 47
M  V30 52 1 25 48
M  V30 53 1 27 49
M  V30 54 1 29 50
M  V30 END BOND
M  V30 END CTAB
M  END
>  <Dataset>  (722) 
ChEMBL_Kinases

>  <Ligand_Instance>  (722) 
nan

>  <PDB_ID>  (722) 
nan

>  <Standardized_SMILES>  (722) 
COc1nc(NCCc2c[nH]c3ccccc23)nc(Nc2ccc3[nH]ncc3c2)n1

>  <Name>  (722) 
nan

>  <Pocket>  (722) 
nan

>  <ATP_Site>  (722) 
nan

>  <Peripheral>  (722) 
nan

>  <Num_H_Atoms_ProtBoundConf>  (722) 
nan

>  <Num_Resolved_Atoms>  (722) 
nan

>  <Num_Not_Resolved_Atoms>  (722) 
nan

$$$$
CHEMBL502448
     RDKit          3D

  0  0  0  0  0  0  0  0  0  0999 V3000
M  V30 BEGIN CTAB
M  V30 COUNTS 39 40 0 0 0
M  V30 BEGIN ATOM
M  V30 1 C -2.685791 -3.907005 1.528830 0
M  V30 2 C -1.439145 -3.077096 1.745527 0
M  V30 3 C -0.430879 -3.914667 2.509041 0
M  V30 4 C -0.868551 -2.619812 0.413488 0 CFG=2
M  V30 5 N -0.516409 -3.724968 -0.421911 0
M  V30 6 C 0.277206 -1.695711 0.607183 0
M  V30 7 C 1.485371 -2.299562 0.886191 0
M  V30 8 C 2.575059 -1.473660 1.073082 0
M  V30 9 C 2.429191 -0.106809 0.978164 0
M  V30 10 C 1.227034 0.505658 0.699927 0
M  V30 11 N 0.995241 1.901810 0.586039 0
M  V30 12 C -0.322110 2.464978 0.278136 0
M  V30 13 C -0.208138 3.915219 -0.074678 0
M  V30 14 O 0.815885 4.216130 -0.961632 0
M  V30 15 C 2.047563 3.738130 -0.547950 0
M  V30 16 C 1.968624 2.963321 0.745589 0
M  V30 17 C 0.137903 -0.317563 0.513085 0
M  V30 18 H -2.589399 -4.411182 0.555906 0
M  V30 19 H -2.809692 -4.679415 2.317794 0
M  V30 20 H -3.610600 -3.263732 1.458602 0
M  V30 21 H -1.645928 -2.197922 2.384666 0
M  V30 22 H -0.980209 -4.397320 3.361015 0
M  V30 23 H -0.015524 -4.735765 1.901006 0
M  V30 24 H 0.367355 -3.314211 2.973876 0
M  V30 25 H -1.697062 -2.071356 -0.102719 0
M  V30 26 H 0.279767 -3.591394 -1.054338 0
M  V30 27 H -0.655103 -4.662228 -0.034175 0
M  V30 28 H 1.701636 -3.334145 0.979865 0
M  V30 29 H 3.564414 -1.853746 1.296177 0
M  V30 30 H 3.280524 0.542384 1.123910 0
M  V30 31 H -0.898144 2.394970 1.237175 0
M  V30 32 H -0.863398 1.880207 -0.492959 0
M  V30 33 H -1.156120 4.172374 -0.632973 0
M  V30 34 H -0.228337 4.587347 0.821129 0
M  V30 35 H 2.811132 4.518820 -0.413968 0
M  V30 36 H 2.419245 3.032089 -1.320113 0
M  V30 37 H 2.977301 2.541230 0.926284 0
M  V30 38 H 1.696485 3.632688 1.608351 0
M  V30 39 H -0.849433 0.001109 0.293490 0
M  V30 END ATOM
M  V30 BEGIN BOND
M  V30 1 1 1 2
M  V30 2 1 2 3
M  V30 3 1 2 4
M  V30 4 1 4 5
M  V30 5 1 4 6
M  V30 6 2 6 7
M  V30 7 1 7 8
M  V30 8 2 8 9
M  V30 9 1 9 10
M  V30 10 1 10 11
M  V30 11 1 11 12
M  V30 12 1 12 13
M  V30 13 1 13 14
M  V30 14 1 14 15
M  V30 15 1 15 16
M  V30 16 2 10 17
M  V30 17 1 17 6
M  V30 18 1 16 11
M  V30 19 1 1 18
M  V30 20 1 1 19
M  V30 21 1 1 20
M  V30 22 1 2 21
M  V30 23 1 3 22
M  V30 24 1 3 23
M  V30 25 1 3 24
M  V30 26 1 4 25 CFG=3
M  V30 27 1 5 26
M  V30 28 1 5 27
M  V30 29 1 7 28
M  V30 30 1 8 29
M  V30 31 1 9 30
M  V30 32 1 12 31
M  V30 33 1 12 32
M  V30 34 1 13 33
M  V30 35 1 13 34
M  V30 36 1 15 35
M  V30 37 1 15 36
M  V30 38 1 16 37
M  V30 39 1 16 38
M  V30 40 1 17 39
M  V30 END BOND
M  V30 END CTAB
M  END
>  <Dataset>  (723) 
ChEMBL_Kinases

>  <Ligand_Instance>  (723) 
nan

>  <PDB_ID>  (723) 
nan

>  <Standardized_SMILES>  (723) 
CC(C)[C@H](N)c1cccc(N2CCOCC2)c1

>  <Name>  (723) 
nan

>  <Pocket>  (723) 
nan

>  <ATP_Site>  (723) 
nan

>  <Peripheral>  (723) 
nan

>  <Num_H_Atoms_ProtBoundConf>  (723) 
nan

>  <Num_Resolved_Atoms>  (723) 
nan

>  <Num_Not_Resolved_Atoms>  (723) 
nan

$$$$
CHEMBL591661
     RDKit          3D

  0  0  0  0  0  0  0  0  0  0999 V3000
M  V30 BEGIN CTAB
M  V30 COUNTS 62 66 0 0 0
M  V30 BEGIN ATOM
M  V30 1 C -1.604822 -2.823386 5.316737 0
M  V30 2 C -1.534791 -2.746133 3.823469 0
M  V30 3 C -1.731962 -3.910166 3.118754 0
M  V30 4 C -1.686988 -3.950058 1.743296 0
M  V30 5 C -1.433668 -2.767091 1.085800 0
M  V30 6 N -1.379735 -2.771705 -0.334662 0
M  V30 7 C -0.086776 -3.017056 -0.811804 0
M  V30 8 O 0.527070 -3.153789 0.305814 0
M  V30 9 C 0.650098 -3.148897 -2.056807 0
M  V30 10 N 1.729715 -3.939201 -1.771481 0
M  V30 11 C 2.455513 -4.132236 -2.901847 0
M  V30 12 C 3.714523 -4.924793 -3.089376 0
M  V30 13 F 4.257504 -4.565927 -4.296588 0
M  V30 14 F 3.477212 -6.264762 -2.950924 0
M  V30 15 F 4.636598 -4.539389 -2.105771 0
M  V30 16 N 1.784059 -3.447476 -3.822329 0
M  V30 17 C 0.695391 -2.825408 -3.418031 0
M  V30 18 C -0.379134 -2.054130 -3.964563 0
M  V30 19 C -1.092215 -1.138476 -3.232892 0
M  V30 20 C -2.177632 -0.399164 -3.604846 0
M  V30 21 C -2.631227 -0.585266 -4.886209 0
M  V30 22 C -1.973908 -1.484239 -5.688385 0
M  V30 23 C -0.862567 -2.213973 -5.245623 0
M  V30 24 C -0.304087 -3.103889 -6.261169 0
M  V30 25 F -1.088340 -3.107421 -7.439955 0
M  V30 26 F 0.892511 -2.527747 -6.744907 0
M  V30 27 F -0.035798 -4.375226 -5.877671 0
M  V30 28 C -1.242340 -1.626141 1.829728 0
M  V30 29 C -1.280497 -1.549627 3.196444 0
M  V30 30 N -1.102192 -0.386930 3.979151 0
M  V30 31 C -0.890762 0.971693 3.664304 0
M  V30 32 C -1.435352 1.667663 2.608013 0
M  V30 33 C -1.193938 2.988371 2.300332 0
M  V30 34 C -0.328793 3.671368 3.127773 0
M  V30 35 N -0.037096 4.956216 2.903940 0
M  V30 36 C 0.804539 5.666289 3.686903 0
M  V30 37 N 1.381641 5.058768 4.745602 0
M  V30 38 C 2.310680 5.685744 5.684458 0
M  V30 39 C 1.133447 3.768119 5.030313 0
M  V30 40 O 1.618569 3.121330 5.985253 0
M  V30 41 C 0.269764 3.069591 4.212335 0
M  V30 42 C -0.028816 1.747283 4.444141 0
M  V30 43 H -0.688705 -2.358965 5.771806 0
M  V30 44 H -2.458147 -2.239081 5.686771 0
M  V30 45 H -1.594903 -3.877881 5.657922 0
M  V30 46 H -1.930656 -4.835245 3.658760 0
M  V30 47 H -1.842968 -4.867533 1.200879 0
M  V30 48 H -2.033031 -2.660874 -1.163003 0
M  V30 49 H 2.145683 -3.419864 -4.784493 0
M  V30 50 H -0.750253 -0.935594 -2.204308 0
M  V30 51 H -2.659214 0.296518 -2.935305 0
M  V30 52 H -3.485329 -0.023192 -5.222625 0
M  V30 53 H -2.405034 -1.568752 -6.697304 0
M  V30 54 H -1.036925 -0.740967 1.251346 0
M  V30 55 H -1.129486 -0.513943 5.030298 0
M  V30 56 H -2.124251 1.173842 1.951895 0
M  V30 57 H -1.657810 3.471832 1.451509 0
M  V30 58 H 1.064324 6.704363 3.538153 0
M  V30 59 H 2.548726 6.711599 5.409038 0
M  V30 60 H 1.782920 5.675906 6.668369 0
M  V30 61 H 3.220905 5.042585 5.824213 0
M  V30 62 H 0.437577 1.250274 5.303068 0
M  V30 END ATOM
M  V30 BEGIN BOND
M  V30 1 1 1 2
M  V30 2 2 2 3
M  V30 3 1 3 4
M  V30 4 2 4 5
M  V30 5 1 5 6
M  V30 6 1 6 7
M  V30 7 2 7 8
M  V30 8 1 7 9
M  V30 9 1 9 10
M  V30 10 2 10 11
M  V30 11 1 11 12
M  V30 12 1 12 13
M  V30 13 1 12 14
M  V30 14 1 12 15
M  V30 15 1 11 16
M  V30 16 1 16 17
M  V30 17 1 17 18
M  V30 18 2 18 19
M  V30 19 1 19 20
M  V30 20 2 20 21
M  V30 21 1 21 22
M  V30 22 2 22 23
M  V30 23 1 23 24
M  V30 24 1 24 25
M  V30 25 1 24 26
M  V30 26 1 24 27
M  V30 27 1 5 28
M  V30 28 2 28 29
M  V30 29 1 29 30
M  V30 30 1 30 31
M  V30 31 2 31 32
M  V30 32 1 32 33
M  V30 33 2 33 34
M  V30 34 1 34 35
M  V30 35 2 35 36
M  V30 36 1 36 37
M  V30 37 1 37 38
M  V30 38 1 37 39
M  V30 39 2 39 40
M  V30 40 1 39 41
M  V30 41 2 41 42
M  V30 42 1 29 2
M  V30 43 1 42 31
M  V30 44 2 17 9
M  V30 45 1 23 18
M  V30 46 1 41 34
M  V30 47 1 1 43
M  V30 48 1 1 44
M  V30 49 1 1 45
M  V30 50 1 3 46
M  V30 51 1 4 47
M  V30 52 1 6 48
M  V30 53 1 16 49
M  V30 54 1 19 50
M  V30 55 1 20 51
M  V30 56 1 21 52
M  V30 57 1 22 53
M  V30 58 1 28 54
M  V30 59 1 30 55
M  V30 60 1 32 56
M  V30 61 1 33 57
M  V30 62 1 36 58
M  V30 63 1 38 59
M  V30 64 1 38 60
M  V30 65 1 38 61
M  V30 66 1 42 62
M  V30 END BOND
M  V30 END CTAB
M  END
>  <Dataset>  (724) 
ChEMBL_Kinases

>  <Ligand_Instance>  (724) 
nan

>  <PDB_ID>  (724) 
nan

>  <Standardized_SMILES>  (724) 
Cc1ccc(NC(=O)c2nc(C(F)(F)F)[nH]c2-c2ccccc2C(F)(F)F)cc1Nc1ccc2ncn(C)c(=O)c2c1

>  <Name>  (724) 
nan

>  <Pocket>  (724) 
nan

>  <ATP_Site>  (724) 
nan

>  <Peripheral>  (724) 
nan

>  <Num_H_Atoms_ProtBoundConf>  (724) 
nan

>  <Num_Resolved_Atoms>  (724) 
nan

>  <Num_Not_Resolved_Atoms>  (724) 
nan

$$$$
CHEMBL591526
     RDKit          3D

  0  0  0  0  0  0  0  0  0  0999 V3000
M  V30 BEGIN CTAB
M  V30 COUNTS 62 66 0 0 0
M  V30 BEGIN ATOM
M  V30 1 C -1.841470 -3.465367 4.544073 0
M  V30 2 C -1.636493 -3.017645 3.143069 0
M  V30 3 C -1.882997 -3.927848 2.140161 0
M  V30 4 C -1.718114 -3.597162 0.815984 0
M  V30 5 C -1.297351 -2.327491 0.497905 0
M  V30 6 N -1.107368 -1.923203 -0.852707 0
M  V30 7 C 0.199768 -2.168046 -1.331256 0
M  V30 8 O 0.750513 -2.679232 -0.286363 0
M  V30 9 C 0.983685 -2.010849 -2.522758 0
M  V30 10 N 2.311824 -1.866294 -2.246644 0
M  V30 11 C 2.975959 -1.694884 -3.417902 0
M  V30 12 C 4.437157 -1.493049 -3.641688 0
M  V30 13 F 4.620146 -0.719568 -4.748892 0
M  V30 14 F 5.085363 -2.703500 -3.808716 0
M  V30 15 F 5.023823 -0.883343 -2.550314 0
M  V30 16 N 2.066419 -1.735835 -4.402268 0
M  V30 17 C 0.852855 -1.930023 -3.873826 0
M  V30 18 C -0.383630 -2.020904 -4.577033 0
M  V30 19 C -0.342018 -1.527413 -5.868076 0
M  V30 20 C -1.434017 -1.578794 -6.705484 0
M  V30 21 C -2.641622 -2.120791 -6.327172 0
M  V30 22 C -2.714054 -2.620295 -5.050887 0
M  V30 23 C -3.963360 -3.224507 -4.539167 0
M  V30 24 F -3.713295 -4.354526 -3.761130 0
M  V30 25 F -4.619566 -2.278794 -3.745183 0
M  V30 26 F -4.789403 -3.594658 -5.564568 0
M  V30 27 C -1.600585 -2.548709 -4.250297 0
M  V30 28 C -1.065328 -1.457652 1.538519 0
M  V30 29 C -1.214718 -1.736193 2.874581 0
M  V30 30 N -1.001772 -0.853620 3.956183 0
M  V30 31 C -0.646902 0.510708 4.038278 0
M  V30 32 C -1.063553 1.499478 3.173152 0
M  V30 33 C -0.701366 2.828268 3.230615 0
M  V30 34 C 0.148933 3.193604 4.241070 0
M  V30 35 N 0.554578 4.476334 4.371285 0
M  V30 36 C 1.391794 4.854666 5.360496 0
M  V30 37 N 1.826309 3.926711 6.230940 0
M  V30 38 C 2.734605 4.325706 7.307221 0
M  V30 39 C 1.473275 2.610064 6.181254 0
M  V30 40 O 1.920535 1.795610 7.032820 0
M  V30 41 C 0.624192 2.284595 5.159525 0
M  V30 42 C 0.209471 0.980642 5.024016 0
M  V30 43 H -0.927040 -3.323263 5.174428 0
M  V30 44 H -2.645568 -2.863522 5.037921 0
M  V30 45 H -2.067492 -4.538578 4.604136 0
M  V30 46 H -2.215905 -4.933061 2.402734 0
M  V30 47 H -1.914355 -4.318636 0.032302 0
M  V30 48 H -1.688116 -1.454529 -1.614420 0
M  V30 49 H 2.299828 -1.628841 -5.428458 0
M  V30 50 H 0.554467 -1.064199 -6.310907 0
M  V30 51 H -1.370791 -1.183381 -7.708276 0
M  V30 52 H -3.463647 -2.141012 -7.005409 0
M  V30 53 H -1.682864 -2.982652 -3.279527 0
M  V30 54 H -0.725951 -0.479606 1.249446 0
M  V30 55 H -1.120589 -1.236336 4.928348 0
M  V30 56 H -1.745360 1.267967 2.369988 0
M  V30 57 H -1.060984 3.561035 2.521099 0
M  V30 58 H 1.725259 5.876380 5.477814 0
M  V30 59 H 3.052387 5.366793 7.203267 0
M  V30 60 H 2.203706 4.175342 8.263276 0
M  V30 61 H 3.597481 3.603238 7.226939 0
M  V30 62 H 0.582131 0.248431 5.750193 0
M  V30 END ATOM
M  V30 BEGIN BOND
M  V30 1 1 1 2
M  V30 2 2 2 3
M  V30 3 1 3 4
M  V30 4 2 4 5
M  V30 5 1 5 6
M  V30 6 1 6 7
M  V30 7 2 7 8
M  V30 8 1 7 9
M  V30 9 1 9 10
M  V30 10 2 10 11
M  V30 11 1 11 12
M  V30 12 1 12 13
M  V30 13 1 12 14
M  V30 14 1 12 15
M  V30 15 1 11 16
M  V30 16 1 16 17
M  V30 17 1 17 18
M  V30 18 2 18 19
M  V30 19 1 19 20
M  V30 20 2 20 21
M  V30 21 1 21 22
M  V30 22 1 22 23
M  V30 23 1 23 24
M  V30 24 1 23 25
M  V30 25 1 23 26
M  V30 26 2 22 27
M  V30 27 1 5 28
M  V30 28 2 28 29
M  V30 29 1 29 30
M  V30 30 1 30 31
M  V30 31 2 31 32
M  V30 32 1 32 33
M  V30 33 2 33 34
M  V30 34 1 34 35
M  V30 35 2 35 36
M  V30 36 1 36 37
M  V30 37 1 37 38
M  V30 38 1 37 39
M  V30 39 2 39 40
M  V30 40 1 39 41
M  V30 41 2 41 42
M  V30 42 1 29 2
M  V30 43 1 42 31
M  V30 44 2 17 9
M  V30 45 1 27 18
M  V30 46 1 41 34
M  V30 47 1 1 43
M  V30 48 1 1 44
M  V30 49 1 1 45
M  V30 50 1 3 46
M  V30 51 1 4 47
M  V30 52 1 6 48
M  V30 53 1 16 49
M  V30 54 1 19 50
M  V30 55 1 20 51
M  V30 56 1 21 52
M  V30 57 1 27 53
M  V30 58 1 28 54
M  V30 59 1 30 55
M  V30 60 1 32 56
M  V30 61 1 33 57
M  V30 62 1 36 58
M  V30 63 1 38 59
M  V30 64 1 38 60
M  V30 65 1 38 61
M  V30 66 1 42 62
M  V30 END BOND
M  V30 END CTAB
M  END
>  <Dataset>  (725) 
ChEMBL_Kinases

>  <Ligand_Instance>  (725) 
nan

>  <PDB_ID>  (725) 
nan

>  <Standardized_SMILES>  (725) 
Cc1ccc(NC(=O)c2nc(C(F)(F)F)[nH]c2-c2cccc(C(F)(F)F)c2)cc1Nc1ccc2ncn(C)c(=O)c2c1

>  <Name>  (725) 
nan

>  <Pocket>  (725) 
nan

>  <ATP_Site>  (725) 
nan

>  <Peripheral>  (725) 
nan

>  <Num_H_Atoms_ProtBoundConf>  (725) 
nan

>  <Num_Resolved_Atoms>  (725) 
nan

>  <Num_Not_Resolved_Atoms>  (725) 
nan

$$$$
CHEMBL591387
     RDKit          3D

  0  0  0  0  0  0  0  0  0  0999 V3000
M  V30 BEGIN CTAB
M  V30 COUNTS 66 72 0 0 0
M  V30 BEGIN ATOM
M  V30 1 N 7.407263 -3.713708 0.824326 0
M  V30 2 C 6.210886 -4.478530 0.746850 0
M  V30 3 O 6.280360 -5.731738 0.838935 0
M  V30 4 C 4.933269 -3.800649 0.563248 0
M  V30 5 N 4.741682 -2.473530 0.455106 0
M  V30 6 N 3.462307 -2.180495 0.296244 0
M  V30 7 C 3.066262 -0.828485 0.164098 0
M  V30 8 C 2.762404 -0.140295 1.346150 0
M  V30 9 C 2.377536 1.185165 1.336856 0
M  V30 10 C 2.297302 1.828875 0.115630 0
M  V30 11 C 2.599592 1.136591 -1.035589 0
M  V30 12 C 2.987653 -0.185180 -1.075320 0
M  V30 13 O 2.448693 1.984394 -2.128144 0
M  V30 14 C 1.783940 3.165407 -1.707533 0
M  V30 15 O 1.960962 3.109045 -0.296774 0
M  V30 16 C 2.795983 -3.337654 0.299715 0
M  V30 17 C 3.685263 -4.376544 0.465029 0
M  V30 18 C 3.341869 -5.806826 0.522502 0
M  V30 19 C 1.894722 -6.115603 0.378998 0
M  V30 20 C 1.011248 -4.950862 0.208748 0
M  V30 21 C -0.335131 -5.288522 0.084506 0
M  V30 22 C -1.253773 -4.263527 -0.081518 0
M  V30 23 C -0.855146 -2.944787 -0.123594 0
M  V30 24 N -1.856518 -1.951184 -0.295857 0
M  V30 25 C -2.337937 -1.525048 0.969009 0
M  V30 26 O -1.875406 -2.022007 2.046509 0
M  V30 27 C -3.334932 -0.557180 1.351237 0
M  V30 28 C -3.200357 0.800507 1.040927 0
M  V30 29 C -4.189315 1.670008 1.436635 0
M  V30 30 N -4.103190 3.055742 1.146233 0
M  V30 31 C -3.041804 3.723005 0.421817 0
M  V30 32 C -3.734879 4.360877 -0.790205 0
M  V30 33 O -4.710812 5.241290 -0.391173 0
M  V30 34 C -5.723591 4.576292 0.296757 0
M  V30 35 C -5.120725 4.003221 1.564353 0
M  V30 36 N -5.271751 1.246164 2.108746 0
M  V30 37 C -5.460348 -0.045649 2.437369 0
M  V30 38 C -4.475620 -0.948495 2.049759 0
M  V30 39 Cl -4.683983 -2.616634 2.454655 0
M  V30 40 C 0.476368 -2.606071 -0.001114 0
M  V30 41 C 1.380794 -3.626330 0.163180 0
M  V30 42 H 7.361384 -3.289112 1.796553 0
M  V30 43 H 8.244671 -3.469774 0.252815 0
M  V30 44 H 2.826904 -0.649971 2.304482 0
M  V30 45 H 2.143342 1.718911 2.236311 0
M  V30 46 H 3.220671 -0.716938 -1.971163 0
M  V30 47 H 2.235315 4.073264 -2.155756 0
M  V30 48 H 0.680001 3.100650 -1.901563 0
M  V30 49 H 3.741466 -6.256157 1.474071 0
M  V30 50 H 3.896811 -6.364616 -0.289182 0
M  V30 51 H 1.566166 -6.699555 1.287265 0
M  V30 52 H 1.704374 -6.803518 -0.480696 0
M  V30 53 H -0.710827 -6.297128 0.108949 0
M  V30 54 H -2.303743 -4.495390 -0.180370 0
M  V30 55 H -2.338577 -1.446650 -1.067375 0
M  V30 56 H -2.331614 1.101695 0.508432 0
M  V30 57 H -2.243296 3.083811 0.061453 0
M  V30 58 H -2.552325 4.523842 1.034394 0
M  V30 59 H -4.162988 3.480456 -1.345745 0
M  V30 60 H -2.987190 4.831298 -1.426503 0
M  V30 61 H -6.084728 3.708616 -0.317140 0
M  V30 62 H -6.563236 5.245786 0.544316 0
M  V30 63 H -4.610429 4.852913 2.087979 0
M  V30 64 H -5.878754 3.518473 2.213127 0
M  V30 65 H -6.348181 -0.333554 2.978475 0
M  V30 66 H 0.710425 -1.562702 -0.043197 0
M  V30 END ATOM
M  V30 BEGIN BOND
M  V30 1 1 1 2
M  V30 2 2 2 3
M  V30 3 1 2 4
M  V30 4 2 4 5
M  V30 5 1 5 6
M  V30 6 1 6 7
M  V30 7 2 7 8
M  V30 8 1 8 9
M  V30 9 2 9 10
M  V30 10 1 10 11
M  V30 11 2 11 12
M  V30 12 1 11 13
M  V30 13 1 13 14
M  V30 14 1 14 15
M  V30 15 1 6 16
M  V30 16 2 16 17
M  V30 17 1 17 18
M  V30 18 1 18 19
M  V30 19 1 19 20
M  V30 20 2 20 21
M  V30 21 1 21 22
M  V30 22 2 22 23
M  V30 23 1 23 24
M  V30 24 1 24 25
M  V30 25 2 25 26
M  V30 26 1 25 27
M  V30 27 2 27 28
M  V30 28 1 28 29
M  V30 29 1 29 30
M  V30 30 1 30 31
M  V30 31 1 31 32
M  V30 32 1 32 33
M  V30 33 1 33 34
M  V30 34 1 34 35
M  V30 35 2 29 36
M  V30 36 1 36 37
M  V30 37 2 37 38
M  V30 38 1 38 39
M  V30 39 1 23 40
M  V30 40 2 40 41
M  V30 41 1 17 4
M  V30 42 1 41 20
M  V30 43 1 12 7
M  V30 44 1 41 16
M  V30 45 1 15 10
M  V30 46 1 38 27
M  V30 47 1 35 30
M  V30 48 1 1 42
M  V30 49 1 1 43
M  V30 50 1 8 44
M  V30 51 1 9 45
M  V30 52 1 12 46
M  V30 53 1 14 47
M  V30 54 1 14 48
M  V30 55 1 18 49
M  V30 56 1 18 50
M  V30 57 1 19 51
M  V30 58 1 19 52
M  V30 59 1 21 53
M  V30 60 1 22 54
M  V30 61 1 24 55
M  V30 62 1 28 56
M  V30 63 1 31 57
M  V30 64 1 31 58
M  V30 65 1 32 59
M  V30 66 1 32 60
M  V30 67 1 34 61
M  V30 68 1 34 62
M  V30 69 1 35 63
M  V30 70 1 35 64
M  V30 71 1 37 65
M  V30 72 1 40 66
M  V30 END BOND
M  V30 END CTAB
M  END
>  <Dataset>  (726) 
ChEMBL_Kinases

>  <Ligand_Instance>  (726) 
nan

>  <PDB_ID>  (726) 
nan

>  <Standardized_SMILES>  (726) 
NC(=O)c1nn(-c2ccc3c(c2)OCO3)c2c1CCc1ccc(NC(=O)c3cc(N4CCOCC4)ncc3Cl)cc1-2

>  <Name>  (726) 
nan

>  <Pocket>  (726) 
nan

>  <ATP_Site>  (726) 
nan

>  <Peripheral>  (726) 
nan

>  <Num_H_Atoms_ProtBoundConf>  (726) 
nan

>  <Num_Resolved_Atoms>  (726) 
nan

>  <Num_Not_Resolved_Atoms>  (726) 
nan

$$$$
CHEMBL3799749
     RDKit          3D

  0  0  0  0  0  0  0  0  0  0999 V3000
M  V30 BEGIN CTAB
M  V30 COUNTS 38 41 0 0 0
M  V30 BEGIN ATOM
M  V30 1 C -1.400013 -2.517812 4.415863 0
M  V30 2 S 0.234444 -1.748296 4.694737 0
M  V30 3 C 0.902669 -1.369126 3.106462 0
M  V30 4 S 1.913776 -2.462896 2.120614 0
M  V30 5 C 2.132151 -1.358451 0.768669 0
M  V30 6 C 2.910391 -1.641733 -0.464587 0
M  V30 7 C 3.543179 -2.850883 -0.637064 0
M  V30 8 C 4.131039 -2.678558 -1.895671 0
M  V30 9 N 3.857445 -1.450284 -2.419154 0
M  V30 10 N 3.097215 -0.841422 -1.496610 0
M  V30 11 C 1.419651 -0.179402 1.116266 0
M  V30 12 C 0.811352 -0.250700 2.329002 0
M  V30 13 C 0.064189 0.976874 2.694256 0
M  V30 14 O -0.554772 1.042343 3.812883 0
M  V30 15 N -0.005918 2.135829 1.834424 0
M  V30 16 C 0.061629 1.763997 0.428954 0
M  V30 17 C -1.087210 0.959160 0.006642 0
M  V30 18 C -1.139944 -0.181138 -0.749039 0
M  V30 19 C -2.330773 -0.809624 -1.049952 0
M  V30 20 C -3.529308 -0.270049 -0.570666 0
M  V30 21 C -3.507160 0.878005 0.193288 0
M  V30 22 F -4.703411 1.316114 0.604749 0
M  V30 23 C -2.282840 1.476540 0.470884 0
M  V30 24 C 1.342556 1.021866 0.247714 0
M  V30 25 H -1.719177 -3.117893 5.285442 0
M  V30 26 H -2.153100 -1.725388 4.183768 0
M  V30 27 H -1.378754 -3.162296 3.512089 0
M  V30 28 H 3.623745 -3.742766 -0.033505 0
M  V30 29 H 4.740634 -3.443410 -2.401175 0
M  V30 30 H 4.211820 -1.142767 -3.350576 0
M  V30 31 H -0.093863 3.083603 2.272948 0
M  V30 32 H 0.111839 2.690145 -0.157076 0
M  V30 33 H -0.172036 -0.531931 -1.079141 0
M  V30 34 H -2.308810 -1.708092 -1.651711 0
M  V30 35 H -4.426594 -0.819249 -0.847894 0
M  V30 36 H -2.409562 2.369880 1.079715 0
M  V30 37 H 1.400211 0.727254 -0.809721 0
M  V30 38 H 2.168031 1.741422 0.516354 0
M  V30 END ATOM
M  V30 BEGIN BOND
M  V30 1 1 1 2
M  V30 2 1 2 3
M  V30 3 1 3 4
M  V30 4 1 4 5
M  V30 5 1 5 6
M  V30 6 1 6 7
M  V30 7 2 7 8
M  V30 8 1 8 9
M  V30 9 1 9 10
M  V30 10 2 5 11
M  V30 11 1 11 12
M  V30 12 1 12 13
M  V30 13 2 13 14
M  V30 14 1 13 15
M  V30 15 1 15 16
M  V30 16 1 16 17
M  V30 17 2 17 18
M  V30 18 1 18 19
M  V30 19 2 19 20
M  V30 20 1 20 21
M  V30 21 1 21 22
M  V30 22 2 21 23
M  V30 23 1 16 24
M  V30 24 2 12 3
M  V30 25 1 23 17
M  V30 26 2 10 6
M  V30 27 1 24 11
M  V30 28 1 1 25
M  V30 29 1 1 26
M  V30 30 1 1 27
M  V30 31 1 7 28
M  V30 32 1 8 29
M  V30 33 1 9 30
M  V30 34 1 15 31
M  V30 35 1 16 32
M  V30 36 1 18 33
M  V30 37 1 19 34
M  V30 38 1 20 35
M  V30 39 1 23 36
M  V30 40 1 24 37
M  V30 41 1 24 38
M  V30 END BOND
M  V30 END CTAB
M  END
>  <Dataset>  (727) 
ChEMBL_Kinases

>  <Ligand_Instance>  (727) 
nan

>  <PDB_ID>  (727) 
nan

>  <Standardized_SMILES>  (727) 
CSc1sc(-c2cc[nH]n2)c2c1C(=O)NC(c1cccc(F)c1)C2

>  <Name>  (727) 
nan

>  <Pocket>  (727) 
nan

>  <ATP_Site>  (727) 
nan

>  <Peripheral>  (727) 
nan

>  <Num_H_Atoms_ProtBoundConf>  (727) 
nan

>  <Num_Resolved_Atoms>  (727) 
nan

>  <Num_Not_Resolved_Atoms>  (727) 
nan

$$$$
CHEMBL3799863
     RDKit          3D

  0  0  0  0  0  0  0  0  0  0999 V3000
M  V30 BEGIN CTAB
M  V30 COUNTS 44 47 0 0 0
M  V30 BEGIN ATOM
M  V30 1 O 1.549856 -2.054181 0.923440 0
M  V30 2 C 1.726121 -0.858198 1.340280 0
M  V30 3 N 3.016933 -0.298994 1.262350 0
M  V30 4 C 4.175142 -0.965742 0.745361 0
M  V30 5 C 3.923510 -1.329777 -0.701060 0
M  V30 6 C 3.659417 -0.157692 -1.561793 0
M  V30 7 C 2.452758 0.425034 -1.869164 0
M  V30 8 C 2.374929 1.528008 -2.693843 0
M  V30 9 C 3.498581 2.105793 -3.254170 0
M  V30 10 C 4.733543 1.558522 -2.976832 0
M  V30 11 Cl 6.176408 2.246316 -3.655534 0
M  V30 12 C 4.763777 0.452719 -2.144707 0
M  V30 13 C 0.581377 -0.128487 1.877353 0
M  V30 14 C 0.614263 1.142560 2.355113 0
M  V30 15 C -0.480970 1.813921 2.858719 0
M  V30 16 C -1.704557 1.177708 2.892185 0
M  V30 17 N -2.933829 1.518063 3.299714 0
M  V30 18 N -3.795369 0.509445 3.109266 0
M  V30 19 C -3.113407 -0.512252 2.565253 0
M  V30 20 C -3.689004 -1.802866 2.202598 0
M  V30 21 C -4.542143 -2.372476 3.154269 0
M  V30 22 C -5.132191 -3.595278 2.893596 0
M  V30 23 N -4.922892 -4.285388 1.740141 0
M  V30 24 C -4.098220 -3.726670 0.829216 0
M  V30 25 C -3.481997 -2.509498 1.035078 0
M  V30 26 C -1.798112 -0.112861 2.420675 0
M  V30 27 C -0.662618 -0.728573 1.929218 0
M  V30 28 H 3.145748 0.667505 1.603007 0
M  V30 29 H 4.403279 -1.913772 1.277021 0
M  V30 30 H 5.082962 -0.343216 0.770732 0
M  V30 31 H 3.063238 -2.016670 -0.843139 0
M  V30 32 H 4.804242 -1.880530 -1.134815 0
M  V30 33 H 1.586951 -0.043768 -1.422160 0
M  V30 34 H 1.357826 1.882631 -2.849652 0
M  V30 35 H 3.363864 2.966528 -3.889571 0
M  V30 36 H 5.758425 0.063787 -1.960501 0
M  V30 37 H 1.551827 1.681925 2.349269 0
M  V30 38 H -0.379890 2.836645 3.226287 0
M  V30 39 H -3.107747 2.480789 3.706481 0
M  V30 40 H -4.788299 -1.923051 4.109291 0
M  V30 41 H -5.810424 -4.125715 3.564128 0
M  V30 42 H -3.907323 -4.248039 -0.103018 0
M  V30 43 H -2.824818 -2.047504 0.327725 0
M  V30 44 H -0.793282 -1.747520 1.569780 0
M  V30 END ATOM
M  V30 BEGIN BOND
M  V30 1 2 1 2
M  V30 2 1 2 3
M  V30 3 1 3 4
M  V30 4 1 4 5
M  V30 5 1 5 6
M  V30 6 2 6 7
M  V30 7 1 7 8
M  V30 8 2 8 9
M  V30 9 1 9 10
M  V30 10 1 10 11
M  V30 11 2 10 12
M  V30 12 1 2 13
M  V30 13 2 13 14
M  V30 14 1 14 15
M  V30 15 2 15 16
M  V30 16 1 16 17
M  V30 17 1 17 18
M  V30 18 2 18 19
M  V30 19 1 19 20
M  V30 20 2 20 21
M  V30 21 1 21 22
M  V30 22 2 22 23
M  V30 23 1 23 24
M  V30 24 2 24 25
M  V30 25 1 19 26
M  V30 26 2 26 27
M  V30 27 1 12 6
M  V30 28 1 27 13
M  V30 29 1 26 16
M  V30 30 1 25 20
M  V30 31 1 3 28
M  V30 32 1 4 29
M  V30 33 1 4 30
M  V30 34 1 5 31
M  V30 35 1 5 32
M  V30 36 1 7 33
M  V30 37 1 8 34
M  V30 38 1 9 35
M  V30 39 1 12 36
M  V30 40 1 14 37
M  V30 41 1 15 38
M  V30 42 1 17 39
M  V30 43 1 21 40
M  V30 44 1 22 41
M  V30 45 1 24 42
M  V30 46 1 25 43
M  V30 47 1 27 44
M  V30 END BOND
M  V30 END CTAB
M  END
>  <Dataset>  (728) 
ChEMBL_Kinases

>  <Ligand_Instance>  (728) 
nan

>  <PDB_ID>  (728) 
nan

>  <Standardized_SMILES>  (728) 
O=C(NCCc1cccc(Cl)c1)c1ccc2[nH]nc(-c3ccncc3)c2c1

>  <Name>  (728) 
nan

>  <Pocket>  (728) 
nan

>  <ATP_Site>  (728) 
nan

>  <Peripheral>  (728) 
nan

>  <Num_H_Atoms_ProtBoundConf>  (728) 
nan

>  <Num_Resolved_Atoms>  (728) 
nan

>  <Num_Not_Resolved_Atoms>  (728) 
nan

$$$$
CHEMBL383569
     RDKit          3D

  0  0  0  0  0  0  0  0  0  0999 V3000
M  V30 BEGIN CTAB
M  V30 COUNTS 47 50 0 0 0
M  V30 BEGIN ATOM
M  V30 1 C 1.153325 0.020855 6.677696 0
M  V30 2 C 1.142885 -0.362025 5.243445 0
M  V30 3 C 0.303917 -1.386837 4.873631 0
M  V30 4 C 0.214740 -1.825277 3.563188 0
M  V30 5 C 1.025017 -1.160225 2.667729 0
M  V30 6 C 1.877559 -0.130321 3.000981 0
M  V30 7 C 2.677137 0.470802 1.913937 0
M  V30 8 N 3.985092 0.427607 1.909814 0
M  V30 9 C 4.743298 0.836605 1.156258 0
M  V30 10 C 6.247306 0.852481 1.036921 0
M  V30 11 S 3.538674 1.606062 -0.103801 0
M  V30 12 C 2.129385 1.095320 0.865284 0
M  V30 13 C 0.650960 1.309124 0.585902 0
M  V30 14 C -0.114283 2.064609 1.442885 0
M  V30 15 C -1.462154 2.253855 1.177432 0
M  V30 16 N -1.981995 1.676681 0.064047 0
M  V30 17 C -1.210068 0.935827 -0.767413 0
M  V30 18 N -1.774600 0.325573 -1.950607 0
M  V30 19 C -2.239221 -0.965933 -1.556850 0
M  V30 20 O -2.049545 -1.229118 -0.346148 0
M  V30 21 C -2.888278 -1.949534 -2.428699 0
M  V30 22 C -3.254292 -3.122468 -1.798578 0
M  V30 23 C -3.878676 -4.105344 -2.575283 0
M  V30 24 C -4.093196 -3.850810 -3.919325 0
M  V30 25 C -3.716618 -2.663505 -4.532961 0
M  V30 26 C -3.096460 -1.687144 -3.761737 0
M  V30 27 C 0.147627 0.724623 -0.532084 0
M  V30 28 C 1.931901 0.270376 4.314104 0
M  V30 29 H 0.113119 0.307540 6.965467 0
M  V30 30 H 1.861077 0.865695 6.879209 0
M  V30 31 H 1.448028 -0.880463 7.287408 0
M  V30 32 H -0.341155 -1.916872 5.588437 0
M  V30 33 H -0.431678 -2.620270 3.264034 0
M  V30 34 H 0.970532 -1.493047 1.620176 0
M  V30 35 H 6.693796 1.420271 1.892655 0
M  V30 36 H 6.560778 1.338642 0.094644 0
M  V30 37 H 6.640151 -0.184283 0.993455 0
M  V30 38 H 0.318608 2.517913 2.327166 0
M  V30 39 H -2.067266 2.848649 1.852085 0
M  V30 40 H -1.920532 0.579008 -2.971705 0
M  V30 41 H -3.105089 -3.351747 -0.770847 0
M  V30 42 H -4.203419 -5.057714 -2.175077 0
M  V30 43 H -4.582885 -4.626997 -4.518192 0
M  V30 44 H -3.927621 -2.561792 -5.588871 0
M  V30 45 H -2.800277 -0.765385 -4.222412 0
M  V30 46 H 0.760622 0.132723 -1.197895 0
M  V30 47 H 2.593864 1.071999 4.582090 0
M  V30 END ATOM
M  V30 BEGIN BOND
M  V30 1 1 1 2
M  V30 2 2 2 3
M  V30 3 1 3 4
M  V30 4 2 4 5
M  V30 5 1 5 6
M  V30 6 1 6 7
M  V30 7 1 7 8
M  V30 8 2 8 9
M  V30 9 1 9 10
M  V30 10 1 9 11
M  V30 11 1 11 12
M  V30 12 1 12 13
M  V30 13 2 13 14
M  V30 14 1 14 15
M  V30 15 2 15 16
M  V30 16 1 16 17
M  V30 17 1 17 18
M  V30 18 1 18 19
M  V30 19 2 19 20
M  V30 20 1 19 21
M  V30 21 2 21 22
M  V30 22 1 22 23
M  V30 23 2 23 24
M  V30 24 1 24 25
M  V30 25 2 25 26
M  V30 26 2 17 27
M  V30 27 2 6 28
M  V30 28 1 28 2
M  V30 29 2 12 7
M  V30 30 1 27 13
M  V30 31 1 26 21
M  V30 32 1 1 29
M  V30 33 1 1 30
M  V30 34 1 1 31
M  V30 35 1 3 32
M  V30 36 1 4 33
M  V30 37 1 5 34
M  V30 38 1 10 35
M  V30 39 1 10 36
M  V30 40 1 10 37
M  V30 41 1 14 38
M  V30 42 1 15 39
M  V30 43 1 18 40
M  V30 44 1 22 41
M  V30 45 1 23 42
M  V30 46 1 24 43
M  V30 47 1 25 44
M  V30 48 1 26 45
M  V30 49 1 27 46
M  V30 50 1 28 47
M  V30 END BOND
M  V30 END CTAB
M  END
>  <Dataset>  (729) 
ChEMBL_Kinases

>  <Ligand_Instance>  (729) 
nan

>  <PDB_ID>  (729) 
nan

>  <Standardized_SMILES>  (729) 
Cc1cccc(-c2nc(C)sc2-c2ccnc(NC(=O)c3ccccc3)c2)c1

>  <Name>  (729) 
nan

>  <Pocket>  (729) 
nan

>  <ATP_Site>  (729) 
nan

>  <Peripheral>  (729) 
nan

>  <Num_H_Atoms_ProtBoundConf>  (729) 
nan

>  <Num_Resolved_Atoms>  (729) 
nan

>  <Num_Not_Resolved_Atoms>  (729) 
nan

$$$$
CHEMBL383527
     RDKit          3D

  0  0  0  0  0  0  0  0  0  0999 V3000
M  V30 BEGIN CTAB
M  V30 COUNTS 52 55 0 0 0
M  V30 BEGIN ATOM
M  V30 1 N 1.868779 0.471863 -0.242045 0
M  V30 2 C 1.401637 0.928361 1.036448 0 CFG=1
M  V30 3 C 1.761219 2.326981 1.370842 0
M  V30 4 C 3.232454 2.480598 1.367454 0
M  V30 5 C 3.918789 2.261919 2.570321 0
M  V30 6 C 5.291903 2.295705 2.739574 0
M  V30 7 C 6.045240 2.569235 1.623121 0
M  V30 8 C 5.436129 2.796368 0.407411 0
M  V30 9 C 6.161883 3.096154 -0.728974 0
M  V30 10 C 5.557454 3.347770 -1.944853 0
M  V30 11 C 4.165754 3.297691 -2.027647 0
M  V30 12 C 3.427831 2.998427 -0.900003 0
M  V30 13 C 4.067652 2.749027 0.305589 0
M  V30 14 C -0.031692 0.616139 1.274244 0
M  V30 15 O -0.765541 0.796246 2.307427 0
M  V30 16 N -0.805332 0.018937 0.249191 0
M  V30 17 C -2.144580 -0.423063 0.068747 0
M  V30 18 C -3.025519 0.528576 -0.426056 0
M  V30 19 N -4.339123 0.220661 -0.643589 0
M  V30 20 C -4.742066 -1.029523 -0.362199 0
M  V30 21 C -3.924276 -2.024425 0.130740 0
M  V30 22 C -4.441502 -3.361938 0.409916 0
M  V30 23 C -3.773062 -4.382337 0.877343 0
M  V30 24 C -4.311427 -5.699348 1.144639 0
M  V30 25 C -5.627683 -6.048263 0.931698 0
M  V30 26 C -6.050838 -7.334511 1.217818 0
M  V30 27 N -5.249303 -8.302591 1.704197 0
M  V30 28 C -3.956139 -7.981854 1.920135 0
M  V30 29 C -3.513299 -6.706548 1.641900 0
M  V30 30 C -2.596240 -1.699050 0.346458 0
M  V30 31 H 2.920474 0.273777 -0.220859 0
M  V30 32 H 1.487353 -0.519093 -0.359373 0
M  V30 33 H 1.948283 0.280097 1.788433 0
M  V30 34 H 1.416710 2.579968 2.415621 0
M  V30 35 H 1.255232 3.090013 0.743963 0
M  V30 36 H 3.313782 2.043361 3.464041 0
M  V30 37 H 5.698188 2.108703 3.721502 0
M  V30 38 H 7.128099 2.605270 1.703983 0
M  V30 39 H 7.260290 3.138470 -0.676536 0
M  V30 40 H 6.150103 3.584114 -2.836059 0
M  V30 41 H 3.655274 3.493832 -2.980272 0
M  V30 42 H 2.356077 2.993797 -1.027273 0
M  V30 43 H -0.465222 -0.235738 -0.702447 0
M  V30 44 H -2.733880 1.551196 -0.665861 0
M  V30 45 H -5.794544 -1.271661 -0.537723 0
M  V30 46 H -5.492731 -3.535382 0.210074 0
M  V30 47 H -2.719648 -4.210984 1.078348 0
M  V30 48 H -6.323956 -5.345724 0.550858 0
M  V30 49 H -7.080443 -7.614354 1.054538 0
M  V30 50 H -3.315224 -8.759975 2.310494 0
M  V30 51 H -2.446121 -6.556652 1.855078 0
M  V30 52 H -1.892860 -2.396784 0.723313 0
M  V30 END ATOM
M  V30 BEGIN BOND
M  V30 1 1 1 2
M  V30 2 1 2 3
M  V30 3 1 3 4
M  V30 4 2 4 5
M  V30 5 1 5 6
M  V30 6 2 6 7
M  V30 7 1 7 8
M  V30 8 2 8 9
M  V30 9 1 9 10
M  V30 10 2 10 11
M  V30 11 1 11 12
M  V30 12 2 12 13
M  V30 13 1 2 14
M  V30 14 2 14 15
M  V30 15 1 14 16
M  V30 16 1 16 17
M  V30 17 2 17 18
M  V30 18 1 18 19
M  V30 19 2 19 20
M  V30 20 1 20 21
M  V30 21 1 21 22
M  V30 22 2 22 23
M  V30 23 1 23 24
M  V30 24 2 24 25
M  V30 25 1 25 26
M  V30 26 2 26 27
M  V30 27 1 27 28
M  V30 28 2 28 29
M  V30 29 2 21 30
M  V30 30 1 13 4
M  V30 31 1 30 17
M  V30 32 1 13 8
M  V30 33 1 29 24
M  V30 34 1 1 31
M  V30 35 1 1 32
M  V30 36 1 2 33 CFG=1
M  V30 37 1 3 34
M  V30 38 1 3 35
M  V30 39 1 5 36
M  V30 40 1 6 37
M  V30 41 1 7 38
M  V30 42 1 9 39
M  V30 43 1 10 40
M  V30 44 1 11 41
M  V30 45 1 12 42
M  V30 46 1 16 43
M  V30 47 1 18 44
M  V30 48 1 20 45
M  V30 49 1 22 46
M  V30 50 1 23 47
M  V30 51 1 25 48
M  V30 52 1 26 49
M  V30 53 1 28 50
M  V30 54 1 29 51
M  V30 55 1 30 52
M  V30 END BOND
M  V30 END CTAB
M  END
>  <Dataset>  (730) 
ChEMBL_Kinases

>  <Ligand_Instance>  (730) 
nan

>  <PDB_ID>  (730) 
nan

>  <Standardized_SMILES>  (730) 
N[C@@H](Cc1cccc2ccccc12)C(=O)Nc1cncc(/C=C/c2ccncc2)c1

>  <Name>  (730) 
nan

>  <Pocket>  (730) 
nan

>  <ATP_Site>  (730) 
nan

>  <Peripheral>  (730) 
nan

>  <Num_H_Atoms_ProtBoundConf>  (730) 
nan

>  <Num_Resolved_Atoms>  (730) 
nan

>  <Num_Not_Resolved_Atoms>  (730) 
nan

$$$$
CHEMBL383523
     RDKit          3D

  0  0  0  0  0  0  0  0  0  0999 V3000
M  V30 BEGIN CTAB
M  V30 COUNTS 40 43 0 0 0
M  V30 BEGIN ATOM
M  V30 1 F 4.139110 -6.126884 2.308280 0
M  V30 2 C 3.746185 -5.489648 1.153437 0
M  V30 3 F 2.833128 -6.319207 0.540187 0
M  V30 4 F 4.844660 -5.429872 0.293697 0
M  V30 5 C 3.194738 -4.128578 1.393548 0
M  V30 6 C 3.336529 -3.397046 2.554250 0
M  V30 7 C 2.767669 -2.129516 2.645349 0
M  V30 8 C 2.045871 -1.551220 1.597276 0
M  V30 9 C 1.483983 -0.217600 1.775724 0
M  V30 10 C 0.778473 0.381672 0.783945 0
M  V30 11 C 0.271494 1.644311 1.003773 0
M  V30 12 C -0.506918 2.446324 0.066630 0
M  V30 13 C 0.054763 3.657626 -0.361767 0
M  V30 14 N -0.807136 4.255835 -1.222410 0
M  V30 15 N -1.855087 3.463998 -1.330220 0
M  V30 16 C -1.725916 2.359286 -0.573929 0
M  V30 17 C -2.556275 1.199028 -0.328888 0
M  V30 18 C -2.797902 0.455332 -1.474651 0
M  V30 19 C -3.572450 -0.689701 -1.438553 0
M  V30 20 C -4.083988 -1.039091 -0.196695 0
M  V30 21 C -3.816565 -0.265302 0.924289 0
M  V30 22 N -3.059876 0.846264 0.867565 0
M  V30 23 C 0.509664 2.242031 2.236064 0
M  V30 24 C 1.224679 1.607210 3.210741 0
M  V30 25 N 1.711265 0.365288 2.965833 0
M  V30 26 C 1.930538 -2.319421 0.457416 0
M  V30 27 C 2.486411 -3.577728 0.345954 0
M  V30 28 H 3.891603 -3.850000 3.351756 0
M  V30 29 H 2.934320 -1.629890 3.602235 0
M  V30 30 H 0.582605 -0.051581 -0.162828 0
M  V30 31 H 0.976283 4.223398 -0.186647 0
M  V30 32 H -0.900637 5.109649 -1.802437 0
M  V30 33 H -2.414629 0.697517 -2.464912 0
M  V30 34 H -3.784384 -1.294443 -2.302811 0
M  V30 35 H -4.704053 -1.934400 -0.105147 0
M  V30 36 H -4.262355 -0.621849 1.854309 0
M  V30 37 H 0.148314 3.234378 2.496944 0
M  V30 38 H 1.427052 2.045469 4.178466 0
M  V30 39 H 1.386302 -1.911838 -0.363517 0
M  V30 40 H 2.346008 -4.108244 -0.586423 0
M  V30 END ATOM
M  V30 BEGIN BOND
M  V30 1 1 1 2
M  V30 2 1 2 3
M  V30 3 1 2 4
M  V30 4 1 2 5
M  V30 5 2 5 6
M  V30 6 1 6 7
M  V30 7 2 7 8
M  V30 8 1 8 9
M  V30 9 2 9 10
M  V30 10 1 10 11
M  V30 11 1 11 12
M  V30 12 2 12 13
M  V30 13 1 13 14
M  V30 14 1 14 15
M  V30 15 2 15 16
M  V30 16 1 16 17
M  V30 17 2 17 18
M  V30 18 1 18 19
M  V30 19 2 19 20
M  V30 20 1 20 21
M  V30 21 2 21 22
M  V30 22 2 11 23
M  V30 23 1 23 24
M  V30 24 2 24 25
M  V30 25 1 8 26
M  V30 26 2 26 27
M  V30 27 1 27 5
M  V30 28 1 25 9
M  V30 29 1 16 12
M  V30 30 1 22 17
M  V30 31 1 6 28
M  V30 32 1 7 29
M  V30 33 1 10 30
M  V30 34 1 13 31
M  V30 35 1 14 32
M  V30 36 1 18 33
M  V30 37 1 19 34
M  V30 38 1 20 35
M  V30 39 1 21 36
M  V30 40 1 23 37
M  V30 41 1 24 38
M  V30 42 1 26 39
M  V30 43 1 27 40
M  V30 END BOND
M  V30 END CTAB
M  END
>  <Dataset>  (731) 
ChEMBL_Kinases

>  <Ligand_Instance>  (731) 
nan

>  <PDB_ID>  (731) 
nan

>  <Standardized_SMILES>  (731) 
FC(F)(F)c1ccc(-c2cc(-c3c[nH]nc3-c3ccccn3)ccn2)cc1

>  <Name>  (731) 
nan

>  <Pocket>  (731) 
nan

>  <ATP_Site>  (731) 
nan

>  <Peripheral>  (731) 
nan

>  <Num_H_Atoms_ProtBoundConf>  (731) 
nan

>  <Num_Resolved_Atoms>  (731) 
nan

>  <Num_Not_Resolved_Atoms>  (731) 
nan

$$$$
CHEMBL383482
     RDKit          3D

  0  0  0  0  0  0  0  0  0  0999 V3000
M  V30 BEGIN CTAB
M  V30 COUNTS 36 37 0 0 0
M  V30 BEGIN ATOM
M  V30 1 C -0.617965 -4.651742 0.884801 0
M  V30 2 C 0.759376 -4.034847 0.760063 0
M  V30 3 C 1.569246 -4.394982 1.985005 0
M  V30 4 C 1.413146 -4.668487 -0.443820 0
M  V30 5 C 0.681530 -2.556324 0.639220 0
M  V30 6 C 1.761868 -1.710765 0.515162 0
M  V30 7 C 1.642649 -0.340964 0.405613 0
M  V30 8 C 0.375997 0.207077 0.421406 0
M  V30 9 C 0.215000 1.652629 0.306757 0
M  V30 10 N -0.960708 2.321963 0.310002 0
M  V30 11 C -0.716701 3.650664 0.184530 0
M  V30 12 C -1.702705 4.752330 0.141262 0
M  V30 13 N -3.091196 4.392294 0.242627 0
M  V30 14 O -1.213523 5.903598 0.018661 0
M  V30 15 C 0.654991 3.759792 0.105021 0
M  V30 16 N 1.397081 4.987275 -0.037574 0
M  V30 17 O 1.162093 2.551593 0.181815 0
M  V30 18 C -0.735602 -0.598327 0.543531 0
M  V30 19 C -0.587502 -1.966291 0.651458 0
M  V30 20 H -1.171560 -4.237875 1.771706 0
M  V30 21 H -1.242398 -4.436723 -0.005556 0
M  V30 22 H -0.487648 -5.742497 0.968557 0
M  V30 23 H 2.624788 -4.633599 1.703628 0
M  V30 24 H 1.510340 -3.533207 2.673891 0
M  V30 25 H 1.135945 -5.330025 2.401961 0
M  V30 26 H 1.672932 -5.716657 -0.112120 0
M  V30 27 H 2.334500 -4.113230 -0.727463 0
M  V30 28 H 0.675746 -4.683124 -1.273185 0
M  V30 29 H 2.750617 -2.160263 0.504301 0
M  V30 30 H 2.545312 0.258737 0.311252 0
M  V30 31 H -3.125636 4.341817 -0.800740 0
M  V30 32 H -3.040160 4.447163 1.287698 0
M  V30 33 H 1.495746 5.386294 0.910885 0
M  V30 34 H 1.774538 5.412846 -0.930768 0
M  V30 35 H -1.729886 -0.129305 0.552674 0
M  V30 36 H -1.516582 -2.513712 0.742722 0
M  V30 END ATOM
M  V30 BEGIN BOND
M  V30 1 1 1 2
M  V30 2 1 2 3
M  V30 3 1 2 4
M  V30 4 1 2 5
M  V30 5 2 5 6
M  V30 6 1 6 7
M  V30 7 2 7 8
M  V30 8 1 8 9
M  V30 9 2 9 10
M  V30 10 1 10 11
M  V30 11 1 11 12
M  V30 12 1 12 13
M  V30 13 2 12 14
M  V30 14 2 11 15
M  V30 15 1 15 16
M  V30 16 1 15 17
M  V30 17 1 8 18
M  V30 18 2 18 19
M  V30 19 1 19 5
M  V30 20 1 17 9
M  V30 21 1 1 20
M  V30 22 1 1 21
M  V30 23 1 1 22
M  V30 24 1 3 23
M  V30 25 1 3 24
M  V30 26 1 3 25
M  V30 27 1 4 26
M  V30 28 1 4 27
M  V30 29 1 4 28
M  V30 30 1 6 29
M  V30 31 1 7 30
M  V30 32 1 13 31
M  V30 33 1 13 32
M  V30 34 1 16 33
M  V30 35 1 16 34
M  V30 36 1 18 35
M  V30 37 1 19 36
M  V30 END BOND
M  V30 END CTAB
M  END
>  <Dataset>  (732) 
ChEMBL_Kinases

>  <Ligand_Instance>  (732) 
nan

>  <PDB_ID>  (732) 
nan

>  <Standardized_SMILES>  (732) 
CC(C)(C)c1ccc(-c2nc(C(N)=O)c(N)o2)cc1

>  <Name>  (732) 
nan

>  <Pocket>  (732) 
nan

>  <ATP_Site>  (732) 
nan

>  <Peripheral>  (732) 
nan

>  <Num_H_Atoms_ProtBoundConf>  (732) 
nan

>  <Num_Resolved_Atoms>  (732) 
nan

>  <Num_Not_Resolved_Atoms>  (732) 
nan

$$$$
CHEMBL383433
     RDKit          3D

  0  0  0  0  0  0  0  0  0  0999 V3000
M  V30 BEGIN CTAB
M  V30 COUNTS 40 43 0 0 0
M  V30 BEGIN ATOM
M  V30 1 C -0.374907 -4.438008 -0.212519 0
M  V30 2 C 0.771174 -3.903784 0.537110 0
M  V30 3 C 1.572298 -4.785099 1.274609 0
M  V30 4 C 2.652874 -4.401063 2.003139 0
M  V30 5 C 2.966403 -3.060723 2.006537 0
M  V30 6 C 2.178248 -2.177663 1.278245 0
M  V30 7 C 1.081886 -2.560690 0.537851 0
M  V30 8 C 0.296886 -1.608850 -0.200772 0
M  V30 9 C 0.580206 -0.260431 -0.215862 0
M  V30 10 C -0.169534 0.661067 -0.923551 0
M  V30 11 C 0.162113 2.097199 -0.916258 0
M  V30 12 C 0.557700 2.983758 -1.896413 0
M  V30 13 N 0.712821 4.164845 -1.271888 0
M  V30 14 N 0.437564 4.045686 0.011928 0
M  V30 15 C 0.081850 2.766702 0.310091 0
M  V30 16 C -0.288446 2.283234 1.635824 0
M  V30 17 C 0.511988 2.258164 2.763881 0
M  V30 18 C -0.005028 1.764491 3.943446 0
M  V30 19 C -1.310846 1.320190 3.919016 0
M  V30 20 C -2.118421 1.340159 2.801103 0
M  V30 21 N -1.557932 1.835701 1.670601 0
M  V30 22 C -1.261889 0.263450 -1.664943 0
M  V30 23 C -1.499779 -1.103022 -1.613222 0
M  V30 24 N -0.768100 -1.994660 -0.923854 0
M  V30 25 H -0.464246 -5.548691 -0.027064 0
M  V30 26 H -1.363059 -4.043997 0.103295 0
M  V30 27 H -0.187350 -4.364860 -1.301891 0
M  V30 28 H 1.325458 -5.849715 1.273174 0
M  V30 29 H 3.229698 -5.134407 2.550714 0
M  V30 30 H 3.826799 -2.751214 2.585754 0
M  V30 31 H 2.517044 -1.160121 1.355088 0
M  V30 32 H 1.395140 0.159415 0.316593 0
M  V30 33 H 0.678839 2.650665 -2.928108 0
M  V30 34 H 1.015696 5.029476 -1.797520 0
M  V30 35 H 1.512328 2.638946 2.631262 0
M  V30 36 H 0.629497 1.749181 4.818486 0
M  V30 37 H -1.721058 0.927162 4.859518 0
M  V30 38 H -3.149965 0.976870 2.827794 0
M  V30 39 H -1.901696 0.899267 -2.243583 0
M  V30 40 H -2.348771 -1.517076 -2.171783 0
M  V30 END ATOM
M  V30 BEGIN BOND
M  V30 1 1 1 2
M  V30 2 2 2 3
M  V30 3 1 3 4
M  V30 4 2 4 5
M  V30 5 1 5 6
M  V30 6 2 6 7
M  V30 7 1 7 8
M  V30 8 2 8 9
M  V30 9 1 9 10
M  V30 10 1 10 11
M  V30 11 2 11 12
M  V30 12 1 12 13
M  V30 13 1 13 14
M  V30 14 2 14 15
M  V30 15 1 15 16
M  V30 16 2 16 17
M  V30 17 1 17 18
M  V30 18 2 18 19
M  V30 19 1 19 20
M  V30 20 2 20 21
M  V30 21 2 10 22
M  V30 22 1 22 23
M  V30 23 2 23 24
M  V30 24 1 7 2
M  V30 25 1 24 8
M  V30 26 1 15 11
M  V30 27 1 21 16
M  V30 28 1 1 25
M  V30 29 1 1 26
M  V30 30 1 1 27
M  V30 31 1 3 28
M  V30 32 1 4 29
M  V30 33 1 5 30
M  V30 34 1 6 31
M  V30 35 1 9 32
M  V30 36 1 12 33
M  V30 37 1 13 34
M  V30 38 1 17 35
M  V30 39 1 18 36
M  V30 40 1 19 37
M  V30 41 1 20 38
M  V30 42 1 22 39
M  V30 43 1 23 40
M  V30 END BOND
M  V30 END CTAB
M  END
>  <Dataset>  (733) 
ChEMBL_Kinases

>  <Ligand_Instance>  (733) 
nan

>  <PDB_ID>  (733) 
nan

>  <Standardized_SMILES>  (733) 
Cc1ccccc1-c1cc(-c2c[nH]nc2-c2ccccn2)ccn1

>  <Name>  (733) 
nan

>  <Pocket>  (733) 
nan

>  <ATP_Site>  (733) 
nan

>  <Peripheral>  (733) 
nan

>  <Num_H_Atoms_ProtBoundConf>  (733) 
nan

>  <Num_Resolved_Atoms>  (733) 
nan

>  <Num_Not_Resolved_Atoms>  (733) 
nan

$$$$
CHEMBL383421
     RDKit          3D

  0  0  0  0  0  0  0  0  0  0999 V3000
M  V30 BEGIN CTAB
M  V30 COUNTS 28 30 0 0 0
M  V30 BEGIN ATOM
M  V30 1 N -2.798667 -3.748857 5.192147 0
M  V30 2 C -1.778863 -3.299419 4.239942 0
M  V30 3 N -1.255636 -1.993906 4.184633 0
M  V30 4 C -0.351151 -1.920602 3.208588 0
M  V30 5 N 0.235201 -0.717386 3.043018 0
M  V30 6 C 1.177434 -0.497499 2.085904 0
M  V30 7 S 1.979812 1.085590 1.829847 0
M  V30 8 C 1.062895 2.102938 0.645807 0
M  V30 9 C 1.086382 1.533569 -0.720100 0
M  V30 10 C 0.084156 0.652852 -1.075227 0
M  V30 11 C -0.009559 0.062015 -2.298124 0
M  V30 12 C 0.972843 0.382052 -3.221483 0
M  V30 13 C 2.013080 1.264868 -2.926296 0
M  V30 14 C 2.053087 1.835029 -1.659935 0
M  V30 15 N 1.612747 -1.457698 1.215364 0
M  V30 16 C 1.036430 -2.660710 1.369673 0
M  V30 17 Cl 1.342806 -4.112892 0.442339 0
M  V30 18 C 0.117899 -2.926985 2.281468 0
M  V30 19 S -0.917222 -4.305835 2.876564 0
M  V30 20 H -2.510940 -3.449487 6.134625 0
M  V30 21 H -3.574834 -4.261981 4.719541 0
M  V30 22 H 0.001835 2.265963 0.979874 0
M  V30 23 H 1.513331 3.107213 0.647449 0
M  V30 24 H -0.681509 0.402325 -0.358495 0
M  V30 25 H -0.807936 -0.624966 -2.547516 0
M  V30 26 H 0.995514 -0.021429 -4.204593 0
M  V30 27 H 2.779374 1.515700 -3.643366 0
M  V30 28 H 2.827097 2.536550 -1.339039 0
M  V30 END ATOM
M  V30 BEGIN BOND
M  V30 1 1 1 2
M  V30 2 2 2 3
M  V30 3 1 3 4
M  V30 4 2 4 5
M  V30 5 1 5 6
M  V30 6 1 6 7
M  V30 7 1 7 8
M  V30 8 1 8 9
M  V30 9 2 9 10
M  V30 10 1 10 11
M  V30 11 2 11 12
M  V30 12 1 12 13
M  V30 13 2 13 14
M  V30 14 2 6 15
M  V30 15 1 15 16
M  V30 16 1 16 17
M  V30 17 2 16 18
M  V30 18 1 18 19
M  V30 19 1 19 2
M  V30 20 1 18 4
M  V30 21 1 14 9
M  V30 22 1 1 20
M  V30 23 1 1 21
M  V30 24 1 8 22
M  V30 25 1 8 23
M  V30 26 1 10 24
M  V30 27 1 11 25
M  V30 28 1 12 26
M  V30 29 1 13 27
M  V30 30 1 14 28
M  V30 END BOND
M  V30 END CTAB
M  END
>  <Dataset>  (734) 
ChEMBL_Kinases

>  <Ligand_Instance>  (734) 
nan

>  <PDB_ID>  (734) 
nan

>  <Standardized_SMILES>  (734) 
Nc1nc2nc(SCc3ccccc3)nc(Cl)c2s1

>  <Name>  (734) 
nan

>  <Pocket>  (734) 
nan

>  <ATP_Site>  (734) 
nan

>  <Peripheral>  (734) 
nan

>  <Num_H_Atoms_ProtBoundConf>  (734) 
nan

>  <Num_Resolved_Atoms>  (734) 
nan

>  <Num_Not_Resolved_Atoms>  (734) 
nan

$$$$
CHEMBL383417
     RDKit          3D

  0  0  0  0  0  0  0  0  0  0999 V3000
M  V30 BEGIN CTAB
M  V30 COUNTS 33 36 0 0 0
M  V30 BEGIN ATOM
M  V30 1 N -1.736367 -1.361253 0.848731 0
M  V30 2 C -1.199309 -0.093358 0.521738 0
M  V30 3 C 0.145417 0.140586 0.322462 0
M  V30 4 C 1.063511 -0.982887 0.456738 0
M  V30 5 N 0.656068 -2.226117 0.764100 0
M  V30 6 C 1.705931 -3.062777 0.823258 0
M  V30 7 C 1.698009 -4.413339 1.108660 0
M  V30 8 C 2.943147 -5.026720 1.099000 0
M  V30 9 C 4.122876 -4.327220 0.820055 0
M  V30 10 C 4.059860 -2.957323 0.538489 0
M  V30 11 C 2.834299 -2.324453 0.541857 0
M  V30 12 N 2.397531 -1.072941 0.326915 0
M  V30 13 C 0.546579 1.420916 0.008007 0
M  V30 14 O 1.761151 1.666835 -0.179271 0
M  V30 15 N -0.315827 2.452804 -0.113172 0
M  V30 16 C -1.643018 2.229501 0.081905 0
M  V30 17 C -2.494782 3.307128 -0.050092 0
M  V30 18 C -3.861028 3.080984 0.149944 0
M  V30 19 C -4.341450 1.817841 0.469621 0
M  V30 20 C -3.456248 0.744131 0.597063 0
M  V30 21 C -2.103575 0.968163 0.398985 0
M  V30 22 H -1.915273 -1.325168 1.876870 0
M  V30 23 H -1.957302 -2.217077 0.313071 0
M  V30 24 H 0.793667 -4.957986 1.324267 0
M  V30 25 H 3.033070 -6.102655 1.315630 0
M  V30 26 H 5.079556 -4.836544 0.820645 0
M  V30 27 H 4.934400 -2.370799 0.317379 0
M  V30 28 H 3.011335 -0.278218 0.091037 0
M  V30 29 H 0.039616 3.411667 -0.354813 0
M  V30 30 H -2.097808 4.287099 -0.300807 0
M  V30 31 H -4.507773 3.945958 0.039872 0
M  V30 32 H -5.405366 1.696455 0.613877 0
M  V30 33 H -3.849916 -0.215305 0.843088 0
M  V30 END ATOM
M  V30 BEGIN BOND
M  V30 1 1 1 2
M  V30 2 2 2 3
M  V30 3 1 3 4
M  V30 4 2 4 5
M  V30 5 1 5 6
M  V30 6 2 6 7
M  V30 7 1 7 8
M  V30 8 2 8 9
M  V30 9 1 9 10
M  V30 10 2 10 11
M  V30 11 1 11 12
M  V30 12 1 3 13
M  V30 13 2 13 14
M  V30 14 1 13 15
M  V30 15 1 15 16
M  V30 16 2 16 17
M  V30 17 1 17 18
M  V30 18 2 18 19
M  V30 19 1 19 20
M  V30 20 2 20 21
M  V30 21 1 21 2
M  V30 22 1 12 4
M  V30 23 1 21 16
M  V30 24 1 11 6
M  V30 25 1 1 22
M  V30 26 1 1 23
M  V30 27 1 7 24
M  V30 28 1 8 25
M  V30 29 1 9 26
M  V30 30 1 10 27
M  V30 31 1 12 28
M  V30 32 1 15 29
M  V30 33 1 17 30
M  V30 34 1 18 31
M  V30 35 1 19 32
M  V30 36 1 20 33
M  V30 END BOND
M  V30 END CTAB
M  END
>  <Dataset>  (735) 
ChEMBL_Kinases

>  <Ligand_Instance>  (735) 
nan

>  <PDB_ID>  (735) 
nan

>  <Standardized_SMILES>  (735) 
Nc1c(-c2nc3ccccc3[nH]2)c(=O)[nH]c2ccccc12

>  <Name>  (735) 
nan

>  <Pocket>  (735) 
nan

>  <ATP_Site>  (735) 
nan

>  <Peripheral>  (735) 
nan

>  <Num_H_Atoms_ProtBoundConf>  (735) 
nan

>  <Num_Resolved_Atoms>  (735) 
nan

>  <Num_Not_Resolved_Atoms>  (735) 
nan

$$$$
CHEMBL593221
     RDKit          3D

  0  0  0  0  0  0  0  0  0  0999 V3000
M  V30 BEGIN CTAB
M  V30 COUNTS 75 80 0 0 0
M  V30 BEGIN ATOM
M  V30 1 C 5.450791 -0.441818 4.873165 0
M  V30 2 O 4.099054 -0.688090 4.543519 0
M  V30 3 C 3.390056 0.167543 3.712971 0
M  V30 4 C 4.032409 1.279671 3.204780 0
M  V30 5 C 3.271280 2.065714 2.401686 0
M  V30 6 C 3.905397 3.296793 1.815342 0
M  V30 7 N 5.015909 3.734178 1.929604 0
M  V30 8 C 5.469854 4.842435 1.360785 0
M  V30 9 C 6.717137 5.423280 1.430166 0
M  V30 10 C 6.987702 6.592227 0.754955 0
M  V30 11 C 6.069296 7.265906 -0.025206 0
M  V30 12 C 4.792376 6.768787 -0.161027 0
M  V30 13 C 4.556838 5.564209 0.550631 0
M  V30 14 S 3.026807 4.473189 0.716418 0
M  V30 15 C 1.952640 1.831598 2.076153 0
M  V30 16 C 1.382300 0.688706 2.631112 0
M  V30 17 C 2.079325 -0.172481 3.461275 0
M  V30 18 N 1.466693 -1.335868 4.019131 0
M  V30 19 C 0.106509 -1.511675 3.641814 0
M  V30 20 N -0.903503 -0.955958 4.333410 0
M  V30 21 C -2.194142 -1.114580 3.989932 0
M  V30 22 N -2.479156 -1.866372 2.901401 0
M  V30 23 C -1.487648 -2.424111 2.205320 0
M  V30 24 C -1.816452 -3.182109 1.107096 0
M  V30 25 C -0.932861 -3.829241 0.277053 0
M  V30 26 O -1.046677 -4.601620 -0.826953 0
M  V30 27 C -2.198571 -4.960835 -1.489154 0
M  V30 28 C -2.984313 -3.849548 -2.088538 0
M  V30 29 C -4.252053 -4.349912 -2.797296 0
M  V30 30 N -4.918741 -3.206194 -3.318330 0
M  V30 31 C -6.133187 -3.437914 -4.026116 0
M  V30 32 C -7.042912 -2.242799 -3.705680 0
M  V30 33 N -6.260309 -1.036605 -3.627938 0
M  V30 34 C -5.972834 -0.658408 -2.260880 0
M  V30 35 C -5.048259 -1.084132 -4.377838 0
M  V30 36 C -4.101780 -2.154289 -3.819300 0
M  V30 37 C 0.412307 -3.661357 0.639455 0
M  V30 38 O 1.468373 -4.210721 -0.035263 0
M  V30 39 C 2.801689 -4.025485 0.350994 0
M  V30 40 C 0.785273 -2.900153 1.746568 0
M  V30 41 C -0.155957 -2.281886 2.529427 0
M  V30 42 H 5.761396 -1.049015 5.753807 0
M  V30 43 H 6.129339 -0.687250 4.033106 0
M  V30 44 H 5.626461 0.622773 5.122792 0
M  V30 45 H 5.047869 1.548293 3.396145 0
M  V30 46 H 7.526175 4.999453 2.004991 0
M  V30 47 H 7.983345 7.060805 0.807145 0
M  V30 48 H 6.198448 8.178964 -0.582069 0
M  V30 49 H 3.924280 7.098599 -0.695368 0
M  V30 50 H 1.403352 2.500105 1.428695 0
M  V30 51 H 0.348039 0.492779 2.383909 0
M  V30 52 H 2.067794 -1.931530 4.638044 0
M  V30 53 H -3.037385 -0.677018 4.530164 0
M  V30 54 H -2.838661 -3.315920 0.849064 0
M  V30 55 H -1.897113 -5.627212 -2.357594 0
M  V30 56 H -2.866291 -5.610344 -0.874277 0
M  V30 57 H -3.296261 -3.087491 -1.388561 0
M  V30 58 H -2.376521 -3.419172 -2.945760 0
M  V30 59 H -4.892567 -4.882132 -2.048824 0
M  V30 60 H -4.019217 -5.100697 -3.580556 0
M  V30 61 H -6.627624 -4.338185 -3.625075 0
M  V30 62 H -6.036800 -3.451099 -5.135550 0
M  V30 63 H -7.791353 -2.092356 -4.507932 0
M  V30 64 H -7.500234 -2.394667 -2.702892 0
M  V30 65 H -6.175961 0.449632 -2.196065 0
M  V30 66 H -4.932366 -0.781341 -1.954713 0
M  V30 67 H -6.603632 -1.227143 -1.547297 0
M  V30 68 H -5.211416 -1.197692 -5.468915 0
M  V30 69 H -4.507966 -0.125929 -4.240697 0
M  V30 70 H -3.470423 -1.720921 -3.008953 0
M  V30 71 H -3.388284 -2.508924 -4.607498 0
M  V30 72 H 3.504538 -4.498009 -0.355603 0
M  V30 73 H 2.961066 -4.428392 1.378116 0
M  V30 74 H 3.023283 -2.935541 0.307042 0
M  V30 75 H 1.810148 -2.754614 2.047385 0
M  V30 END ATOM
M  V30 BEGIN BOND
M  V30 1 1 1 2
M  V30 2 1 2 3
M  V30 3 2 3 4
M  V30 4 1 4 5
M  V30 5 1 5 6
M  V30 6 2 6 7
M  V30 7 1 7 8
M  V30 8 2 8 9
M  V30 9 1 9 10
M  V30 10 2 10 11
M  V30 11 1 11 12
M  V30 12 2 12 13
M  V30 13 1 13 14
M  V30 14 2 5 15
M  V30 15 1 15 16
M  V30 16 2 16 17
M  V30 17 1 17 18
M  V30 18 1 18 19
M  V30 19 2 19 20
M  V30 20 1 20 21
M  V30 21 2 21 22
M  V30 22 1 22 23
M  V30 23 2 23 24
M  V30 24 1 24 25
M  V30 25 1 25 26
M  V30 26 1 26 27
M  V30 27 1 27 28
M  V30 28 1 28 29
M  V30 29 1 29 30
M  V30 30 1 30 31
M  V30 31 1 31 32
M  V30 32 1 32 33
M  V30 33 1 33 34
M  V30 34 1 33 35
M  V30 35 1 35 36
M  V30 36 2 25 37
M  V30 37 1 37 38
M  V30 38 1 38 39
M  V30 39 1 37 40
M  V30 40 2 40 41
M  V30 41 1 17 3
M  V30 42 1 41 19
M  V30 43 1 14 6
M  V30 44 1 41 23
M  V30 45 1 13 8
M  V30 46 1 36 30
M  V30 47 1 1 42
M  V30 48 1 1 43
M  V30 49 1 1 44
M  V30 50 1 4 45
M  V30 51 1 9 46
M  V30 52 1 10 47
M  V30 53 1 11 48
M  V30 54 1 12 49
M  V30 55 1 15 50
M  V30 56 1 16 51
M  V30 57 1 18 52
M  V30 58 1 21 53
M  V30 59 1 24 54
M  V30 60 1 27 55
M  V30 61 1 27 56
M  V30 62 1 28 57
M  V30 63 1 28 58
M  V30 64 1 29 59
M  V30 65 1 29 60
M  V30 66 1 31 61
M  V30 67 1 31 62
M  V30 68 1 32 63
M  V30 69 1 32 64
M  V30 70 1 34 65
M  V30 71 1 34 66
M  V30 72 1 34 67
M  V30 73 1 35 68
M  V30 74 1 35 69
M  V30 75 1 36 70
M  V30 76 1 36 71
M  V30 77 1 39 72
M  V30 78 1 39 73
M  V30 79 1 39 74
M  V30 80 1 40 75
M  V30 END BOND
M  V30 END CTAB
M  END
>  <Dataset>  (736) 
ChEMBL_Kinases

>  <Ligand_Instance>  (736) 
nan

>  <PDB_ID>  (736) 
nan

>  <Standardized_SMILES>  (736) 
COc1cc(-c2nc3ccccc3s2)ccc1Nc1ncnc2cc(OCCCN3CCN(C)CC3)c(OC)cc12

>  <Name>  (736) 
nan

>  <Pocket>  (736) 
nan

>  <ATP_Site>  (736) 
nan

>  <Peripheral>  (736) 
nan

>  <Num_H_Atoms_ProtBoundConf>  (736) 
nan

>  <Num_Resolved_Atoms>  (736) 
nan

>  <Num_Not_Resolved_Atoms>  (736) 
nan

$$$$
CHEMBL494685
     RDKit          3D

  0  0  0  0  0  0  0  0  0  0999 V3000
M  V30 BEGIN CTAB
M  V30 COUNTS 50 54 0 0 0
M  V30 BEGIN ATOM
M  V30 1 O 4.234864 3.141141 2.401847 0
M  V30 2 C 4.198989 2.441148 1.370908 0
M  V30 3 N 5.296661 2.359086 0.471672 0
M  V30 4 C 4.844193 1.460257 -0.564910 0
M  V30 5 C 5.647286 1.113697 -1.655518 0
M  V30 6 C 5.130644 0.251039 -2.593643 0
M  V30 7 Br 6.182657 -0.249459 -4.093724 0
M  V30 8 C 3.828295 -0.228683 -2.398103 0
M  V30 9 C 3.131316 0.180875 -1.286698 0
M  V30 10 C 3.572476 1.014293 -0.339937 0
M  V30 11 C 3.132618 1.604967 0.862020 0
M  V30 12 C 1.979692 1.440884 1.426561 0
M  V30 13 N 1.535148 2.032335 2.630687 0
M  V30 14 C 0.212836 1.656394 2.994339 0
M  V30 15 C -0.545935 2.027017 4.086016 0
M  V30 16 C -1.806320 1.480003 4.147598 0
M  V30 17 C -2.298213 0.629193 3.211393 0
M  V30 18 C -1.487905 0.304282 2.152338 0
M  V30 19 C -0.187535 0.789922 1.970153 0
M  V30 20 C 0.875587 0.641229 0.998916 0
M  V30 21 N 0.646043 -0.104307 0.038047 0
M  V30 22 O -0.434808 -0.839068 -0.309445 0
M  V30 23 C -0.390225 -2.261251 -0.308100 0
M  V30 24 C -1.660778 -2.870063 -0.793952 0
M  V30 25 N -2.826047 -2.553884 -0.049995 0
M  V30 26 C -2.919710 -3.082420 1.267760 0
M  V30 27 C -3.754045 -4.332384 1.069351 0
M  V30 28 C -4.858359 -3.754589 0.174838 0
M  V30 29 C -4.069212 -2.788841 -0.700879 0
M  V30 30 H 6.211586 2.858592 0.580076 0
M  V30 31 H 6.641298 1.472359 -1.814404 0
M  V30 32 H 3.510709 -0.906239 -3.198118 0
M  V30 33 H 2.197981 -0.281693 -1.325682 0
M  V30 34 H 2.121919 2.678507 3.191359 0
M  V30 35 H -0.152613 2.704618 4.830049 0
M  V30 36 H -2.415079 1.755355 4.989613 0
M  V30 37 H -3.295936 0.214481 3.288695 0
M  V30 38 H -1.895436 -0.371709 1.420080 0
M  V30 39 H 0.399582 -2.530487 -1.071762 0
M  V30 40 H -0.023274 -2.690533 0.630985 0
M  V30 41 H -1.554619 -3.991602 -0.763485 0
M  V30 42 H -1.804408 -2.647225 -1.874123 0
M  V30 43 H -1.937129 -3.304993 1.734483 0
M  V30 44 H -3.535945 -2.427085 1.948060 0
M  V30 45 H -3.183879 -5.063600 0.497724 0
M  V30 46 H -4.174148 -4.704002 2.025626 0
M  V30 47 H -5.518508 -3.157981 0.855685 0
M  V30 48 H -5.385025 -4.517221 -0.393970 0
M  V30 49 H -3.855433 -3.370172 -1.644669 0
M  V30 50 H -4.660331 -1.863621 -0.916498 0
M  V30 END ATOM
M  V30 BEGIN BOND
M  V30 1 2 1 2
M  V30 2 1 2 3
M  V30 3 1 3 4
M  V30 4 2 4 5
M  V30 5 1 5 6
M  V30 6 1 6 7
M  V30 7 2 6 8
M  V30 8 1 8 9
M  V30 9 2 9 10
M  V30 10 1 10 11
M  V30 11 2 11 12
M  V30 12 1 12 13
M  V30 13 1 13 14
M  V30 14 2 14 15
M  V30 15 1 15 16
M  V30 16 2 16 17
M  V30 17 1 17 18
M  V30 18 2 18 19
M  V30 19 1 19 20
M  V30 20 2 20 21
M  V30 21 1 21 22
M  V30 22 1 22 23
M  V30 23 1 23 24
M  V30 24 1 24 25
M  V30 25 1 25 26
M  V30 26 1 26 27
M  V30 27 1 27 28
M  V30 28 1 28 29
M  V30 29 1 11 2
M  V30 30 1 20 12
M  V30 31 1 29 25
M  V30 32 1 10 4
M  V30 33 1 19 14
M  V30 34 1 3 30
M  V30 35 1 5 31
M  V30 36 1 8 32
M  V30 37 1 9 33
M  V30 38 1 13 34
M  V30 39 1 15 35
M  V30 40 1 16 36
M  V30 41 1 17 37
M  V30 42 1 18 38
M  V30 43 1 23 39
M  V30 44 1 23 40
M  V30 45 1 24 41
M  V30 46 1 24 42
M  V30 47 1 26 43
M  V30 48 1 26 44
M  V30 49 1 27 45
M  V30 50 1 27 46
M  V30 51 1 28 47
M  V30 52 1 28 48
M  V30 53 1 29 49
M  V30 54 1 29 50
M  V30 END BOND
M  V30 END CTAB
M  END
>  <Dataset>  (737) 
ChEMBL_Kinases

>  <Ligand_Instance>  (737) 
nan

>  <PDB_ID>  (737) 
nan

>  <Standardized_SMILES>  (737) 
O=C1Nc2cc(Br)ccc2/C1=C1/Nc2ccccc2/C1=N\OCCN1CCCC1

>  <Name>  (737) 
nan

>  <Pocket>  (737) 
nan

>  <ATP_Site>  (737) 
nan

>  <Peripheral>  (737) 
nan

>  <Num_H_Atoms_ProtBoundConf>  (737) 
nan

>  <Num_Resolved_Atoms>  (737) 
nan

>  <Num_Not_Resolved_Atoms>  (737) 
nan

$$$$
CHEMBL494867
     RDKit          3D

  0  0  0  0  0  0  0  0  0  0999 V3000
M  V30 BEGIN CTAB
M  V30 COUNTS 54 57 0 0 0
M  V30 BEGIN ATOM
M  V30 1 C -1.150739 -3.241117 -1.117179 0
M  V30 2 N -0.186547 -3.835173 -0.237097 0
M  V30 3 C 0.956611 -3.054271 0.047452 0
M  V30 4 C 0.794672 -1.832065 0.857430 0
M  V30 5 O -0.059124 -0.842330 0.349480 0
M  V30 6 N -0.083752 0.450095 0.724965 0
M  V30 7 C -0.943733 1.039653 1.334547 0
M  V30 8 C -1.075610 2.378253 1.778412 0
M  V30 9 C -0.280039 3.404938 1.661957 0
M  V30 10 C -0.497597 4.757615 2.153015 0
M  V30 11 O -1.470794 5.222202 2.776718 0
M  V30 12 N 0.625285 5.555037 1.808819 0
M  V30 13 C 1.503420 4.661107 1.112468 0
M  V30 14 C 2.745431 5.048927 0.593342 0
M  V30 15 C 3.520047 4.116361 -0.061009 0
M  V30 16 Br 5.193554 4.626998 -0.762698 0
M  V30 17 C 3.006196 2.815098 -0.167252 0
M  V30 18 C 1.775404 2.529524 0.375065 0
M  V30 19 C 0.979166 3.393283 1.020795 0
M  V30 20 N -2.328063 2.457536 2.444427 0
M  V30 21 C -3.003135 1.206791 2.440208 0
M  V30 22 C -4.224295 0.839396 2.965903 0
M  V30 23 C -4.610531 -0.470312 2.798191 0
M  V30 24 C -3.827238 -1.390724 2.137544 0
M  V30 25 C -2.626912 -0.941665 1.645374 0
M  V30 26 C -2.140586 0.342605 1.754255 0
M  V30 27 C 0.074406 -5.218507 -0.500183 0
M  V30 28 C 0.780508 -5.502186 -1.781450 0
M  V30 29 O 2.033632 -4.892014 -1.848961 0
M  V30 30 C 1.022571 -6.986969 -1.952719 0
M  V30 31 O 1.839249 -7.543664 -1.000237 0
M  V30 32 H -2.152223 -3.333570 -0.620526 0
M  V30 33 H -1.205747 -3.864727 -2.037440 0
M  V30 34 H -0.945738 -2.213212 -1.423749 0
M  V30 35 H 1.501159 -2.838359 -0.895124 0
M  V30 36 H 1.666559 -3.720091 0.616246 0
M  V30 37 H 1.781236 -1.411251 1.071378 0
M  V30 38 H 0.363583 -2.118597 1.853221 0
M  V30 39 H 0.747445 6.576849 2.034750 0
M  V30 40 H 3.135270 6.051151 0.677985 0
M  V30 41 H 3.701986 2.155850 -0.704722 0
M  V30 42 H 1.599986 1.523852 0.181838 0
M  V30 43 H -2.732771 3.302268 2.889291 0
M  V30 44 H -4.847040 1.554437 3.486594 0
M  V30 45 H -5.567395 -0.753758 3.211400 0
M  V30 46 H -4.190887 -2.397417 2.043062 0
M  V30 47 H -2.064685 -1.711867 1.140658 0
M  V30 48 H 0.730457 -5.578371 0.325326 0
M  V30 49 H -0.848807 -5.826037 -0.418855 0
M  V30 50 H 0.234728 -5.139694 -2.677985 0
M  V30 51 H 2.320318 -4.919054 -2.799698 0
M  V30 52 H 0.060475 -7.555612 -1.929245 0
M  V30 53 H 1.485778 -7.168477 -2.961593 0
M  V30 54 H 2.775812 -7.232190 -1.005690 0
M  V30 END ATOM
M  V30 BEGIN BOND
M  V30 1 1 1 2
M  V30 2 1 2 3
M  V30 3 1 3 4
M  V30 4 1 4 5
M  V30 5 1 5 6
M  V30 6 2 6 7
M  V30 7 1 7 8
M  V30 8 2 8 9
M  V30 9 1 9 10
M  V30 10 2 10 11
M  V30 11 1 10 12
M  V30 12 1 12 13
M  V30 13 2 13 14
M  V30 14 1 14 15
M  V30 15 1 15 16
M  V30 16 2 15 17
M  V30 17 1 17 18
M  V30 18 2 18 19
M  V30 19 1 8 20
M  V30 20 1 20 21
M  V30 21 2 21 22
M  V30 22 1 22 23
M  V30 23 2 23 24
M  V30 24 1 24 25
M  V30 25 2 25 26
M  V30 26 1 2 27
M  V30 27 1 27 28
M  V30 28 1 28 29
M  V30 29 1 28 30
M  V30 30 1 30 31
M  V30 31 1 26 7
M  V30 32 1 19 9
M  V30 33 1 26 21
M  V30 34 1 19 13
M  V30 35 1 1 32
M  V30 36 1 1 33
M  V30 37 1 1 34
M  V30 38 1 3 35
M  V30 39 1 3 36
M  V30 40 1 4 37
M  V30 41 1 4 38
M  V30 42 1 12 39
M  V30 43 1 14 40
M  V30 44 1 17 41
M  V30 45 1 18 42
M  V30 46 1 20 43
M  V30 47 1 22 44
M  V30 48 1 23 45
M  V30 49 1 24 46
M  V30 50 1 25 47
M  V30 51 1 27 48
M  V30 52 1 27 49
M  V30 53 1 28 50
M  V30 54 1 29 51
M  V30 55 1 30 52
M  V30 56 1 30 53
M  V30 57 1 31 54
M  V30 END BOND
M  V30 END CTAB
M  END
>  <Dataset>  (738) 
ChEMBL_Kinases

>  <Ligand_Instance>  (738) 
nan

>  <PDB_ID>  (738) 
nan

>  <Standardized_SMILES>  (738) 
CN(CCO/N=C1C(=C2/C(=O)Nc3cc(Br)ccc32)/Nc2ccccc2/1)CC(O)CO

>  <Name>  (738) 
nan

>  <Pocket>  (738) 
nan

>  <ATP_Site>  (738) 
nan

>  <Peripheral>  (738) 
nan

>  <Num_H_Atoms_ProtBoundConf>  (738) 
nan

>  <Num_Resolved_Atoms>  (738) 
nan

>  <Num_Not_Resolved_Atoms>  (738) 
nan

$$$$
CHEMBL3817849
     RDKit          3D

  0  0  0  0  0  0  0  0  0  0999 V3000
M  V30 BEGIN CTAB
M  V30 COUNTS 66 71 0 0 0
M  V30 BEGIN ATOM
M  V30 1 O 6.447844 -0.270523 2.110374 0
M  V30 2 C 5.541361 0.336949 2.736101 0
M  V30 3 N 6.163679 1.287791 3.597398 0
M  V30 4 C 7.585863 1.505497 3.717841 0
M  V30 5 C 8.068519 1.503436 5.175924 0
M  V30 6 C 8.147930 2.722738 4.295228 0
M  V30 7 C 4.092395 0.201700 2.691984 0
M  V30 8 C 3.221213 0.975426 3.427578 0
M  V30 9 C 1.871076 0.737870 3.288801 0
M  V30 10 C 1.307768 -0.234451 2.453662 0
M  V30 11 C -0.153107 -0.307041 2.465088 0
M  V30 12 C -0.892614 -0.256463 3.624072 0
M  V30 13 N -2.167584 -0.348538 3.203229 0
M  V30 14 N -2.180987 -0.448073 1.870976 0
M  V30 15 C -3.257322 -0.562355 1.042426 0
M  V30 16 N -4.594864 -0.593726 1.441762 0
M  V30 17 C -5.898576 -0.708068 0.862622 0
M  V30 18 C -6.154031 -1.974288 0.107246 0
M  V30 19 N -5.323398 -2.196878 -1.031353 0
M  V30 20 C -5.617446 -1.270559 -2.120389 0
M  V30 21 C -4.929408 -1.823898 -3.342880 0
M  V30 22 O -3.854483 -2.647580 -2.976668 0
M  V30 23 C -4.418375 -3.853027 -2.523322 0
M  V30 24 C -5.495017 -3.554435 -1.492300 0
M  V30 25 N -3.008867 -0.648636 -0.262619 0
M  V30 26 C -1.800032 -0.634127 -0.841448 0
M  V30 27 O -1.530455 -0.723539 -2.199265 0
M  V30 28 C -0.224236 -0.696749 -2.666696 0
M  V30 29 C 0.466425 0.463564 -3.019941 0
M  V30 30 C 1.769341 0.428732 -3.481037 0
M  V30 31 C 2.398438 -0.790765 -3.592718 0
M  V30 32 C 1.798774 -2.004602 -3.266758 0
M  V30 33 C 0.504257 -1.855457 -2.819218 0
M  V30 34 N -0.768284 -0.519150 0.023493 0
M  V30 35 C -0.958100 -0.428246 1.350670 0
M  V30 36 C 2.208932 -0.995105 1.728044 0
M  V30 37 C 3.562183 -0.764779 1.860178 0
M  V30 38 H 5.605074 1.928246 4.236840 0
M  V30 39 H 8.225343 0.881574 3.066933 0
M  V30 40 H 9.018298 0.998059 5.423133 0
M  V30 41 H 7.320140 1.565409 5.980989 0
M  V30 42 H 7.537757 3.607312 4.562536 0
M  V30 43 H 9.176400 3.011774 3.974674 0
M  V30 44 H 3.599735 1.734221 4.081386 0
M  V30 45 H 1.228770 1.382868 3.897829 0
M  V30 46 H -0.544491 -0.164370 4.644312 0
M  V30 47 H -4.658365 -0.505335 2.505052 0
M  V30 48 H -6.047810 0.170428 0.165420 0
M  V30 49 H -6.719037 -0.605204 1.597469 0
M  V30 50 H -6.024686 -2.850394 0.781666 0
M  V30 51 H -7.222668 -2.033585 -0.218456 0
M  V30 52 H -6.722293 -1.291736 -2.230760 0
M  V30 53 H -5.212770 -0.275490 -1.912546 0
M  V30 54 H -5.663590 -2.508114 -3.837020 0
M  V30 55 H -4.594846 -1.026966 -4.034219 0
M  V30 56 H -4.914627 -4.336703 -3.387147 0
M  V30 57 H -3.644647 -4.499309 -2.065054 0
M  V30 58 H -6.523260 -3.615348 -1.948074 0
M  V30 59 H -5.439397 -4.257608 -0.661072 0
M  V30 60 H -0.054065 1.405314 -2.921357 0
M  V30 61 H 2.264373 1.353006 -3.742285 0
M  V30 62 H 3.435652 -0.828055 -3.958201 0
M  V30 63 H 2.258680 -2.969000 -3.341952 0
M  V30 64 H -0.025253 -2.776192 -2.546043 0
M  V30 65 H 1.739130 -1.729541 1.099086 0
M  V30 66 H 4.230421 -1.392211 1.266009 0
M  V30 END ATOM
M  V30 BEGIN BOND
M  V30 1 2 1 2
M  V30 2 1 2 3
M  V30 3 1 3 4
M  V30 4 1 4 5
M  V30 5 1 5 6
M  V30 6 1 2 7
M  V30 7 2 7 8
M  V30 8 1 8 9
M  V30 9 2 9 10
M  V30 10 1 10 11
M  V30 11 1 11 12
M  V30 12 2 12 13
M  V30 13 1 13 14
M  V30 14 1 14 15
M  V30 15 1 15 16
M  V30 16 1 16 17
M  V30 17 1 17 18
M  V30 18 1 18 19
M  V30 19 1 19 20
M  V30 20 1 20 21
M  V30 21 1 21 22
M  V30 22 1 22 23
M  V30 23 1 23 24
M  V30 24 2 15 25
M  V30 25 1 25 26
M  V30 26 1 26 27
M  V30 27 1 27 28
M  V30 28 2 28 29
M  V30 29 1 29 30
M  V30 30 2 30 31
M  V30 31 1 31 32
M  V30 32 2 32 33
M  V30 33 2 26 34
M  V30 34 1 34 35
M  V30 35 1 10 36
M  V30 36 2 36 37
M  V30 37 1 6 4
M  V30 38 1 37 7
M  V30 39 2 35 11
M  V30 40 1 35 14
M  V30 41 1 24 19
M  V30 42 1 33 28
M  V30 43 1 3 38
M  V30 44 1 4 39
M  V30 45 1 5 40
M  V30 46 1 5 41
M  V30 47 1 6 42
M  V30 48 1 6 43
M  V30 49 1 8 44
M  V30 50 1 9 45
M  V30 51 1 12 46
M  V30 52 1 16 47
M  V30 53 1 17 48
M  V30 54 1 17 49
M  V30 55 1 18 50
M  V30 56 1 18 51
M  V30 57 1 20 52
M  V30 58 1 20 53
M  V30 59 1 21 54
M  V30 60 1 21 55
M  V30 61 1 23 56
M  V30 62 1 23 57
M  V30 63 1 24 58
M  V30 64 1 24 59
M  V30 65 1 29 60
M  V30 66 1 30 61
M  V30 67 1 31 62
M  V30 68 1 32 63
M  V30 69 1 33 64
M  V30 70 1 36 65
M  V30 71 1 37 66
M  V30 END BOND
M  V30 END CTAB
M  END
>  <Dataset>  (739) 
ChEMBL_Kinases

>  <Ligand_Instance>  (739) 
nan

>  <PDB_ID>  (739) 
nan

>  <Standardized_SMILES>  (739) 
O=C(NC1CC1)c1ccc(-c2cnn3c(NCCN4CCOCC4)nc(Oc4ccccc4)nc23)cc1

>  <Name>  (739) 
nan

>  <Pocket>  (739) 
nan

>  <ATP_Site>  (739) 
nan

>  <Peripheral>  (739) 
nan

>  <Num_H_Atoms_ProtBoundConf>  (739) 
nan

>  <Num_Resolved_Atoms>  (739) 
nan

>  <Num_Not_Resolved_Atoms>  (739) 
nan

$$$$
CHEMBL383247
     RDKit          3D

  0  0  0  0  0  0  0  0  0  0999 V3000
M  V30 BEGIN CTAB
M  V30 COUNTS 28 30 0 0 0
M  V30 BEGIN ATOM
M  V30 1 C -3.107394 -2.418661 1.015046 0
M  V30 2 C -1.758769 -2.036105 1.545963 0
M  V30 3 N -1.200932 -2.392258 2.714843 0
M  V30 4 N 0.004044 -1.860708 2.839046 0
M  V30 5 C 0.908193 -2.020294 3.962781 0
M  V30 6 C 0.259346 -1.132822 1.729928 0
M  V30 7 C -0.852778 -1.228754 0.886978 0
M  V30 8 C -0.819371 -0.558497 -0.319323 0
M  V30 9 O -1.810335 -0.637875 -1.081698 0
M  V30 10 C 0.286139 0.185267 -0.678001 0
M  V30 11 C 0.344096 0.869307 -1.887273 0
M  V30 12 C 1.497177 1.569838 -2.122577 0
M  V30 13 Br 1.570934 2.512647 -3.794938 0
M  V30 14 C 2.601378 1.678900 -1.311121 0
M  V30 15 C 2.490097 0.971871 -0.108326 0
M  V30 16 C 1.357775 0.246509 0.191839 0
M  V30 17 N 1.355578 -0.400652 1.384146 0
M  V30 18 O 2.436525 -0.326912 2.239455 0
M  V30 19 H -3.010936 -3.090104 0.155425 0
M  V30 20 H -3.668090 -1.503018 0.738671 0
M  V30 21 H -3.664102 -2.877399 1.859745 0
M  V30 22 H 0.455883 -2.715722 4.700972 0
M  V30 23 H 1.017428 -1.052369 4.512319 0
M  V30 24 H 1.870123 -2.462466 3.672887 0
M  V30 25 H -0.475177 0.828327 -2.563047 0
M  V30 26 H 3.460897 2.264745 -1.604009 0
M  V30 27 H 3.351055 1.034148 0.566381 0
M  V30 28 H 3.306819 -0.699926 1.856497 0
M  V30 END ATOM
M  V30 BEGIN BOND
M  V30 1 1 1 2
M  V30 2 2 2 3
M  V30 3 1 3 4
M  V30 4 1 4 5
M  V30 5 1 4 6
M  V30 6 2 6 7
M  V30 7 1 7 8
M  V30 8 2 8 9
M  V30 9 1 8 10
M  V30 10 2 10 11
M  V30 11 1 11 12
M  V30 12 1 12 13
M  V30 13 2 12 14
M  V30 14 1 14 15
M  V30 15 2 15 16
M  V30 16 1 16 17
M  V30 17 1 17 18
M  V30 18 1 7 2
M  V30 19 1 16 10
M  V30 20 1 17 6
M  V30 21 1 1 19
M  V30 22 1 1 20
M  V30 23 1 1 21
M  V30 24 1 5 22
M  V30 25 1 5 23
M  V30 26 1 5 24
M  V30 27 1 11 25
M  V30 28 1 14 26
M  V30 29 1 15 27
M  V30 30 1 18 28
M  V30 END BOND
M  V30 END CTAB
M  END
>  <Dataset>  (740) 
ChEMBL_Kinases

>  <Ligand_Instance>  (740) 
nan

>  <PDB_ID>  (740) 
nan

>  <Standardized_SMILES>  (740) 
Cc1nn(C)c2c1c(=O)c1cc(Br)ccc1n2O

>  <Name>  (740) 
nan

>  <Pocket>  (740) 
nan

>  <ATP_Site>  (740) 
nan

>  <Peripheral>  (740) 
nan

>  <Num_H_Atoms_ProtBoundConf>  (740) 
nan

>  <Num_Resolved_Atoms>  (740) 
nan

>  <Num_Not_Resolved_Atoms>  (740) 
nan

$$$$
CHEMBL383223
     RDKit          3D

  0  0  0  0  0  0  0  0  0  0999 V3000
M  V30 BEGIN CTAB
M  V30 COUNTS 48 51 0 0 0
M  V30 BEGIN ATOM
M  V30 1 N 0.056609 -3.959381 0.464495 0
M  V30 2 C -0.281430 -3.034202 -0.580885 0 CFG=2
M  V30 3 C 0.528837 -1.754169 -0.490836 0
M  V30 4 O 1.915318 -2.020122 -0.592329 0
M  V30 5 C 2.906196 -1.055688 -0.541700 0
M  V30 6 C 4.221436 -1.449248 -0.651197 0
M  V30 7 N 5.160989 -0.490955 -0.597971 0
M  V30 8 C 4.872141 0.808547 -0.445115 0
M  V30 9 C 3.586122 1.288050 -0.327705 0
M  V30 10 N 3.287805 2.664480 -0.181804 0
M  V30 11 C 2.171974 3.364794 0.310422 0
M  V30 12 C 1.212040 2.875962 1.168872 0
M  V30 13 C 0.118443 3.564140 1.626578 0
M  V30 14 N -0.018830 4.842815 1.186603 0
M  V30 15 C 0.883221 5.379309 0.348572 0
M  V30 16 C 1.954839 4.668757 -0.085220 0
M  V30 17 C 2.628440 0.298205 -0.383916 0
M  V30 18 C -1.736331 -2.793784 -0.714652 0
M  V30 19 C -2.436683 -2.245524 0.436637 0
M  V30 20 C -2.790514 -0.915850 0.542637 0
M  V30 21 N -3.422610 -0.653092 1.713998 0
M  V30 22 C -3.498810 -1.816350 2.409759 0
M  V30 23 C -4.030132 -2.120458 3.633372 0
M  V30 24 C -3.931282 -3.435440 4.036274 0
M  V30 25 C -3.345237 -4.448123 3.305805 0
M  V30 26 C -2.818880 -4.092213 2.068585 0
M  V30 27 C -2.890452 -2.790901 1.617440 0
M  V30 28 H 0.831635 -4.594160 0.192932 0
M  V30 29 H 0.147478 -3.554999 1.410285 0
M  V30 30 H 0.045645 -3.508528 -1.543868 0
M  V30 31 H 0.266847 -1.033159 -1.263519 0
M  V30 32 H 0.357012 -1.370772 0.550555 0
M  V30 33 H 4.477757 -2.491217 -0.774497 0
M  V30 34 H 5.714439 1.502661 -0.414871 0
M  V30 35 H 4.093624 3.273106 -0.522354 0
M  V30 36 H 1.294654 1.880537 1.542554 0
M  V30 37 H -0.607553 3.129174 2.302378 0
M  V30 38 H 0.682669 6.385848 0.065563 0
M  V30 39 H 2.608195 5.207415 -0.754876 0
M  V30 40 H 1.584137 0.510115 -0.320885 0
M  V30 41 H -2.215796 -3.764841 -0.964386 0
M  V30 42 H -1.889230 -2.166197 -1.628060 0
M  V30 43 H -2.630877 -0.118069 -0.153815 0
M  V30 44 H -3.798959 0.251998 2.063315 0
M  V30 45 H -4.497363 -1.353763 4.233531 0
M  V30 46 H -4.349655 -3.705774 5.015399 0
M  V30 47 H -3.316361 -5.467004 3.715042 0
M  V30 48 H -2.357490 -4.859142 1.467581 0
M  V30 END ATOM
M  V30 BEGIN BOND
M  V30 1 1 1 2
M  V30 2 1 2 3
M  V30 3 1 3 4
M  V30 4 1 4 5
M  V30 5 2 5 6
M  V30 6 1 6 7
M  V30 7 2 7 8
M  V30 8 1 8 9
M  V30 9 1 9 10
M  V30 10 1 10 11
M  V30 11 2 11 12
M  V30 12 1 12 13
M  V30 13 2 13 14
M  V30 14 1 14 15
M  V30 15 2 15 16
M  V30 16 2 9 17
M  V30 17 1 2 18
M  V30 18 1 18 19
M  V30 19 2 19 20
M  V30 20 1 20 21
M  V30 21 1 21 22
M  V30 22 2 22 23
M  V30 23 1 23 24
M  V30 24 2 24 25
M  V30 25 1 25 26
M  V30 26 2 26 27
M  V30 27 1 17 5
M  V30 28 1 27 19
M  V30 29 1 16 11
M  V30 30 1 27 22
M  V30 31 1 1 28
M  V30 32 1 1 29
M  V30 33 1 2 30 CFG=3
M  V30 34 1 3 31
M  V30 35 1 3 32
M  V30 36 1 6 33
M  V30 37 1 8 34
M  V30 38 1 10 35
M  V30 39 1 12 36
M  V30 40 1 13 37
M  V30 41 1 15 38
M  V30 42 1 16 39
M  V30 43 1 17 40
M  V30 44 1 18 41
M  V30 45 1 18 42
M  V30 46 1 20 43
M  V30 47 1 21 44
M  V30 48 1 23 45
M  V30 49 1 24 46
M  V30 50 1 25 47
M  V30 51 1 26 48
M  V30 END BOND
M  V30 END CTAB
M  END
>  <Dataset>  (741) 
ChEMBL_Kinases

>  <Ligand_Instance>  (741) 
nan

>  <PDB_ID>  (741) 
nan

>  <Standardized_SMILES>  (741) 
N[C@H](COc1cncc(Nc2ccncc2)c1)Cc1c[nH]c2ccccc12

>  <Name>  (741) 
nan

>  <Pocket>  (741) 
nan

>  <ATP_Site>  (741) 
nan

>  <Peripheral>  (741) 
nan

>  <Num_H_Atoms_ProtBoundConf>  (741) 
nan

>  <Num_Resolved_Atoms>  (741) 
nan

>  <Num_Not_Resolved_Atoms>  (741) 
nan

$$$$
CHEMBL383219
     RDKit          3D

  0  0  0  0  0  0  0  0  0  0999 V3000
M  V30 BEGIN CTAB
M  V30 COUNTS 54 58 0 0 0
M  V30 BEGIN ATOM
M  V30 1 O 2.190075 -0.459058 4.116651 0
M  V30 2 S 2.034944 -0.209941 2.655728 0
M  V30 3 O 1.437367 -1.460011 2.023936 0
M  V30 4 C 3.573447 0.056799 1.870255 0
M  V30 5 C 4.650169 0.724226 2.443696 0
M  V30 6 C 5.834942 0.888158 1.742716 0
M  V30 7 C 5.982775 0.394186 0.454079 0
M  V30 8 F 7.139682 0.543761 -0.254288 0
M  V30 9 C 4.939031 -0.285022 -0.177298 0
M  V30 10 C 3.785175 -0.415579 0.573390 0
M  V30 11 N 0.923535 1.041961 2.373290 0
M  V30 12 C 1.286173 2.332591 2.835767 0
M  V30 13 C 1.100638 3.301596 1.688478 0
M  V30 14 C 0.093697 2.581927 0.811628 0
M  V30 15 C 0.534473 1.152087 0.984245 0
M  V30 16 C -0.512295 0.156067 0.627772 0
M  V30 17 C -1.627731 -0.124253 1.388831 0
M  V30 18 C -2.315345 -1.096681 0.690264 0
M  V30 19 C -3.564229 -1.794606 0.982221 0
M  V30 20 C -4.841053 -1.291161 1.142432 0
M  V30 21 C -5.873090 -2.164777 1.417515 0
M  V30 22 N -5.651506 -3.484363 1.529836 0
M  V30 23 C -4.440067 -4.012424 1.383590 0
M  V30 24 C -3.380212 -3.173547 1.107695 0
M  V30 25 C -1.606046 -1.387353 -0.478793 0
M  V30 26 C -1.842102 -2.318914 -1.591666 0
M  V30 27 C -0.837311 -3.269484 -1.726543 0
M  V30 28 C -0.838198 -4.249329 -2.698131 0
M  V30 29 C -1.922856 -4.246598 -3.566583 0
M  V30 30 F -1.977062 -5.188518 -4.542939 0
M  V30 31 C -2.934242 -3.313101 -3.453988 0
M  V30 32 C -2.907546 -2.343306 -2.471638 0
M  V30 33 N -0.491754 -0.598991 -0.496687 0
M  V30 34 H 4.519660 1.097479 3.434863 0
M  V30 35 H 6.664875 1.414501 2.212745 0
M  V30 36 H 4.983008 -0.690684 -1.165388 0
M  V30 37 H 2.962144 -0.937630 0.107535 0
M  V30 38 H 0.526062 2.624362 3.618175 0
M  V30 39 H 2.316529 2.392705 3.256335 0
M  V30 40 H 2.100140 3.411255 1.207277 0
M  V30 41 H 0.717297 4.283867 2.028975 0
M  V30 42 H 0.157501 2.955422 -0.217688 0
M  V30 43 H -0.904254 2.761624 1.269910 0
M  V30 44 H 1.457910 1.009842 0.392778 0
M  V30 45 H -1.962026 0.280287 2.329499 0
M  V30 46 H -4.878892 -0.223372 1.027695 0
M  V30 47 H -6.846226 -1.703158 1.530606 0
M  V30 48 H -4.301108 -5.090877 1.482711 0
M  V30 49 H -2.413643 -3.685370 1.001326 0
M  V30 50 H 0.043747 -3.321220 -1.070117 0
M  V30 51 H -0.053446 -4.985621 -2.798003 0
M  V30 52 H -3.786249 -3.280301 -4.105861 0
M  V30 53 H -3.632415 -1.578203 -2.295885 0
M  V30 54 H 0.276868 -0.544706 -1.224247 0
M  V30 END ATOM
M  V30 BEGIN BOND
M  V30 1 2 1 2
M  V30 2 2 2 3
M  V30 3 1 2 4
M  V30 4 2 4 5
M  V30 5 1 5 6
M  V30 6 2 6 7
M  V30 7 1 7 8
M  V30 8 1 7 9
M  V30 9 2 9 10
M  V30 10 1 2 11
M  V30 11 1 11 12
M  V30 12 1 12 13
M  V30 13 1 13 14
M  V30 14 1 14 15
M  V30 15 1 15 16
M  V30 16 2 16 17
M  V30 17 1 17 18
M  V30 18 1 18 19
M  V30 19 2 19 20
M  V30 20 1 20 21
M  V30 21 2 21 22
M  V30 22 1 22 23
M  V30 23 2 23 24
M  V30 24 2 18 25
M  V30 25 1 25 26
M  V30 26 2 26 27
M  V30 27 1 27 28
M  V30 28 2 28 29
M  V30 29 1 29 30
M  V30 30 1 29 31
M  V30 31 2 31 32
M  V30 32 1 25 33
M  V30 33 1 10 4
M  V30 34 1 15 11
M  V30 35 1 33 16
M  V30 36 1 24 19
M  V30 37 1 32 26
M  V30 38 1 5 34
M  V30 39 1 6 35
M  V30 40 1 9 36
M  V30 41 1 10 37
M  V30 42 1 12 38
M  V30 43 1 12 39
M  V30 44 1 13 40
M  V30 45 1 13 41
M  V30 46 1 14 42
M  V30 47 1 14 43
M  V30 48 1 15 44
M  V30 49 1 17 45
M  V30 50 1 20 46
M  V30 51 1 21 47
M  V30 52 1 23 48
M  V30 53 1 24 49
M  V30 54 1 27 50
M  V30 55 1 28 51
M  V30 56 1 31 52
M  V30 57 1 32 53
M  V30 58 1 33 54
M  V30 END BOND
M  V30 END CTAB
M  END
>  <Dataset>  (742) 
ChEMBL_Kinases

>  <Ligand_Instance>  (742) 
nan

>  <PDB_ID>  (742) 
nan

>  <Standardized_SMILES>  (742) 
O=S(=O)(c1ccc(F)cc1)N1CCCC1c1cc(-c2ccncc2)c(-c2ccc(F)cc2)[nH]1

>  <Name>  (742) 
nan

>  <Pocket>  (742) 
nan

>  <ATP_Site>  (742) 
nan

>  <Peripheral>  (742) 
nan

>  <Num_H_Atoms_ProtBoundConf>  (742) 
nan

>  <Num_Resolved_Atoms>  (742) 
nan

>  <Num_Not_Resolved_Atoms>  (742) 
nan

$$$$
CHEMBL494916
     RDKit          3D

  0  0  0  0  0  0  0  0  0  0999 V3000
M  V30 BEGIN CTAB
M  V30 COUNTS 49 53 0 0 0
M  V30 BEGIN ATOM
M  V30 1 C -0.079093 -0.204045 -3.185146 0
M  V30 2 C 1.379376 -0.167926 -2.931999 0
M  V30 3 C 2.246199 0.191942 -3.956262 0
M  V30 4 C 3.590895 0.203152 -3.646260 0
M  V30 5 C 4.084673 -0.119557 -2.397955 0
M  V30 6 C 5.367223 -0.174361 -1.874944 0
M  V30 7 N 6.587102 0.112212 -2.553234 0
M  V30 8 N 5.193140 -0.559865 -0.581950 0
M  V30 9 O 3.927146 -0.725930 -0.334000 0
M  V30 10 C 3.190374 -0.475433 -1.394682 0
M  V30 11 C 1.847632 -0.495007 -1.675148 0
M  V30 12 C 0.956045 -0.877378 -0.579425 0
M  V30 13 C 0.460755 0.128301 0.260706 0
M  V30 14 C -0.379805 -0.239383 1.292345 0
M  V30 15 C -0.676760 -1.578062 1.427164 0
M  V30 16 C -1.520687 -1.869901 2.477344 0
M  V30 17 N -2.116995 -0.968118 3.431782 0
M  V30 18 C -1.436323 -0.099014 4.355572 0
M  V30 19 C -2.154464 1.228983 4.374176 0
M  V30 20 O -2.987560 1.401380 3.270101 0
M  V30 21 C -4.009284 0.470193 3.190472 0
M  V30 22 C -3.566644 -0.949654 3.452487 0 CFG=2
M  V30 23 C -3.968779 -1.321772 4.884284 0
M  V30 24 N -1.863728 -3.158466 2.681680 0
M  V30 25 N -1.422254 -4.153491 1.914045 0
M  V30 26 C -0.593243 -3.901091 0.875965 0
M  V30 27 C -0.222938 -2.611557 0.636076 0
M  V30 28 C 0.625293 -2.201338 -0.397544 0
M  V30 29 H -0.661700 0.411650 -2.480312 0
M  V30 30 H -0.386163 -1.265224 -3.204793 0
M  V30 31 H -0.299063 0.207953 -4.192425 0
M  V30 32 H 1.903305 0.454192 -4.955509 0
M  V30 33 H 4.300350 0.484715 -4.439465 0
M  V30 34 H 7.461812 -0.306339 -2.172119 0
M  V30 35 H 6.542700 0.726205 -3.396617 0
M  V30 36 H 0.760301 1.126704 0.057858 0
M  V30 37 H -0.761995 0.513310 1.935726 0
M  V30 38 H -1.613554 -0.543376 5.379640 0
M  V30 39 H -0.355546 -0.040053 4.229455 0
M  V30 40 H -2.700624 1.430160 5.319479 0
M  V30 41 H -1.400316 2.065732 4.289858 0
M  V30 42 H -4.755917 0.782529 3.976470 0
M  V30 43 H -4.468720 0.588625 2.194309 0
M  V30 44 H -4.027841 -1.667518 2.741933 0
M  V30 45 H -3.160790 -1.871473 5.415015 0
M  V30 46 H -4.206274 -0.429657 5.493490 0
M  V30 47 H -4.836570 -2.038970 4.857343 0
M  V30 48 H -0.214036 -4.656921 0.235473 0
M  V30 49 H 1.016247 -2.964508 -1.054858 0
M  V30 END ATOM
M  V30 BEGIN BOND
M  V30 1 1 1 2
M  V30 2 2 2 3
M  V30 3 1 3 4
M  V30 4 2 4 5
M  V30 5 1 5 6
M  V30 6 1 6 7
M  V30 7 2 6 8
M  V30 8 1 8 9
M  V30 9 1 9 10
M  V30 10 2 10 11
M  V30 11 1 11 12
M  V30 12 2 12 13
M  V30 13 1 13 14
M  V30 14 2 14 15
M  V30 15 1 15 16
M  V30 16 1 16 17
M  V30 17 1 17 18
M  V30 18 1 18 19
M  V30 19 1 19 20
M  V30 20 1 20 21
M  V30 21 1 21 22
M  V30 22 1 22 23
M  V30 23 2 16 24
M  V30 24 1 24 25
M  V30 25 2 25 26
M  V30 26 1 26 27
M  V30 27 2 27 28
M  V30 28 1 11 2
M  V30 29 1 28 12
M  V30 30 1 10 5
M  V30 31 1 27 15
M  V30 32 1 22 17
M  V30 33 1 1 29
M  V30 34 1 1 30
M  V30 35 1 1 31
M  V30 36 1 3 32
M  V30 37 1 4 33
M  V30 38 1 7 34
M  V30 39 1 7 35
M  V30 40 1 13 36
M  V30 41 1 14 37
M  V30 42 1 18 38
M  V30 43 1 18 39
M  V30 44 1 19 40
M  V30 45 1 19 41
M  V30 46 1 21 42
M  V30 47 1 21 43
M  V30 48 1 22 44 CFG=3
M  V30 49 1 23 45
M  V30 50 1 23 46
M  V30 51 1 23 47
M  V30 52 1 26 48
M  V30 53 1 28 49
M  V30 END BOND
M  V30 END CTAB
M  END
>  <Dataset>  (743) 
ChEMBL_Kinases

>  <Ligand_Instance>  (743) 
nan

>  <PDB_ID>  (743) 
nan

>  <Standardized_SMILES>  (743) 
Cc1ccc2c(N)noc2c1-c1ccc2c(N3CCOC[C@@H]3C)nncc2c1

>  <Name>  (743) 
nan

>  <Pocket>  (743) 
nan

>  <ATP_Site>  (743) 
nan

>  <Peripheral>  (743) 
nan

>  <Num_H_Atoms_ProtBoundConf>  (743) 
nan

>  <Num_Resolved_Atoms>  (743) 
nan

>  <Num_Not_Resolved_Atoms>  (743) 
nan

$$$$
CHEMBL383024
     RDKit          3D

  0  0  0  0  0  0  0  0  0  0999 V3000
M  V30 BEGIN CTAB
M  V30 COUNTS 37 39 0 0 0
M  V30 BEGIN ATOM
M  V30 1 C 0.308408 -5.049041 1.995662 0
M  V30 2 O 0.700778 -3.764442 1.563862 0
M  V30 3 C 1.976297 -3.307791 1.795190 0
M  V30 4 C 2.889559 -4.107529 2.456133 0
M  V30 5 C 4.173359 -3.631322 2.681677 0
M  V30 6 C 4.570683 -2.382216 2.267146 0
M  V30 7 C 3.639250 -1.598702 1.607177 0
M  V30 8 C 2.350629 -2.036091 1.362937 0
M  V30 9 N 1.361468 -1.269862 0.691008 0
M  V30 10 N 0.801089 -1.697707 -0.447187 0
M  V30 11 C -0.100464 -0.761842 -0.850841 0
M  V30 12 C -0.090126 0.263457 0.064832 0
M  V30 13 C -0.824312 1.513280 0.147525 0
M  V30 14 O -0.539366 2.290856 1.119276 0
M  V30 15 C -1.858694 2.067408 -0.696796 0
M  V30 16 C -1.985459 3.438209 -0.790077 0
M  V30 17 C -2.969915 4.037186 -1.582908 0
M  V30 18 C -3.860144 3.275569 -2.308561 0
M  V30 19 C -3.763337 1.901678 -2.239142 0
M  V30 20 C -2.775814 1.366068 -1.443285 0
M  V30 21 C 0.830341 -0.058268 1.033651 0
M  V30 22 N 1.290017 0.582691 2.222037 0
M  V30 23 H -0.643479 -5.365932 1.484305 0
M  V30 24 H 0.204078 -5.045648 3.110366 0
M  V30 25 H 1.042370 -5.831043 1.730987 0
M  V30 26 H 2.662614 -5.100633 2.815829 0
M  V30 27 H 4.891686 -4.274041 3.207562 0
M  V30 28 H 5.576563 -2.056073 2.464526 0
M  V30 29 H 3.912839 -0.611485 1.265847 0
M  V30 30 H -0.706752 -0.813764 -1.729258 0
M  V30 31 H -1.360806 4.148924 -0.279594 0
M  V30 32 H -3.091261 5.105878 -1.673985 0
M  V30 33 H -4.620251 3.721393 -2.921008 0
M  V30 34 H -4.447248 1.278777 -2.796778 0
M  V30 35 H -2.749443 0.292161 -1.418134 0
M  V30 36 H 1.949140 1.363528 2.442776 0
M  V30 37 H 0.853354 0.159941 3.090215 0
M  V30 END ATOM
M  V30 BEGIN BOND
M  V30 1 1 1 2
M  V30 2 1 2 3
M  V30 3 2 3 4
M  V30 4 1 4 5
M  V30 5 2 5 6
M  V30 6 1 6 7
M  V30 7 2 7 8
M  V30 8 1 8 9
M  V30 9 1 9 10
M  V30 10 2 10 11
M  V30 11 1 11 12
M  V30 12 1 12 13
M  V30 13 2 13 14
M  V30 14 1 13 15
M  V30 15 2 15 16
M  V30 16 1 16 17
M  V30 17 2 17 18
M  V30 18 1 18 19
M  V30 19 2 19 20
M  V30 20 2 12 21
M  V30 21 1 21 22
M  V30 22 1 8 3
M  V30 23 1 21 9
M  V30 24 1 20 15
M  V30 25 1 1 23
M  V30 26 1 1 24
M  V30 27 1 1 25
M  V30 28 1 4 26
M  V30 29 1 5 27
M  V30 30 1 6 28
M  V30 31 1 7 29
M  V30 32 1 11 30
M  V30 33 1 16 31
M  V30 34 1 17 32
M  V30 35 1 18 33
M  V30 36 1 19 34
M  V30 37 1 20 35
M  V30 38 1 22 36
M  V30 39 1 22 37
M  V30 END BOND
M  V30 END CTAB
M  END
>  <Dataset>  (744) 
ChEMBL_Kinases

>  <Ligand_Instance>  (744) 
nan

>  <PDB_ID>  (744) 
nan

>  <Standardized_SMILES>  (744) 
COc1ccccc1-n1ncc(C(=O)c2ccccc2)c1N

>  <Name>  (744) 
nan

>  <Pocket>  (744) 
nan

>  <ATP_Site>  (744) 
nan

>  <Peripheral>  (744) 
nan

>  <Num_H_Atoms_ProtBoundConf>  (744) 
nan

>  <Num_Resolved_Atoms>  (744) 
nan

>  <Num_Not_Resolved_Atoms>  (744) 
nan

$$$$
CHEMBL383018
     RDKit          3D

  0  0  0  0  0  0  0  0  0  0999 V3000
M  V30 BEGIN CTAB
M  V30 COUNTS 45 48 0 0 0
M  V30 BEGIN ATOM
M  V30 1 F -0.174776 -7.097816 0.767785 0
M  V30 2 C -0.038463 -5.732586 0.859253 0
M  V30 3 C 0.248802 -4.967584 -0.251922 0
M  V30 4 C 0.381523 -3.599600 -0.139846 0
M  V30 5 C 0.226787 -2.984570 1.091816 0
M  V30 6 C 0.345417 -1.536585 1.332478 0
M  V30 7 N 1.482187 -0.848104 1.097929 0
M  V30 8 C 1.305683 0.463361 1.407558 0
M  V30 9 C 2.275318 1.584689 1.309267 0
M  V30 10 N 2.283002 2.276308 0.091465 0
M  V30 11 C 2.560440 1.595687 -1.106825 0
M  V30 12 C 1.807523 2.342160 -2.218741 0
M  V30 13 O 2.396445 3.586404 -2.329029 0
M  V30 14 C 2.550327 4.274554 -1.148997 0
M  V30 15 C 1.848512 3.614786 0.031057 0
M  V30 16 C 0.023109 0.573000 1.842952 0
M  V30 17 C -0.612961 -0.673956 1.808154 0
M  V30 18 C -1.967301 -1.099792 2.162753 0
M  V30 19 C -2.739896 -1.629288 1.138411 0
M  V30 20 C -4.046641 -2.089759 1.267139 0
M  V30 21 N -4.559005 -1.989884 2.516880 0
M  V30 22 C -3.867310 -1.489752 3.545902 0
M  V30 23 C -2.570668 -1.031555 3.423983 0
M  V30 24 C -0.062407 -3.730852 2.225553 0
M  V30 25 C -0.190942 -5.099183 2.090279 0
M  V30 26 H 0.371115 -5.450509 -1.223627 0
M  V30 27 H 0.605261 -2.964194 -0.980123 0
M  V30 28 H 2.399338 -1.210267 0.732554 0
M  V30 29 H 2.112556 2.321028 2.128907 0
M  V30 30 H 3.276940 1.147829 1.502255 0
M  V30 31 H 2.308713 0.538118 -1.165101 0
M  V30 32 H 3.644289 1.700480 -1.406331 0
M  V30 33 H 1.888006 1.808321 -3.162386 0
M  V30 34 H 0.756619 2.422145 -1.858918 0
M  V30 35 H 2.235605 5.334719 -1.215007 0
M  V30 36 H 3.653925 4.292462 -0.933073 0
M  V30 37 H 0.773384 3.769735 -0.115070 0
M  V30 38 H 2.163974 4.124188 0.967499 0
M  V30 39 H -0.507539 1.456614 2.185145 0
M  V30 40 H -2.325524 -1.707901 0.137559 0
M  V30 41 H -4.576748 -2.486890 0.419825 0
M  V30 42 H -4.297453 -1.417263 4.548543 0
M  V30 43 H -1.935746 -0.615392 4.184685 0
M  V30 44 H -0.204653 -3.380139 3.227220 0
M  V30 45 H -0.417935 -5.766171 2.930332 0
M  V30 END ATOM
M  V30 BEGIN BOND
M  V30 1 1 1 2
M  V30 2 2 2 3
M  V30 3 1 3 4
M  V30 4 2 4 5
M  V30 5 1 5 6
M  V30 6 1 6 7
M  V30 7 1 7 8
M  V30 8 1 8 9
M  V30 9 1 9 10
M  V30 10 1 10 11
M  V30 11 1 11 12
M  V30 12 1 12 13
M  V30 13 1 13 14
M  V30 14 1 14 15
M  V30 15 2 8 16
M  V30 16 1 16 17
M  V30 17 1 17 18
M  V30 18 2 18 19
M  V30 19 1 19 20
M  V30 20 2 20 21
M  V30 21 1 21 22
M  V30 22 2 22 23
M  V30 23 1 5 24
M  V30 24 2 24 25
M  V30 25 1 25 2
M  V30 26 2 17 6
M  V30 27 1 23 18
M  V30 28 1 15 10
M  V30 29 1 3 26
M  V30 30 1 4 27
M  V30 31 1 7 28
M  V30 32 1 9 29
M  V30 33 1 9 30
M  V30 34 1 11 31
M  V30 35 1 11 32
M  V30 36 1 12 33
M  V30 37 1 12 34
M  V30 38 1 14 35
M  V30 39 1 14 36
M  V30 40 1 15 37
M  V30 41 1 15 38
M  V30 42 1 16 39
M  V30 43 1 19 40
M  V30 44 1 20 41
M  V30 45 1 22 42
M  V30 46 1 23 43
M  V30 47 1 24 44
M  V30 48 1 25 45
M  V30 END BOND
M  V30 END CTAB
M  END
>  <Dataset>  (745) 
ChEMBL_Kinases

>  <Ligand_Instance>  (745) 
nan

>  <PDB_ID>  (745) 
nan

>  <Standardized_SMILES>  (745) 
Fc1ccc(-c2[nH]c(CN3CCOCC3)cc2-c2ccncc2)cc1

>  <Name>  (745) 
nan

>  <Pocket>  (745) 
nan

>  <ATP_Site>  (745) 
nan

>  <Peripheral>  (745) 
nan

>  <Num_H_Atoms_ProtBoundConf>  (745) 
nan

>  <Num_Resolved_Atoms>  (745) 
nan

>  <Num_Not_Resolved_Atoms>  (745) 
nan

$$$$
CHEMBL382993
     RDKit          3D

  0  0  0  0  0  0  0  0  0  0999 V3000
M  V30 BEGIN CTAB
M  V30 COUNTS 27 28 0 0 0
M  V30 BEGIN ATOM
M  V30 1 C -2.037396 -4.841634 0.997057 0
M  V30 2 C -1.361270 -3.510272 0.912851 0
M  V30 3 C -1.845669 -2.555332 1.783703 0
M  V30 4 C -1.255482 -1.289065 1.754423 0
M  V30 5 C -0.228066 -1.087414 0.853035 0
M  V30 6 C 0.393658 0.234648 0.817174 0
M  V30 7 N 1.403525 0.657025 0.026354 0
M  V30 8 C 1.697655 1.938425 0.287953 0
M  V30 9 C 2.725380 2.748853 -0.355235 0
M  V30 10 N 3.529334 2.179497 -1.369362 0
M  V30 11 O 2.918468 3.931613 -0.038482 0
M  V30 12 C 0.824117 2.313732 1.286552 0
M  V30 13 N 0.764725 3.610492 1.894308 0
M  V30 14 O 0.083480 1.283035 1.560384 0
M  V30 15 C 0.251606 -2.048004 -0.015676 0
M  V30 16 C -0.332997 -3.301561 0.013637 0
M  V30 17 H -1.890571 -5.340308 1.970327 0
M  V30 18 H -1.668515 -5.476286 0.168560 0
M  V30 19 H -3.140760 -4.764864 0.869071 0
M  V30 20 H -2.646469 -2.746250 2.471939 0
M  V30 21 H -1.568254 -0.469567 2.402878 0
M  V30 22 H 3.382772 1.253519 -1.820138 0
M  V30 23 H 3.311282 1.240894 -1.769005 0
M  V30 24 H 0.367001 4.330692 1.250972 0
M  V30 25 H 1.138723 3.551047 2.864890 0
M  V30 26 H 1.058568 -1.859020 -0.710660 0
M  V30 27 H -0.029182 -4.128257 -0.629277 0
M  V30 END ATOM
M  V30 BEGIN BOND
M  V30 1 1 1 2
M  V30 2 2 2 3
M  V30 3 1 3 4
M  V30 4 2 4 5
M  V30 5 1 5 6
M  V30 6 2 6 7
M  V30 7 1 7 8
M  V30 8 1 8 9
M  V30 9 1 9 10
M  V30 10 2 9 11
M  V30 11 2 8 12
M  V30 12 1 12 13
M  V30 13 1 12 14
M  V30 14 1 5 15
M  V30 15 2 15 16
M  V30 16 1 16 2
M  V30 17 1 14 6
M  V30 18 1 1 17
M  V30 19 1 1 18
M  V30 20 1 1 19
M  V30 21 1 3 20
M  V30 22 1 4 21
M  V30 23 1 10 22
M  V30 24 1 10 23
M  V30 25 1 13 24
M  V30 26 1 13 25
M  V30 27 1 15 26
M  V30 28 1 16 27
M  V30 END BOND
M  V30 END CTAB
M  END
>  <Dataset>  (746) 
ChEMBL_Kinases

>  <Ligand_Instance>  (746) 
nan

>  <PDB_ID>  (746) 
nan

>  <Standardized_SMILES>  (746) 
Cc1ccc(-c2nc(C(N)=O)c(N)o2)cc1

>  <Name>  (746) 
nan

>  <Pocket>  (746) 
nan

>  <ATP_Site>  (746) 
nan

>  <Peripheral>  (746) 
nan

>  <Num_H_Atoms_ProtBoundConf>  (746) 
nan

>  <Num_Resolved_Atoms>  (746) 
nan

>  <Num_Not_Resolved_Atoms>  (746) 
nan

$$$$
CHEMBL494917
     RDKit          3D

  0  0  0  0  0  0  0  0  0  0999 V3000
M  V30 BEGIN CTAB
M  V30 COUNTS 46 49 0 0 0
M  V30 BEGIN ATOM
M  V30 1 C -0.909047 -7.190980 4.041160 0
M  V30 2 N -0.833881 -6.545292 2.745038 0
M  V30 3 C -0.687191 -5.169359 2.410986 0
M  V30 4 N -0.583541 -4.137820 3.299798 0
M  V30 5 O -0.461953 -3.018789 2.616701 0
M  V30 6 C -0.482681 -3.283269 1.335199 0
M  V30 7 C -0.387514 -2.436391 0.249868 0
M  V30 8 C -0.235631 -0.988531 0.345203 0
M  V30 9 C 1.012873 -0.456361 0.394964 0
M  V30 10 C 1.239869 0.903503 0.485539 0
M  V30 11 C 0.165963 1.782780 0.529040 0
M  V30 12 C 0.321855 3.168976 0.620414 0
M  V30 13 O 1.643719 3.576208 0.663015 0
M  V30 14 C 1.956660 4.945469 0.755126 0
M  V30 15 C 2.778368 5.386436 -0.429669 0
M  V30 16 C 2.731654 5.267661 2.015065 0
M  V30 17 N -0.776352 3.954734 0.657556 0
M  V30 18 N -1.990312 3.454976 0.610320 0
M  V30 19 C -2.202478 2.132912 0.522391 0
M  V30 20 C -1.127331 1.254239 0.478964 0
M  V30 21 C -1.324149 -0.111889 0.388354 0
M  V30 22 C -0.436936 -2.972860 -1.020816 0
M  V30 23 C -0.337864 -2.095067 -2.219225 0
M  V30 24 C -0.579449 -4.335497 -1.187723 0
M  V30 25 C -0.677336 -5.209356 -0.123531 0
M  V30 26 C -0.624785 -4.644941 1.113664 0
M  V30 27 H -0.095228 -7.965466 4.120714 0
M  V30 28 H -1.903717 -7.634284 4.244703 0
M  V30 29 H -0.693353 -6.439463 4.829423 0
M  V30 30 H -0.903497 -7.245864 2.002585 0
M  V30 31 H 1.926928 -1.053002 0.367732 0
M  V30 32 H 2.249417 1.322753 0.525061 0
M  V30 33 H 1.042894 5.559524 0.783083 0
M  V30 34 H 3.489614 4.569154 -0.734572 0
M  V30 35 H 3.386767 6.265501 -0.093177 0
M  V30 36 H 2.171231 5.704570 -1.300349 0
M  V30 37 H 2.540480 4.506150 2.820627 0
M  V30 38 H 2.516971 6.294404 2.362835 0
M  V30 39 H 3.807540 5.218434 1.759894 0
M  V30 40 H -3.196613 1.717842 0.483334 0
M  V30 41 H -2.335228 -0.539224 0.348289 0
M  V30 42 H -0.921690 -1.180574 -1.976320 0
M  V30 43 H -0.696545 -2.623010 -3.110745 0
M  V30 44 H 0.711403 -1.773528 -2.366692 0
M  V30 45 H -0.613366 -4.711598 -2.211378 0
M  V30 46 H -0.788244 -6.270280 -0.264547 0
M  V30 END ATOM
M  V30 BEGIN BOND
M  V30 1 1 1 2
M  V30 2 1 2 3
M  V30 3 2 3 4
M  V30 4 1 4 5
M  V30 5 1 5 6
M  V30 6 2 6 7
M  V30 7 1 7 8
M  V30 8 2 8 9
M  V30 9 1 9 10
M  V30 10 2 10 11
M  V30 11 1 11 12
M  V30 12 1 12 13
M  V30 13 1 13 14
M  V30 14 1 14 15
M  V30 15 1 14 16
M  V30 16 2 12 17
M  V30 17 1 17 18
M  V30 18 2 18 19
M  V30 19 1 19 20
M  V30 20 2 20 21
M  V30 21 1 7 22
M  V30 22 1 22 23
M  V30 23 2 22 24
M  V30 24 1 24 25
M  V30 25 2 25 26
M  V30 26 1 26 3
M  V30 27 1 26 6
M  V30 28 1 21 8
M  V30 29 1 20 11
M  V30 30 1 1 27
M  V30 31 1 1 28
M  V30 32 1 1 29
M  V30 33 1 2 30
M  V30 34 1 9 31
M  V30 35 1 10 32
M  V30 36 1 14 33
M  V30 37 1 15 34
M  V30 38 1 15 35
M  V30 39 1 15 36
M  V30 40 1 16 37
M  V30 41 1 16 38
M  V30 42 1 16 39
M  V30 43 1 19 40
M  V30 44 1 21 41
M  V30 45 1 23 42
M  V30 46 1 23 43
M  V30 47 1 23 44
M  V30 48 1 24 45
M  V30 49 1 25 46
M  V30 END BOND
M  V30 END CTAB
M  END
>  <Dataset>  (747) 
ChEMBL_Kinases

>  <Ligand_Instance>  (747) 
nan

>  <PDB_ID>  (747) 
nan

>  <Standardized_SMILES>  (747) 
CNc1noc2c(-c3ccc4c(OC(C)C)nncc4c3)c(C)ccc12

>  <Name>  (747) 
nan

>  <Pocket>  (747) 
nan

>  <ATP_Site>  (747) 
nan

>  <Peripheral>  (747) 
nan

>  <Num_H_Atoms_ProtBoundConf>  (747) 
nan

>  <Num_Resolved_Atoms>  (747) 
nan

>  <Num_Not_Resolved_Atoms>  (747) 
nan

$$$$
CHEMBL382914
     RDKit          3D

  0  0  0  0  0  0  0  0  0  0999 V3000
M  V30 BEGIN CTAB
M  V30 COUNTS 58 61 0 0 0
M  V30 BEGIN ATOM
M  V30 1 C 4.940860 -4.593452 4.855807 0
M  V30 2 C 4.156817 -4.272376 6.136982 0
M  V30 3 N 3.542972 -2.963293 6.029496 0
M  V30 4 C 2.577451 -2.241593 5.293294 0
M  V30 5 C 2.844059 -1.671003 4.067738 0
M  V30 6 C 1.874780 -0.959336 3.378801 0
M  V30 7 C 2.117891 -0.360621 2.092924 0
M  V30 8 C 1.272991 0.335365 1.363267 0
M  V30 9 C 1.581310 0.916836 0.060063 0
M  V30 10 C 2.792250 0.848228 -0.584180 0
M  V30 11 N 2.935759 1.420963 -1.798630 0
M  V30 12 C 1.912892 2.075730 -2.425377 0
M  V30 13 C 0.655988 2.170971 -1.804423 0
M  V30 14 O -0.228785 2.860057 -2.582064 0
M  V30 15 C -1.559216 3.055322 -2.185588 0
M  V30 16 C -2.397967 1.833499 -2.061300 0 CFG=1
M  V30 17 N -3.728474 2.283189 -1.602868 0
M  V30 18 C -2.680975 1.201649 -3.425953 0
M  V30 19 C -3.515965 -0.006871 -3.179355 0
M  V30 20 C -4.874497 -0.293356 -3.318313 0
M  V30 21 N -5.083584 -1.566753 -2.939114 0
M  V30 22 C -3.930024 -2.107710 -2.565684 0
M  V30 23 C -3.652534 -3.375035 -2.107769 0
M  V30 24 C -2.363278 -3.745038 -1.769041 0
M  V30 25 C -1.352731 -2.813974 -1.899731 0
M  V30 26 C -1.607694 -1.542639 -2.355221 0
M  V30 27 C -2.904749 -1.168147 -2.696533 0
M  V30 28 C 0.561187 1.578076 -0.578443 0
M  V30 29 C 0.645122 -0.864278 3.997163 0
M  V30 30 C 0.369197 -1.430518 5.220271 0
M  V30 31 N 1.337943 -2.112954 5.855472 0
M  V30 32 H 4.294706 -4.874266 4.018723 0
M  V30 33 H 5.655052 -3.774125 4.624714 0
M  V30 34 H 5.569218 -5.497946 5.077944 0
M  V30 35 H 4.823690 -4.310392 6.993261 0
M  V30 36 H 3.356779 -5.069798 6.173704 0
M  V30 37 H 3.864596 -2.207825 6.695773 0
M  V30 38 H 3.805962 -1.765107 3.617142 0
M  V30 39 H 3.126802 -0.503348 1.675644 0
M  V30 40 H 0.300591 0.454107 1.809423 0
M  V30 41 H 3.605264 0.334071 -0.096591 0
M  V30 42 H 2.268706 2.454047 -3.396160 0
M  V30 43 H -1.608855 3.562550 -1.169350 0
M  V30 44 H -2.097018 3.786639 -2.844701 0
M  V30 45 H -2.087893 1.046391 -1.396801 0
M  V30 46 H -3.829442 2.108431 -0.579077 0
M  V30 47 H -3.942004 3.247159 -1.877238 0
M  V30 48 H -1.777694 0.902557 -3.961737 0
M  V30 49 H -3.298509 1.931326 -4.011670 0
M  V30 50 H -5.548558 0.467164 -3.681205 0
M  V30 51 H -6.064110 -1.954543 -2.980449 0
M  V30 52 H -4.443264 -4.131787 -1.996017 0
M  V30 53 H -2.170029 -4.740520 -1.414440 0
M  V30 54 H -0.346211 -3.138349 -1.625095 0
M  V30 55 H -0.808435 -0.802177 -2.460254 0
M  V30 56 H -0.376039 1.673638 -0.101304 0
M  V30 57 H -0.196141 -0.341321 3.575828 0
M  V30 58 H -0.571549 -1.385367 5.745506 0
M  V30 END ATOM
M  V30 BEGIN BOND
M  V30 1 1 1 2
M  V30 2 1 2 3
M  V30 3 1 3 4
M  V30 4 2 4 5
M  V30 5 1 5 6
M  V30 6 1 6 7
M  V30 7 2 7 8
M  V30 8 1 8 9
M  V30 9 2 9 10
M  V30 10 1 10 11
M  V30 11 2 11 12
M  V30 12 1 12 13
M  V30 13 1 13 14
M  V30 14 1 14 15
M  V30 15 1 15 16
M  V30 16 1 16 17
M  V30 17 1 16 18
M  V30 18 1 18 19
M  V30 19 2 19 20
M  V30 20 1 20 21
M  V30 21 1 21 22
M  V30 22 2 22 23
M  V30 23 1 23 24
M  V30 24 2 24 25
M  V30 25 1 25 26
M  V30 26 2 26 27
M  V30 27 2 13 28
M  V30 28 2 6 29
M  V30 29 1 29 30
M  V30 30 2 30 31
M  V30 31 1 31 4
M  V30 32 1 28 9
M  V30 33 1 27 19
M  V30 34 1 27 22
M  V30 35 1 1 32
M  V30 36 1 1 33
M  V30 37 1 1 34
M  V30 38 1 2 35
M  V30 39 1 2 36
M  V30 40 1 3 37
M  V30 41 1 5 38
M  V30 42 1 7 39
M  V30 43 1 8 40
M  V30 44 1 10 41
M  V30 45 1 12 42
M  V30 46 1 15 43
M  V30 47 1 15 44
M  V30 48 1 16 45 CFG=1
M  V30 49 1 17 46
M  V30 50 1 17 47
M  V30 51 1 18 48
M  V30 52 1 18 49
M  V30 53 1 20 50
M  V30 54 1 21 51
M  V30 55 1 23 52
M  V30 56 1 24 53
M  V30 57 1 25 54
M  V30 58 1 26 55
M  V30 59 1 28 56
M  V30 60 1 29 57
M  V30 61 1 30 58
M  V30 END BOND
M  V30 END CTAB
M  END
>  <Dataset>  (748) 
ChEMBL_Kinases

>  <Ligand_Instance>  (748) 
nan

>  <PDB_ID>  (748) 
nan

>  <Standardized_SMILES>  (748) 
CCNc1cc(/C=C/c2cncc(OC[C@@H](N)Cc3c[nH]c4ccccc34)c2)ccn1

>  <Name>  (748) 
nan

>  <Pocket>  (748) 
nan

>  <ATP_Site>  (748) 
nan

>  <Peripheral>  (748) 
nan

>  <Num_H_Atoms_ProtBoundConf>  (748) 
nan

>  <Num_Resolved_Atoms>  (748) 
nan

>  <Num_Not_Resolved_Atoms>  (748) 
nan

$$$$
CHEMBL382895
     RDKit          3D

  0  0  0  0  0  0  0  0  0  0999 V3000
M  V30 BEGIN CTAB
M  V30 COUNTS 34 36 0 0 0
M  V30 BEGIN ATOM
M  V30 1 C 2.187468 -2.838598 2.729202 0
M  V30 2 C 2.603507 -3.452362 1.421494 0
M  V30 3 C 2.420493 -2.368790 0.345898 0
M  V30 4 C 0.963336 -1.987022 0.463171 0
M  V30 5 N -0.047723 -2.779072 0.863967 0
M  V30 6 N -1.173080 -2.071487 0.878094 0
M  V30 7 C -2.359983 -2.759205 1.301085 0
M  V30 8 C -0.901705 -0.822983 0.486439 0
M  V30 9 C 0.429254 -0.752203 0.222999 0
M  V30 10 C 0.959837 0.442960 -0.214001 0
M  V30 11 O 2.177175 0.546621 -0.466290 0
M  V30 12 C 0.112887 1.523875 -0.368510 0
M  V30 13 C 0.597539 2.753140 -0.823005 0
M  V30 14 C -0.306727 3.800237 -0.971367 0
M  V30 15 Cl 0.295859 5.333419 -1.555287 0
M  V30 16 C -1.630264 3.673774 -0.693182 0
M  V30 17 C -2.107844 2.459187 -0.244969 0
M  V30 18 C -1.238881 1.402684 -0.088273 0
M  V30 19 N -1.749675 0.211771 0.344824 0
M  V30 20 O -3.081722 0.062886 0.630741 0
M  V30 21 H 3.034491 -2.654443 3.384522 0
M  V30 22 H 1.395090 -3.474386 3.234822 0
M  V30 23 H 1.647538 -1.860461 2.583342 0
M  V30 24 H 3.651850 -3.815187 1.435519 0
M  V30 25 H 1.896142 -4.265837 1.144744 0
M  V30 26 H 2.674215 -2.741905 -0.656135 0
M  V30 27 H 3.080902 -1.535979 0.681147 0
M  V30 28 H -2.321378 -2.983867 2.415412 0
M  V30 29 H -2.436709 -3.764560 0.824405 0
M  V30 30 H -3.299781 -2.244565 1.148633 0
M  V30 31 H 1.651690 2.811470 -1.032079 0
M  V30 32 H -2.297642 4.509569 -0.818329 0
M  V30 33 H -3.143803 2.333974 -0.022797 0
M  V30 34 H -3.683961 -0.236141 -0.127993 0
M  V30 END ATOM
M  V30 BEGIN BOND
M  V30 1 1 1 2
M  V30 2 1 2 3
M  V30 3 1 3 4
M  V30 4 2 4 5
M  V30 5 1 5 6
M  V30 6 1 6 7
M  V30 7 1 6 8
M  V30 8 2 8 9
M  V30 9 1 9 10
M  V30 10 2 10 11
M  V30 11 1 10 12
M  V30 12 2 12 13
M  V30 13 1 13 14
M  V30 14 1 14 15
M  V30 15 2 14 16
M  V30 16 1 16 17
M  V30 17 2 17 18
M  V30 18 1 18 19
M  V30 19 1 19 20
M  V30 20 1 9 4
M  V30 21 1 18 12
M  V30 22 1 19 8
M  V30 23 1 1 21
M  V30 24 1 1 22
M  V30 25 1 1 23
M  V30 26 1 2 24
M  V30 27 1 2 25
M  V30 28 1 3 26
M  V30 29 1 3 27
M  V30 30 1 7 28
M  V30 31 1 7 29
M  V30 32 1 7 30
M  V30 33 1 13 31
M  V30 34 1 16 32
M  V30 35 1 17 33
M  V30 36 1 20 34
M  V30 END BOND
M  V30 END CTAB
M  END
>  <Dataset>  (749) 
ChEMBL_Kinases

>  <Ligand_Instance>  (749) 
nan

>  <PDB_ID>  (749) 
nan

>  <Standardized_SMILES>  (749) 
CCCc1nn(C)c2c1c(=O)c1cc(Cl)ccc1n2O

>  <Name>  (749) 
nan

>  <Pocket>  (749) 
nan

>  <ATP_Site>  (749) 
nan

>  <Peripheral>  (749) 
nan

>  <Num_H_Atoms_ProtBoundConf>  (749) 
nan

>  <Num_Resolved_Atoms>  (749) 
nan

>  <Num_Not_Resolved_Atoms>  (749) 
nan

$$$$
CHEMBL383254
     RDKit          3D

  0  0  0  0  0  0  0  0  0  0999 V3000
M  V30 BEGIN CTAB
M  V30 COUNTS 42 44 0 0 0
M  V30 BEGIN ATOM
M  V30 1 N 0.676913 -3.353652 0.436639 0
M  V30 2 C 1.485645 -3.246417 -0.718222 0
M  V30 3 C 1.332253 -2.041274 -1.571708 0
M  V30 4 C -0.009938 -1.843125 -2.134759 0
M  V30 5 C -1.199147 -1.928604 -1.471357 0
M  V30 6 C -2.439777 -1.740774 -2.027178 0
M  V30 7 C -2.524600 -1.438733 -3.367374 0
M  V30 8 C -1.374821 -1.333902 -4.108079 0
M  V30 9 C -0.169075 -1.534648 -3.486242 0
M  V30 10 C 1.755527 -0.766109 -0.953191 0
M  V30 11 C 2.535798 0.173533 -1.642540 0
M  V30 12 N 2.925016 1.342662 -1.088685 0
M  V30 13 C 2.581938 1.674675 0.169489 0
M  V30 14 C 1.802739 0.797508 0.936145 0
M  V30 15 C 1.437627 1.167165 2.296014 0
M  V30 16 C 0.720471 0.470679 3.143805 0
M  V30 17 C 0.356786 0.844130 4.505066 0
M  V30 18 C -0.406503 0.026316 5.309356 0
M  V30 19 C -0.749441 0.374021 6.587266 0
M  V30 20 N -0.342743 1.555849 7.114921 0
M  V30 21 C 0.411321 2.412219 6.382433 0
M  V30 22 C 0.733012 2.024863 5.105270 0
M  V30 23 C 1.431198 -0.380895 0.327357 0
M  V30 24 H 1.199229 -3.355984 1.341812 0
M  V30 25 H -0.053218 -4.097422 0.397788 0
M  V30 26 H 1.260393 -4.152834 -1.355210 0
M  V30 27 H 2.543839 -3.416334 -0.402799 0
M  V30 28 H 2.057979 -2.173438 -2.443734 0
M  V30 29 H -1.182494 -2.160298 -0.417333 0
M  V30 30 H -3.349575 -1.821054 -1.453077 0
M  V30 31 H -3.475600 -1.280837 -3.856105 0
M  V30 32 H -1.454510 -1.097281 -5.154670 0
M  V30 33 H 0.694267 -1.434446 -4.139138 0
M  V30 34 H 2.808473 -0.112452 -2.670860 0
M  V30 35 H 2.909470 2.616960 0.582427 0
M  V30 36 H 1.779603 2.113757 2.679291 0
M  V30 37 H 0.357243 -0.491116 2.792636 0
M  V30 38 H -0.755210 -0.927330 4.933410 0
M  V30 39 H -1.354736 -0.312762 7.176056 0
M  V30 40 H 0.733961 3.355432 6.808274 0
M  V30 41 H 1.334052 2.736342 4.558463 0
M  V30 42 H 0.841528 -1.036935 0.910056 0
M  V30 END ATOM
M  V30 BEGIN BOND
M  V30 1 1 1 2
M  V30 2 1 2 3
M  V30 3 1 3 4
M  V30 4 2 4 5
M  V30 5 1 5 6
M  V30 6 2 6 7
M  V30 7 1 7 8
M  V30 8 2 8 9
M  V30 9 1 3 10
M  V30 10 2 10 11
M  V30 11 1 11 12
M  V30 12 2 12 13
M  V30 13 1 13 14
M  V30 14 1 14 15
M  V30 15 2 15 16
M  V30 16 1 16 17
M  V30 17 2 17 18
M  V30 18 1 18 19
M  V30 19 2 19 20
M  V30 20 1 20 21
M  V30 21 2 21 22
M  V30 22 2 14 23
M  V30 23 1 9 4
M  V30 24 1 23 10
M  V30 25 1 22 17
M  V30 26 1 1 24
M  V30 27 1 1 25
M  V30 28 1 2 26
M  V30 29 1 2 27
M  V30 30 1 3 28
M  V30 31 1 5 29
M  V30 32 1 6 30
M  V30 33 1 7 31
M  V30 34 1 8 32
M  V30 35 1 9 33
M  V30 36 1 11 34
M  V30 37 1 13 35
M  V30 38 1 15 36
M  V30 39 1 16 37
M  V30 40 1 18 38
M  V30 41 1 19 39
M  V30 42 1 21 40
M  V30 43 1 22 41
M  V30 44 1 23 42
M  V30 END BOND
M  V30 END CTAB
M  END
>  <Dataset>  (750) 
ChEMBL_Kinases

>  <Ligand_Instance>  (750) 
nan

>  <PDB_ID>  (750) 
nan

>  <Standardized_SMILES>  (750) 
NCC(c1ccccc1)c1cncc(/C=C/c2ccncc2)c1

>  <Name>  (750) 
nan

>  <Pocket>  (750) 
nan

>  <ATP_Site>  (750) 
nan

>  <Peripheral>  (750) 
nan

>  <Num_H_Atoms_ProtBoundConf>  (750) 
nan

>  <Num_Resolved_Atoms>  (750) 
nan

>  <Num_Not_Resolved_Atoms>  (750) 
nan

$$$$
CHEMBL494162
     RDKit          3D

  0  0  0  0  0  0  0  0  0  0999 V3000
M  V30 BEGIN CTAB
M  V30 COUNTS 47 51 0 0 0
M  V30 BEGIN ATOM
M  V30 1 C -2.565250 -6.353955 -3.107514 0
M  V30 2 N -1.819588 -5.486204 -2.296926 0
M  V30 3 C -1.082127 -4.631346 -1.499446 0
M  V30 4 N 0.219654 -4.252898 -1.576078 0
M  V30 5 C 0.726855 -3.359274 -0.727296 0
M  V30 6 S 2.289645 -2.560896 -0.483944 0
M  V30 7 C 1.638803 -1.519587 0.971620 0
M  V30 8 C 2.565819 -0.585323 1.579732 0
M  V30 9 C 3.909556 -0.493996 1.361001 0
M  V30 10 C 4.604289 0.556981 1.960235 0
M  V30 11 C 3.995387 1.517157 2.768257 0
M  V30 12 C 2.605990 1.406427 2.981995 0
M  V30 13 C 2.026149 2.495223 3.808268 0
M  V30 14 N 1.652138 3.572109 2.877195 0
M  V30 15 C 0.526136 3.703116 2.035422 0
M  V30 16 O -0.233899 2.708036 2.163395 0
M  V30 17 C 0.191926 4.771847 1.117147 0
M  V30 18 C -1.006810 4.630530 0.455728 0
M  V30 19 C -1.142273 5.751309 -0.373239 0
M  V30 20 N -0.037631 6.495054 -0.171521 0
M  V30 21 O 0.739109 5.895877 0.717255 0
M  V30 22 C 1.959052 0.366581 2.384850 0
M  V30 23 N 0.531951 -1.900566 1.019058 0
M  V30 24 C -0.076939 -2.797001 0.266484 0
M  V30 25 C -1.414186 -3.151496 0.399692 0
M  V30 26 C -1.912273 -4.084112 -0.504309 0
M  V30 27 N -3.224071 -4.250744 -0.149966 0
M  V30 28 C -3.537358 -3.471106 0.909420 0
M  V30 29 N -2.437875 -2.800683 1.246754 0
M  V30 30 C -2.273380 -1.851915 2.333511 0
M  V30 31 H -2.621311 -7.389244 -2.711307 0
M  V30 32 H -2.401327 -6.326522 -4.216264 0
M  V30 33 H -3.658791 -5.965914 -3.061878 0
M  V30 34 H -1.002998 -5.777787 -2.935288 0
M  V30 35 H 4.348749 -1.243412 0.736123 0
M  V30 36 H 5.667721 0.642812 1.790596 0
M  V30 37 H 4.591133 2.287941 3.190184 0
M  V30 38 H 1.139638 2.148451 4.395707 0
M  V30 39 H 2.782751 2.850611 4.514633 0
M  V30 40 H 2.325283 4.385904 2.821834 0
M  V30 41 H -1.859117 3.948023 0.376215 0
M  V30 42 H -1.862723 6.137428 -1.077443 0
M  V30 43 H 0.901213 0.316009 2.582024 0
M  V30 44 H -4.496044 -3.400229 1.382406 0
M  V30 45 H -1.532087 -1.115733 2.014238 0
M  V30 46 H -1.906231 -2.387824 3.260086 0
M  V30 47 H -3.244572 -1.373931 2.592950 0
M  V30 END ATOM
M  V30 BEGIN BOND
M  V30 1 1 1 2
M  V30 2 1 2 3
M  V30 3 2 3 4
M  V30 4 1 4 5
M  V30 5 1 5 6
M  V30 6 1 6 7
M  V30 7 1 7 8
M  V30 8 2 8 9
M  V30 9 1 9 10
M  V30 10 2 10 11
M  V30 11 1 11 12
M  V30 12 1 12 13
M  V30 13 1 13 14
M  V30 14 1 14 15
M  V30 15 2 15 16
M  V30 16 1 15 17
M  V30 17 2 17 18
M  V30 18 1 18 19
M  V30 19 2 19 20
M  V30 20 1 20 21
M  V30 21 2 12 22
M  V30 22 2 7 23
M  V30 23 1 23 24
M  V30 24 1 24 25
M  V30 25 2 25 26
M  V30 26 1 26 27
M  V30 27 2 27 28
M  V30 28 1 28 29
M  V30 29 1 29 30
M  V30 30 1 26 3
M  V30 31 2 24 5
M  V30 32 1 29 25
M  V30 33 1 22 8
M  V30 34 1 21 17
M  V30 35 1 1 31
M  V30 36 1 1 32
M  V30 37 1 1 33
M  V30 38 1 2 34
M  V30 39 1 9 35
M  V30 40 1 10 36
M  V30 41 1 11 37
M  V30 42 1 13 38
M  V30 43 1 13 39
M  V30 44 1 14 40
M  V30 45 1 18 41
M  V30 46 1 19 42
M  V30 47 1 22 43
M  V30 48 1 28 44
M  V30 49 1 30 45
M  V30 50 1 30 46
M  V30 51 1 30 47
M  V30 END BOND
M  V30 END CTAB
M  END
>  <Dataset>  (751) 
ChEMBL_Kinases

>  <Ligand_Instance>  (751) 
nan

>  <PDB_ID>  (751) 
nan

>  <Standardized_SMILES>  (751) 
CNc1nc2sc(-c3cccc(CNC(=O)c4ccno4)c3)nc2c2c1ncn2C

>  <Name>  (751) 
nan

>  <Pocket>  (751) 
nan

>  <ATP_Site>  (751) 
nan

>  <Peripheral>  (751) 
nan

>  <Num_H_Atoms_ProtBoundConf>  (751) 
nan

>  <Num_Resolved_Atoms>  (751) 
nan

>  <Num_Not_Resolved_Atoms>  (751) 
nan

$$$$
CHEMBL593708
     RDKit          3D

  0  0  0  0  0  0  0  0  0  0999 V3000
M  V30 BEGIN CTAB
M  V30 COUNTS 44 47 0 0 0
M  V30 BEGIN ATOM
M  V30 1 C 0.662914 -6.007184 -1.251689 0
M  V30 2 C 0.004131 -5.099476 -0.566640 0
M  V30 3 C 0.752844 -4.018690 0.057229 0
M  V30 4 C 2.114556 -4.030516 -0.121395 0
M  V30 5 C 2.767071 -2.963317 0.505370 0
M  V30 6 C 2.083624 -2.006898 1.225931 0
M  V30 7 C 0.712055 -2.053259 1.366884 0
M  V30 8 C -0.052618 -1.081214 2.101316 0
M  V30 9 C -0.254924 0.228759 1.801433 0
M  V30 10 C 0.210789 1.010828 0.699224 0
M  V30 11 C -0.871886 1.440320 -0.081311 0
M  V30 12 C -0.691628 2.226390 -1.226351 0
M  V30 13 C 0.608799 2.577745 -1.578151 0
M  V30 14 N 0.801865 3.342151 -2.690257 0
M  V30 15 C 2.073493 3.686460 -3.036339 0
M  V30 16 C 3.126851 3.246336 -2.243870 0
M  V30 17 N 2.950554 2.485263 -1.134490 0
M  V30 18 C 1.670920 2.154656 -0.809789 0
M  V30 19 C 1.466046 1.381648 0.312788 0
M  V30 20 N -1.043480 0.731716 2.798646 0
M  V30 21 C -1.524193 2.100598 2.907079 0
M  V30 22 N -1.333431 -0.213748 3.697104 0
M  V30 23 C -2.146686 -0.035956 4.885605 0
M  V30 24 C -0.719443 -1.328265 3.260777 0
M  V30 25 O -0.793743 -2.410238 3.885925 0
M  V30 26 C 0.006360 -3.100621 0.760238 0
M  V30 27 H 1.032049 -6.823782 -1.839996 0
M  V30 28 H 1.502569 -6.519512 -1.696752 0
M  V30 29 H -0.943793 -5.540928 -0.741641 0
M  V30 30 H 2.635347 -4.784039 -0.686791 0
M  V30 31 H 3.848909 -2.875664 0.428109 0
M  V30 32 H 2.649575 -1.212211 1.686122 0
M  V30 33 H -1.940454 1.230649 0.090800 0
M  V30 34 H -1.504688 2.571458 -1.845755 0
M  V30 35 H 2.323090 4.293635 -3.906766 0
M  V30 36 H 4.172314 3.470980 -2.441786 0
M  V30 37 H 2.232519 1.017210 0.959173 0
M  V30 38 H -2.608363 2.164381 2.663788 0
M  V30 39 H -1.463094 2.426703 3.987612 0
M  V30 40 H -0.909864 2.832505 2.367281 0
M  V30 41 H -2.689691 -0.971062 5.109695 0
M  V30 42 H -1.512392 0.289792 5.732852 0
M  V30 43 H -2.942051 0.736359 4.684882 0
M  V30 44 H -1.064937 -3.240782 0.801491 0
M  V30 END ATOM
M  V30 BEGIN BOND
M  V30 1 2 1 2
M  V30 2 1 2 3
M  V30 3 2 3 4
M  V30 4 1 4 5
M  V30 5 2 5 6
M  V30 6 1 6 7
M  V30 7 1 7 8
M  V30 8 2 8 9
M  V30 9 1 9 10
M  V30 10 2 10 11
M  V30 11 1 11 12
M  V30 12 2 12 13
M  V30 13 1 13 14
M  V30 14 2 14 15
M  V30 15 1 15 16
M  V30 16 2 16 17
M  V30 17 1 17 18
M  V30 18 2 18 19
M  V30 19 1 9 20
M  V30 20 1 20 21
M  V30 21 1 20 22
M  V30 22 1 22 23
M  V30 23 1 22 24
M  V30 24 2 24 25
M  V30 25 2 7 26
M  V30 26 1 26 3
M  V30 27 1 24 8
M  V30 28 1 19 10
M  V30 29 1 18 13
M  V30 30 1 1 27
M  V30 31 1 1 28
M  V30 32 1 2 29
M  V30 33 1 4 30
M  V30 34 1 5 31
M  V30 35 1 6 32
M  V30 36 1 11 33
M  V30 37 1 12 34
M  V30 38 1 15 35
M  V30 39 1 16 36
M  V30 40 1 19 37
M  V30 41 1 21 38
M  V30 42 1 21 39
M  V30 43 1 21 40
M  V30 44 1 23 41
M  V30 45 1 23 42
M  V30 46 1 23 43
M  V30 47 1 26 44
M  V30 END BOND
M  V30 END CTAB
M  END
>  <Dataset>  (752) 
ChEMBL_Kinases

>  <Ligand_Instance>  (752) 
nan

>  <PDB_ID>  (752) 
nan

>  <Standardized_SMILES>  (752) 
C=Cc1cccc(-c2c(-c3ccc4nccnc4c3)n(C)n(C)c2=O)c1

>  <Name>  (752) 
nan

>  <Pocket>  (752) 
nan

>  <ATP_Site>  (752) 
nan

>  <Peripheral>  (752) 
nan

>  <Num_H_Atoms_ProtBoundConf>  (752) 
nan

>  <Num_Resolved_Atoms>  (752) 
nan

>  <Num_Not_Resolved_Atoms>  (752) 
nan

$$$$
CHEMBL384054
     RDKit          3D

  0  0  0  0  0  0  0  0  0  0999 V3000
M  V30 BEGIN CTAB
M  V30 COUNTS 78 82 0 0 0
M  V30 BEGIN ATOM
M  V30 1 C -3.196099 -1.714735 0.209246 0
M  V30 2 O -2.111803 -2.028609 1.072316 0
M  V30 3 C -1.099377 -2.901694 0.655903 0
M  V30 4 C -1.230389 -3.425374 -0.623795 0
M  V30 5 C -0.186271 -4.286236 -0.970922 0
M  V30 6 C -0.276258 -4.818542 -2.246952 0
M  V30 7 N -1.303682 -4.615869 -3.203052 0
M  V30 8 C -1.507519 -3.404095 -3.910554 0
M  V30 9 C -0.880278 -2.188595 -3.800993 0
M  V30 10 C -1.411053 -1.283401 -4.717752 0
M  V30 11 C -0.924659 0.108487 -4.811549 0
M  V30 12 C -1.860032 0.948217 -3.983205 0
M  V30 13 O -2.684008 0.048318 -3.594854 0
M  V30 14 N -1.872186 2.336014 -3.685910 0
M  V30 15 C -2.972091 2.707935 -2.844743 0
M  V30 16 C -2.991840 2.679511 -1.467979 0
M  V30 17 C -4.092778 3.074551 -0.742501 0
M  V30 18 C -5.201538 3.509146 -1.431142 0
M  V30 19 C -5.249387 3.563533 -2.829458 0
M  V30 20 F -6.386774 4.009278 -3.438448 0
M  V30 21 C -4.114451 3.154984 -3.527401 0
M  V30 22 F -4.139772 3.200261 -4.891859 0
M  V30 23 N -2.371694 -2.001950 -5.372844 0
M  V30 24 N -2.408892 -3.231648 -4.885956 0
M  V30 25 N 0.695769 -5.648985 -2.665203 0
M  V30 26 C 1.748493 -5.970596 -1.869593 0
M  V30 27 N 1.847380 -5.453901 -0.613105 0
M  V30 28 C 0.880409 -4.610102 -0.160928 0
M  V30 29 C 0.904750 -4.030201 1.087572 0
M  V30 30 C -0.072319 -3.167251 1.531350 0
M  V30 31 O -0.065301 -2.573612 2.782018 0
M  V30 32 C 0.950624 -2.811786 3.714714 0
M  V30 33 C 0.705926 -2.005371 5.002924 0
M  V30 34 C 0.683732 -0.550700 4.681965 0
M  V30 35 N 1.817760 0.020016 4.108718 0
M  V30 36 C 1.580779 1.434070 3.877772 0
M  V30 37 C 2.805058 2.154694 3.417231 0
M  V30 38 C 3.863045 1.220291 2.877602 0
M  V30 39 C 3.401133 0.431017 1.697925 0
M  V30 40 C 2.987755 1.299054 0.532769 0
M  V30 41 O 4.029509 2.097030 0.082783 0
M  V30 42 C 4.279373 0.235189 3.962948 0
M  V30 43 C 3.064296 -0.091708 4.795720 0
M  V30 44 H -3.770836 -2.616372 -0.058640 0
M  V30 45 H -3.900166 -1.012525 0.670818 0
M  V30 46 H -2.746778 -1.238085 -0.690562 0
M  V30 47 H -2.046382 -3.198924 -1.286694 0
M  V30 48 H -1.891103 -5.441368 -3.337079 0
M  V30 49 H -0.085569 -1.994059 -3.085843 0
M  V30 50 H 0.078475 0.211037 -4.375110 0
M  V30 51 H -0.971497 0.411374 -5.879556 0
M  V30 52 H -1.057790 2.780429 -4.158520 0
M  V30 53 H -2.061634 2.314511 -1.001072 0
M  V30 54 H -4.056120 3.032438 0.348004 0
M  V30 55 H -6.101167 3.834172 -0.895777 0
M  V30 56 H -2.910255 -1.521094 -6.117383 0
M  V30 57 H 2.571565 -6.637356 -2.146383 0
M  V30 58 H 1.730725 -4.275003 1.727906 0
M  V30 59 H 1.939464 -2.574262 3.296345 0
M  V30 60 H 0.912253 -3.891367 3.967300 0
M  V30 61 H -0.294936 -2.339123 5.349930 0
M  V30 62 H 1.439786 -2.336414 5.725509 0
M  V30 63 H -0.194780 -0.366696 4.034048 0
M  V30 64 H 0.456818 -0.007141 5.643941 0
M  V30 65 H 0.790199 1.507107 3.096585 0
M  V30 66 H 1.193510 1.926960 4.779801 0
M  V30 67 H 3.232700 2.805009 4.218039 0
M  V30 68 H 2.521814 2.839886 2.594144 0
M  V30 69 H 4.700289 1.858122 2.531844 0
M  V30 70 H 2.663643 -0.361194 1.916661 0
M  V30 71 H 4.311415 -0.133346 1.338276 0
M  V30 72 H 2.094908 1.879504 0.854530 0
M  V30 73 H 2.648908 0.689287 -0.331406 0
M  V30 74 H 3.733702 2.489346 -0.794280 0
M  V30 75 H 5.002413 0.792948 4.600736 0
M  V30 76 H 4.781792 -0.647853 3.522110 0
M  V30 77 H 3.019601 0.696648 5.588337 0
M  V30 78 H 3.164546 -1.043698 5.374583 0
M  V30 END ATOM
M  V30 BEGIN BOND
M  V30 1 1 1 2
M  V30 2 1 2 3
M  V30 3 2 3 4
M  V30 4 1 4 5
M  V30 5 2 5 6
M  V30 6 1 6 7
M  V30 7 1 7 8
M  V30 8 1 8 9
M  V30 9 2 9 10
M  V30 10 1 10 11
M  V30 11 1 11 12
M  V30 12 2 12 13
M  V30 13 1 12 14
M  V30 14 1 14 15
M  V30 15 2 15 16
M  V30 16 1 16 17
M  V30 17 2 17 18
M  V30 18 1 18 19
M  V30 19 1 19 20
M  V30 20 2 19 21
M  V30 21 1 21 22
M  V30 22 1 10 23
M  V30 23 1 23 24
M  V30 24 1 6 25
M  V30 25 2 25 26
M  V30 26 1 26 27
M  V30 27 2 27 28
M  V30 28 1 28 29
M  V30 29 2 29 30
M  V30 30 1 30 31
M  V30 31 1 31 32
M  V30 32 1 32 33
M  V30 33 1 33 34
M  V30 34 1 34 35
M  V30 35 1 35 36
M  V30 36 1 36 37
M  V30 37 1 37 38
M  V30 38 1 38 39
M  V30 39 1 39 40
M  V30 40 1 40 41
M  V30 41 1 38 42
M  V30 42 1 42 43
M  V30 43 1 30 3
M  V30 44 1 43 35
M  V30 45 1 28 5
M  V30 46 2 24 8
M  V30 47 1 21 15
M  V30 48 1 1 44
M  V30 49 1 1 45
M  V30 50 1 1 46
M  V30 51 1 4 47
M  V30 52 1 7 48
M  V30 53 1 9 49
M  V30 54 1 11 50
M  V30 55 1 11 51
M  V30 56 1 14 52
M  V30 57 1 16 53
M  V30 58 1 17 54
M  V30 59 1 18 55
M  V30 60 1 23 56
M  V30 61 1 26 57
M  V30 62 1 29 58
M  V30 63 1 32 59
M  V30 64 1 32 60
M  V30 65 1 33 61
M  V30 66 1 33 62
M  V30 67 1 34 63
M  V30 68 1 34 64
M  V30 69 1 36 65
M  V30 70 1 36 66
M  V30 71 1 37 67
M  V30 72 1 37 68
M  V30 73 1 38 69
M  V30 74 1 39 70
M  V30 75 1 39 71
M  V30 76 1 40 72
M  V30 77 1 40 73
M  V30 78 1 41 74
M  V30 79 1 42 75
M  V30 80 1 42 76
M  V30 81 1 43 77
M  V30 82 1 43 78
M  V30 END BOND
M  V30 END CTAB
M  END
>  <Dataset>  (753) 
ChEMBL_Kinases

>  <Ligand_Instance>  (753) 
nan

>  <PDB_ID>  (753) 
nan

>  <Standardized_SMILES>  (753) 
COc1cc2c(Nc3cc(CC(=O)Nc4cccc(F)c4F)[nH]n3)ncnc2cc1OCCCN1CCC(CCO)CC1

>  <Name>  (753) 
nan

>  <Pocket>  (753) 
nan

>  <ATP_Site>  (753) 
nan

>  <Peripheral>  (753) 
nan

>  <Num_H_Atoms_ProtBoundConf>  (753) 
nan

>  <Num_Resolved_Atoms>  (753) 
nan

>  <Num_Not_Resolved_Atoms>  (753) 
nan

$$$$
CHEMBL384012
     RDKit          3D

  0  0  0  0  0  0  0  0  0  0999 V3000
M  V30 BEGIN CTAB
M  V30 COUNTS 48 50 0 0 0
M  V30 BEGIN ATOM
M  V30 1 N 2.123267 3.546780 2.043628 0
M  V30 2 C 1.875074 2.462831 1.170511 0
M  V30 3 N 1.949373 1.235836 1.549384 0
M  V30 4 C 2.293512 0.851288 2.902785 0
M  V30 5 C 3.739033 0.426353 3.027876 0
M  V30 6 O 3.990251 -0.665043 2.200894 0
M  V30 7 C 3.921229 -0.074942 4.457874 0
M  V30 8 O 3.016005 -1.105874 4.684828 0
M  V30 9 C 1.516105 2.587759 -0.220829 0
M  V30 10 C 1.394947 3.803653 -0.780664 0
M  V30 11 O 1.558022 5.073519 -0.250734 0
M  V30 12 N 1.053592 4.057676 -2.114194 0
M  V30 13 S 0.874485 2.280840 -2.666929 0
M  V30 14 C 1.238746 1.568294 -1.209953 0
M  V30 15 N 1.294181 0.170326 -0.887383 0
M  V30 16 C 0.201930 -0.597933 -0.420189 0
M  V30 17 C 0.359456 -1.934023 -0.138905 0
M  V30 18 C -0.711810 -2.696024 0.321009 0
M  V30 19 C -1.957120 -2.088582 0.495838 0
M  V30 20 O -2.921284 -2.990684 0.961780 0
M  V30 21 C -3.651683 -3.675572 -0.002385 0
M  V30 22 C -3.435941 -3.475120 -1.366803 0
M  V30 23 C -4.134654 -4.130388 -2.359434 0
M  V30 24 Cl -3.850945 -3.866497 -4.053228 0
M  V30 25 C -5.098838 -5.032681 -1.957154 0
M  V30 26 C -5.330253 -5.247853 -0.617960 0
M  V30 27 C -4.628658 -4.589860 0.364087 0
M  V30 28 Cl -4.946245 -4.885498 2.058437 0
M  V30 29 C -2.108181 -0.734243 0.208508 0
M  V30 30 C -1.038140 -0.023187 -0.238786 0
M  V30 31 H 1.490307 4.245706 2.486693 0
M  V30 32 H 1.508708 4.260798 2.501109 0
M  V30 33 H 2.005594 1.610858 3.631599 0
M  V30 34 H 1.670748 -0.056561 3.134261 0
M  V30 35 H 4.441008 1.231543 2.785769 0
M  V30 36 H 3.360367 -1.400938 2.398063 0
M  V30 37 H 4.935845 -0.484889 4.629569 0
M  V30 38 H 3.784973 0.785795 5.147592 0
M  V30 39 H 2.168995 -0.809116 5.101061 0
M  V30 40 H 2.489574 5.251741 0.136352 0
M  V30 41 H 2.227558 -0.270796 -1.022086 0
M  V30 42 H 1.339599 -2.401948 -0.278913 0
M  V30 43 H -0.495030 -3.736235 0.515744 0
M  V30 44 H -2.668044 -2.756281 -1.648633 0
M  V30 45 H -5.657435 -5.556569 -2.741514 0
M  V30 46 H -6.089282 -5.958488 -0.391724 0
M  V30 47 H -3.123171 -0.394265 0.388317 0
M  V30 48 H -1.231745 1.021279 -0.440444 0
M  V30 END ATOM
M  V30 BEGIN BOND
M  V30 1 1 1 2
M  V30 2 2 2 3
M  V30 3 1 3 4
M  V30 4 1 4 5
M  V30 5 1 5 6
M  V30 6 1 5 7
M  V30 7 1 7 8
M  V30 8 1 2 9
M  V30 9 1 9 10
M  V30 10 1 10 11
M  V30 11 2 10 12
M  V30 12 1 12 13
M  V30 13 1 13 14
M  V30 14 1 14 15
M  V30 15 1 15 16
M  V30 16 2 16 17
M  V30 17 1 17 18
M  V30 18 2 18 19
M  V30 19 1 19 20
M  V30 20 1 20 21
M  V30 21 2 21 22
M  V30 22 1 22 23
M  V30 23 1 23 24
M  V30 24 2 23 25
M  V30 25 1 25 26
M  V30 26 2 26 27
M  V30 27 1 27 28
M  V30 28 1 19 29
M  V30 29 2 29 30
M  V30 30 2 14 9
M  V30 31 1 30 16
M  V30 32 1 27 21
M  V30 33 1 1 31
M  V30 34 1 1 32
M  V30 35 1 4 33
M  V30 36 1 4 34
M  V30 37 1 5 35
M  V30 38 1 6 36
M  V30 39 1 7 37
M  V30 40 1 7 38
M  V30 41 1 8 39
M  V30 42 1 11 40
M  V30 43 1 15 41
M  V30 44 1 17 42
M  V30 45 1 18 43
M  V30 46 1 22 44
M  V30 47 1 25 45
M  V30 48 1 26 46
M  V30 49 1 29 47
M  V30 50 1 30 48
M  V30 END BOND
M  V30 END CTAB
M  END
>  <Dataset>  (754) 
ChEMBL_Kinases

>  <Ligand_Instance>  (754) 
nan

>  <PDB_ID>  (754) 
nan

>  <Standardized_SMILES>  (754) 
N/C(=N\CC(O)CO)c1c(O)nsc1Nc1ccc(Oc2cc(Cl)ccc2Cl)cc1

>  <Name>  (754) 
nan

>  <Pocket>  (754) 
nan

>  <ATP_Site>  (754) 
nan

>  <Peripheral>  (754) 
nan

>  <Num_H_Atoms_ProtBoundConf>  (754) 
nan

>  <Num_Resolved_Atoms>  (754) 
nan

>  <Num_Not_Resolved_Atoms>  (754) 
nan

$$$$
CHEMBL383961
     RDKit          3D

  0  0  0  0  0  0  0  0  0  0999 V3000
M  V30 BEGIN CTAB
M  V30 COUNTS 43 47 0 0 0
M  V30 BEGIN ATOM
M  V30 1 O 4.750635 0.780337 2.121964 0
M  V30 2 C 3.687474 0.179761 1.873567 0
M  V30 3 C 2.970998 -0.490830 2.794862 0
M  V30 4 C 2.945628 -0.825415 4.119095 0
M  V30 5 C 1.968688 -1.575165 4.733038 0
M  V30 6 C 0.820424 -2.144054 4.162922 0
M  V30 7 C 0.797744 -1.839209 2.833141 0
M  V30 8 C 1.757502 -1.097970 2.196853 0
M  V30 9 S 1.698553 -0.733684 0.544021 0
M  V30 10 N 3.286466 0.247472 0.576276 0
M  V30 11 C 3.328370 0.589142 -0.726537 0
M  V30 12 C 2.179952 1.097886 -1.509658 0
M  V30 13 N 1.519966 2.264405 -1.185213 0
M  V30 14 C 0.623549 2.466128 -0.153776 0
M  V30 15 C -0.776967 1.903931 -0.289459 0
M  V30 16 O -0.917840 0.585428 -0.455398 0
M  V30 17 C -1.813883 -0.384630 -0.594167 0
M  V30 18 C -2.913639 -0.621197 -1.422875 0
M  V30 19 C -3.684903 -1.758477 -1.336780 0
M  V30 20 C -3.427146 -2.772918 -0.407692 0
M  V30 21 C -2.366497 -2.649522 0.463209 0
M  V30 22 N -2.045663 -3.567338 1.387898 0
M  V30 23 C -1.006849 -3.415531 2.227799 0
M  V30 24 O -0.543298 -4.249507 3.220630 0
M  V30 25 C -0.318228 -2.265245 2.061554 0
M  V30 26 N -0.637107 -1.361732 1.147264 0
M  V30 27 C -1.654181 -1.465200 0.292477 0
M  V30 28 H 3.776683 -0.445540 4.669880 0
M  V30 29 H 2.114444 -1.747859 5.813873 0
M  V30 30 H 0.051930 -2.716212 4.631212 0
M  V30 31 H 3.714687 -0.308894 -1.332330 0
M  V30 32 H 4.207592 1.311996 -0.893567 0
M  V30 33 H 2.578670 1.216825 -2.573618 0
M  V30 34 H 1.412846 0.280521 -1.672822 0
M  V30 35 H 1.677030 3.084690 -1.827961 0
M  V30 36 H 0.959676 2.172379 0.865644 0
M  V30 37 H 0.458129 3.582638 -0.049218 0
M  V30 38 H -1.368723 2.547921 -1.022420 0
M  V30 39 H -1.275831 2.194323 0.694644 0
M  V30 40 H -3.052705 0.208046 -2.118457 0
M  V30 41 H -4.520830 -1.849748 -2.026228 0
M  V30 42 H -4.060893 -3.653901 -0.374927 0
M  V30 43 H -0.927487 -5.153432 3.430069 0
M  V30 END ATOM
M  V30 BEGIN BOND
M  V30 1 2 1 2
M  V30 2 1 2 3
M  V30 3 2 3 4
M  V30 4 1 4 5
M  V30 5 2 5 6
M  V30 6 1 6 7
M  V30 7 2 7 8
M  V30 8 1 8 9
M  V30 9 1 9 10
M  V30 10 1 10 11
M  V30 11 1 11 12
M  V30 12 1 12 13
M  V30 13 1 13 14
M  V30 14 1 14 15
M  V30 15 1 15 16
M  V30 16 1 16 17
M  V30 17 2 17 18
M  V30 18 1 18 19
M  V30 19 2 19 20
M  V30 20 1 20 21
M  V30 21 2 21 22
M  V30 22 1 22 23
M  V30 23 1 23 24
M  V30 24 2 23 25
M  V30 25 1 25 26
M  V30 26 2 26 27
M  V30 27 1 10 2
M  V30 28 1 27 17
M  V30 29 1 8 3
M  V30 30 1 27 21
M  V30 31 1 25 7
M  V30 32 1 4 28
M  V30 33 1 5 29
M  V30 34 1 6 30
M  V30 35 1 11 31
M  V30 36 1 11 32
M  V30 37 1 12 33
M  V30 38 1 12 34
M  V30 39 1 13 35
M  V30 40 1 14 36
M  V30 41 1 14 37
M  V30 42 1 15 38
M  V30 43 1 15 39
M  V30 44 1 18 40
M  V30 45 1 19 41
M  V30 46 1 20 42
M  V30 47 1 24 43
M  V30 END BOND
M  V30 END CTAB
M  END
>  <Dataset>  (755) 
ChEMBL_Kinases

>  <Ligand_Instance>  (755) 
nan

>  <PDB_ID>  (755) 
nan

>  <Standardized_SMILES>  (755) 
O=c1c2cccc3c2sn1CCNCCOc1cccc2nc(O)c-3nc12

>  <Name>  (755) 
nan

>  <Pocket>  (755) 
nan

>  <ATP_Site>  (755) 
nan

>  <Peripheral>  (755) 
nan

>  <Num_H_Atoms_ProtBoundConf>  (755) 
nan

>  <Num_Resolved_Atoms>  (755) 
nan

>  <Num_Not_Resolved_Atoms>  (755) 
nan

$$$$
CHEMBL494212
     RDKit          3D

  0  0  0  0  0  0  0  0  0  0999 V3000
M  V30 BEGIN CTAB
M  V30 COUNTS 36 41 0 0 0
M  V30 BEGIN ATOM
M  V30 1 O 4.190561 -0.619379 1.099959 0
M  V30 2 C 3.136604 -1.279518 1.175130 0
M  V30 3 N 3.225991 -2.621268 1.633047 0
M  V30 4 C 1.910871 -3.164285 1.633603 0
M  V30 5 O 1.769129 -4.341689 2.005323 0
M  V30 6 C 1.016392 -2.128379 1.167195 0
M  V30 7 C 1.751232 -1.000282 0.892947 0
M  V30 8 C 1.100224 0.103940 0.437140 0
M  V30 9 C 1.540082 1.347832 0.084096 0
M  V30 10 C 2.706948 2.041288 0.013299 0
M  V30 11 C 2.877850 3.341619 -0.395271 0
M  V30 12 C 1.736855 4.045858 -0.785214 0
M  V30 13 O 1.827423 5.362925 -1.210328 0
M  V30 14 C 0.522383 3.421121 -0.743751 0
M  V30 15 C 0.458172 2.091908 -0.311001 0
M  V30 16 N -0.668850 1.367395 -0.224437 0
M  V30 17 C -0.258011 0.159520 0.232963 0
M  V30 18 C -0.983700 -0.984428 0.513729 0
M  V30 19 N -2.330530 -1.184104 0.395909 0
M  V30 20 C -2.502222 -2.452682 0.793822 0
M  V30 21 C -3.714440 -3.133056 0.854075 0
M  V30 22 C -3.756505 -4.442975 1.283442 0
M  V30 23 N -2.571814 -5.022072 1.637784 0
M  V30 24 C -1.440862 -4.304180 1.553956 0
M  V30 25 C -1.296573 -3.018473 1.146607 0
M  V30 26 C -0.335060 -2.088861 0.969280 0
M  V30 27 H 4.120831 -3.132187 1.925119 0
M  V30 28 H 3.608641 1.558139 0.297102 0
M  V30 29 H 3.840238 3.831946 -0.426556 0
M  V30 30 H 1.658518 5.543198 -2.207069 0
M  V30 31 H -0.330634 3.980320 -1.046136 0
M  V30 32 H -1.649869 1.654598 -0.453970 0
M  V30 33 H -3.054301 -0.505305 0.071467 0
M  V30 34 H -4.649456 -2.700418 0.582528 0
M  V30 35 H -4.665142 -5.017748 1.350122 0
M  V30 36 H -0.577312 -4.837189 1.849075 0
M  V30 END ATOM
M  V30 BEGIN BOND
M  V30 1 2 1 2
M  V30 2 1 2 3
M  V30 3 1 3 4
M  V30 4 2 4 5
M  V30 5 1 4 6
M  V30 6 2 6 7
M  V30 7 1 7 8
M  V30 8 1 8 9
M  V30 9 2 9 10
M  V30 10 1 10 11
M  V30 11 2 11 12
M  V30 12 1 12 13
M  V30 13 1 12 14
M  V30 14 2 14 15
M  V30 15 1 15 16
M  V30 16 1 16 17
M  V30 17 1 17 18
M  V30 18 1 18 19
M  V30 19 1 19 20
M  V30 20 2 20 21
M  V30 21 1 21 22
M  V30 22 2 22 23
M  V30 23 1 23 24
M  V30 24 2 24 25
M  V30 25 1 25 26
M  V30 26 1 7 2
M  V30 27 2 17 8
M  V30 28 2 26 18
M  V30 29 1 26 6
M  V30 30 1 15 9
M  V30 31 1 25 20
M  V30 32 1 3 27
M  V30 33 1 10 28
M  V30 34 1 11 29
M  V30 35 1 13 30
M  V30 36 1 14 31
M  V30 37 1 16 32
M  V30 38 1 19 33
M  V30 39 1 21 34
M  V30 40 1 22 35
M  V30 41 1 24 36
M  V30 END BOND
M  V30 END CTAB
M  END
>  <Dataset>  (756) 
ChEMBL_Kinases

>  <Ligand_Instance>  (756) 
nan

>  <PDB_ID>  (756) 
nan

>  <Standardized_SMILES>  (756) 
O=C1NC(=O)c2c1c1c3ccc(O)cc3[nH]c1c1[nH]c3ccncc3c21

>  <Name>  (756) 
nan

>  <Pocket>  (756) 
nan

>  <ATP_Site>  (756) 
nan

>  <Peripheral>  (756) 
nan

>  <Num_H_Atoms_ProtBoundConf>  (756) 
nan

>  <Num_Resolved_Atoms>  (756) 
nan

>  <Num_Not_Resolved_Atoms>  (756) 
nan

$$$$
CHEMBL383926
     RDKit          3D

  0  0  0  0  0  0  0  0  0  0999 V3000
M  V30 BEGIN CTAB
M  V30 COUNTS 43 47 0 0 0
M  V30 BEGIN ATOM
M  V30 1 C 3.459208 -2.966306 3.227149 0
M  V30 2 C 2.507874 -2.237230 2.272496 0
M  V30 3 C 2.792259 -2.680417 0.880158 0
M  V30 4 C 3.767240 -3.602861 0.552413 0
M  V30 5 C 4.010060 -3.996414 -0.749170 0
M  V30 6 C 3.238402 -3.436204 -1.754778 0
M  V30 7 C 2.244230 -2.501907 -1.467552 0
M  V30 8 C 2.024130 -2.125852 -0.143827 0
M  V30 9 C 0.979180 -1.146406 0.138979 0
M  V30 10 C 1.335049 0.186832 0.141620 0
M  V30 11 C 0.363769 1.128052 0.406303 0
M  V30 12 N 0.434633 2.469725 0.470722 0
M  V30 13 C -0.818655 2.925561 0.767215 0
M  V30 14 C -1.197152 4.242694 0.926786 0
M  V30 15 C -2.506750 4.553972 1.226811 0
M  V30 16 C -3.414703 3.497027 1.359254 0
M  V30 17 O -4.732776 3.817816 1.661668 0
M  V30 18 C -2.967075 2.207958 1.186485 0
M  V30 19 C -1.683715 1.860907 0.889979 0
M  V30 20 C -0.933289 0.745622 0.662442 0
M  V30 21 C -1.265637 -0.555063 0.656677 0
M  V30 22 C -0.330028 -1.504595 0.399169 0
M  V30 23 C -0.856274 -2.864070 0.431596 0
M  V30 24 O -0.247368 -3.949512 0.236252 0
M  V30 25 N -2.251858 -2.677520 0.742690 0
M  V30 26 C -2.483987 -1.285947 0.875205 0
M  V30 27 O -3.650837 -0.969938 1.144810 0
M  V30 28 H 3.250384 -4.060566 3.065537 0
M  V30 29 H 4.514842 -2.726842 3.028002 0
M  V30 30 H 3.153578 -2.755617 4.269303 0
M  V30 31 H 2.593851 -1.136722 2.389158 0
M  V30 32 H 1.490241 -2.605952 2.554302 0
M  V30 33 H 4.361281 -4.030380 1.354477 0
M  V30 34 H 4.795182 -4.729373 -0.939605 0
M  V30 35 H 3.446954 -3.761258 -2.776201 0
M  V30 36 H 1.679389 -2.103251 -2.288667 0
M  V30 37 H 2.353218 0.467752 -0.060589 0
M  V30 38 H 1.309229 3.018572 0.315284 0
M  V30 39 H -0.490437 5.043295 0.822385 0
M  V30 40 H -2.767155 5.596298 1.344674 0
M  V30 41 H -4.945054 4.310458 2.539351 0
M  V30 42 H -3.714244 1.486609 1.304281 0
M  V30 43 H -2.872220 -3.528332 0.825547 0
M  V30 END ATOM
M  V30 BEGIN BOND
M  V30 1 1 1 2
M  V30 2 1 2 3
M  V30 3 2 3 4
M  V30 4 1 4 5
M  V30 5 2 5 6
M  V30 6 1 6 7
M  V30 7 2 7 8
M  V30 8 1 8 9
M  V30 9 2 9 10
M  V30 10 1 10 11
M  V30 11 1 11 12
M  V30 12 1 12 13
M  V30 13 2 13 14
M  V30 14 1 14 15
M  V30 15 2 15 16
M  V30 16 1 16 17
M  V30 17 1 16 18
M  V30 18 2 18 19
M  V30 19 1 19 20
M  V30 20 1 20 21
M  V30 21 2 21 22
M  V30 22 1 22 23
M  V30 23 2 23 24
M  V30 24 1 23 25
M  V30 25 1 25 26
M  V30 26 2 26 27
M  V30 27 1 8 3
M  V30 28 1 22 9
M  V30 29 2 20 11
M  V30 30 1 26 21
M  V30 31 1 19 13
M  V30 32 1 1 28
M  V30 33 1 1 29
M  V30 34 1 1 30
M  V30 35 1 2 31
M  V30 36 1 2 32
M  V30 37 1 4 33
M  V30 38 1 5 34
M  V30 39 1 6 35
M  V30 40 1 7 36
M  V30 41 1 10 37
M  V30 42 1 12 38
M  V30 43 1 14 39
M  V30 44 1 15 40
M  V30 45 1 17 41
M  V30 46 1 18 42
M  V30 47 1 25 43
M  V30 END BOND
M  V30 END CTAB
M  END
>  <Dataset>  (757) 
ChEMBL_Kinases

>  <Ligand_Instance>  (757) 
nan

>  <PDB_ID>  (757) 
nan

>  <Standardized_SMILES>  (757) 
CCc1ccccc1-c1cc2[nH]c3ccc(O)cc3c2c2c1C(=O)NC2=O

>  <Name>  (757) 
nan

>  <Pocket>  (757) 
nan

>  <ATP_Site>  (757) 
nan

>  <Peripheral>  (757) 
nan

>  <Num_H_Atoms_ProtBoundConf>  (757) 
nan

>  <Num_Resolved_Atoms>  (757) 
nan

>  <Num_Not_Resolved_Atoms>  (757) 
nan

$$$$
CHEMBL383899
     RDKit          3D

  0  0  0  0  0  0  0  0  0  0999 V3000
M  V30 BEGIN CTAB
M  V30 COUNTS 48 51 0 0 0
M  V30 BEGIN ATOM
M  V30 1 O -0.242622 -1.819647 3.280381 0
M  V30 2 C 0.076119 -2.328194 4.389225 0
M  V30 3 N 1.458263 -2.114302 4.726062 0
M  V30 4 C 1.824781 -1.378356 3.528832 0
M  V30 5 C 2.354158 -2.182372 2.528071 0
M  V30 6 C 2.698139 -1.574920 1.335427 0
M  V30 7 C 2.481521 -0.215790 1.247784 0
M  V30 8 C 1.963037 0.612903 2.208639 0
M  V30 9 N 1.736194 2.007633 2.047047 0
M  V30 10 C 1.963467 2.409453 0.680546 0
M  V30 11 N 3.030159 2.932315 0.061196 0
M  V30 12 C 2.972505 3.198632 -1.271637 0
M  V30 13 C 1.841564 2.944822 -2.014410 0
M  V30 14 C 0.743819 2.405771 -1.374506 0
M  V30 15 N -0.490571 2.082559 -2.042927 0
M  V30 16 C -0.843507 0.700856 -2.163993 0
M  V30 17 C -0.066243 -0.326328 -1.682182 0
M  V30 18 C -0.470074 -1.635893 -1.814306 0
M  V30 19 C -1.646968 -1.984455 -2.422997 0
M  V30 20 C -2.441999 -0.989337 -2.912309 0
M  V30 21 C -3.706966 -1.425953 -3.558998 0
M  V30 22 F -4.421617 -2.116157 -2.587969 0
M  V30 23 F -4.445236 -0.386815 -4.024188 0
M  V30 24 F -3.430082 -2.362943 -4.564273 0
M  V30 25 C -2.025611 0.315673 -2.773094 0
M  V30 26 N 0.880090 2.173460 -0.061370 0
M  V30 27 C 1.630219 -0.035587 3.398399 0
M  V30 28 C -1.009786 -3.039484 5.132209 0
M  V30 29 C -2.387590 -2.437482 5.101220 0
M  V30 30 C -2.120241 -3.618141 4.240154 0
M  V30 31 H 1.718714 -2.523825 5.640463 0
M  V30 32 H 2.529555 -3.253726 2.582608 0
M  V30 33 H 3.121515 -2.129936 0.487653 0
M  V30 34 H 2.764914 0.226768 0.294778 0
M  V30 35 H 1.450747 2.568219 2.860467 0
M  V30 36 H 3.884465 3.619257 -1.666770 0
M  V30 37 H 1.814100 3.157555 -3.069001 0
M  V30 38 H -1.162962 2.783717 -2.457070 0
M  V30 39 H 0.858237 0.007936 -1.208229 0
M  V30 40 H 0.227043 -2.345205 -1.398246 0
M  V30 41 H -1.906255 -3.032420 -2.492919 0
M  V30 42 H -2.694654 1.067782 -3.171794 0
M  V30 43 H 1.211428 0.524037 4.240508 0
M  V30 44 H -0.807746 -3.569218 6.076218 0
M  V30 45 H -2.531230 -1.445413 4.633746 0
M  V30 46 H -3.090238 -2.644855 5.929134 0
M  V30 47 H -2.021735 -3.380824 3.138743 0
M  V30 48 H -2.526796 -4.608977 4.438406 0
M  V30 END ATOM
M  V30 BEGIN BOND
M  V30 1 2 1 2
M  V30 2 1 2 3
M  V30 3 1 3 4
M  V30 4 2 4 5
M  V30 5 1 5 6
M  V30 6 2 6 7
M  V30 7 1 7 8
M  V30 8 1 8 9
M  V30 9 1 9 10
M  V30 10 2 10 11
M  V30 11 1 11 12
M  V30 12 2 12 13
M  V30 13 1 13 14
M  V30 14 1 14 15
M  V30 15 1 15 16
M  V30 16 2 16 17
M  V30 17 1 17 18
M  V30 18 2 18 19
M  V30 19 1 19 20
M  V30 20 1 20 21
M  V30 21 1 21 22
M  V30 22 1 21 23
M  V30 23 1 21 24
M  V30 24 2 20 25
M  V30 25 2 14 26
M  V30 26 2 8 27
M  V30 27 1 2 28
M  V30 28 1 28 29
M  V30 29 1 29 30
M  V30 30 1 27 4
M  V30 31 1 30 28
M  V30 32 1 26 10
M  V30 33 1 25 16
M  V30 34 1 3 31
M  V30 35 1 5 32
M  V30 36 1 6 33
M  V30 37 1 7 34
M  V30 38 1 9 35
M  V30 39 1 12 36
M  V30 40 1 13 37
M  V30 41 1 15 38
M  V30 42 1 17 39
M  V30 43 1 18 40
M  V30 44 1 19 41
M  V30 45 1 25 42
M  V30 46 1 27 43
M  V30 47 1 28 44
M  V30 48 1 29 45
M  V30 49 1 29 46
M  V30 50 1 30 47
M  V30 51 1 30 48
M  V30 END BOND
M  V30 END CTAB
M  END
>  <Dataset>  (758) 
ChEMBL_Kinases

>  <Ligand_Instance>  (758) 
nan

>  <PDB_ID>  (758) 
nan

>  <Standardized_SMILES>  (758) 
O=C(Nc1cccc(Nc2nccc(Nc3cccc(C(F)(F)F)c3)n2)c1)C1CC1

>  <Name>  (758) 
ANILINOPYRIMIDINE1

>  <Pocket>  (758) 
nan

>  <ATP_Site>  (758) 
nan

>  <Peripheral>  (758) 
nan

>  <Num_H_Atoms_ProtBoundConf>  (758) 
nan

>  <Num_Resolved_Atoms>  (758) 
nan

>  <Num_Not_Resolved_Atoms>  (758) 
nan

$$$$
CHEMBL593704
     RDKit          3D

  0  0  0  0  0  0  0  0  0  0999 V3000
M  V30 BEGIN CTAB
M  V30 COUNTS 37 40 0 0 0
M  V30 BEGIN ATOM
M  V30 1 C 2.078567 -3.072954 1.848336 0
M  V30 2 N 0.811973 -2.389853 2.142827 0
M  V30 3 C 0.329496 -1.318678 1.476660 0
M  V30 4 C 0.953319 -0.649200 0.366615 0
M  V30 5 C 2.190012 -0.028227 0.409279 0
M  V30 6 C 2.691587 0.584848 -0.720072 0
M  V30 7 C 1.996659 0.602800 -1.908674 0
M  V30 8 N 2.477514 1.199849 -3.020921 0
M  V30 9 C 1.761513 1.197078 -4.178012 0
M  V30 10 C 0.525265 0.574096 -4.213848 0
M  V30 11 N 0.033654 -0.029202 -3.099255 0
M  V30 12 C 0.750988 -0.023442 -1.949364 0
M  V30 13 C 0.232899 -0.642245 -0.828697 0
M  V30 14 C -0.870680 -1.017846 2.088453 0
M  V30 15 C -1.758925 0.052982 1.722315 0
M  V30 16 C -1.339813 1.308827 1.811347 0
M  V30 17 C -1.966229 2.485307 1.532600 0
M  V30 18 C -3.350680 2.120594 1.058028 0
M  V30 19 S -3.437527 0.216589 1.117966 0
M  V30 20 C -1.098231 -1.909691 3.115473 0
M  V30 21 O -2.064163 -1.998403 3.925489 0
M  V30 22 N -0.030782 -2.731486 3.103261 0
M  V30 23 C 0.205418 -3.859157 4.007838 0
M  V30 24 H 2.777414 -3.013422 2.690559 0
M  V30 25 H 1.776463 -4.143629 1.689085 0
M  V30 26 H 2.479131 -2.684317 0.911164 0
M  V30 27 H 2.710744 -0.059273 1.356079 0
M  V30 28 H 3.646405 1.060805 -0.674951 0
M  V30 29 H 2.155992 1.682607 -5.076957 0
M  V30 30 H -0.046992 0.575298 -5.148196 0
M  V30 31 H -0.742409 -1.116713 -0.910364 0
M  V30 32 H -0.381592 1.756038 2.130378 0
M  V30 33 H -2.298317 3.482752 1.366925 0
M  V30 34 H -4.478002 2.295934 0.648251 0
M  V30 35 H 1.171035 -3.753958 4.545348 0
M  V30 36 H 0.311192 -4.757974 3.360707 0
M  V30 37 H -0.605245 -3.953160 4.747297 0
M  V30 END ATOM
M  V30 BEGIN BOND
M  V30 1 1 1 2
M  V30 2 1 2 3
M  V30 3 1 3 4
M  V30 4 2 4 5
M  V30 5 1 5 6
M  V30 6 2 6 7
M  V30 7 1 7 8
M  V30 8 2 8 9
M  V30 9 1 9 10
M  V30 10 2 10 11
M  V30 11 1 11 12
M  V30 12 2 12 13
M  V30 13 2 3 14
M  V30 14 1 14 15
M  V30 15 2 15 16
M  V30 16 1 16 17
M  V30 17 2 17 18
M  V30 18 1 18 19
M  V30 19 1 14 20
M  V30 20 2 20 21
M  V30 21 1 20 22
M  V30 22 1 22 23
M  V30 23 1 22 2
M  V30 24 1 13 4
M  V30 25 1 19 15
M  V30 26 1 12 7
M  V30 27 1 1 24
M  V30 28 1 1 25
M  V30 29 1 1 26
M  V30 30 1 5 27
M  V30 31 1 6 28
M  V30 32 1 9 29
M  V30 33 1 10 30
M  V30 34 1 13 31
M  V30 35 1 16 32
M  V30 36 1 17 33
M  V30 37 1 18 34
M  V30 38 1 23 35
M  V30 39 1 23 36
M  V30 40 1 23 37
M  V30 END BOND
M  V30 END CTAB
M  END
>  <Dataset>  (759) 
ChEMBL_Kinases

>  <Ligand_Instance>  (759) 
nan

>  <PDB_ID>  (759) 
nan

>  <Standardized_SMILES>  (759) 
Cn1c(-c2ccc3nccnc3c2)c(-c2cccs2)c(=O)n1C

>  <Name>  (759) 
nan

>  <Pocket>  (759) 
nan

>  <ATP_Site>  (759) 
nan

>  <Peripheral>  (759) 
nan

>  <Num_H_Atoms_ProtBoundConf>  (759) 
nan

>  <Num_Resolved_Atoms>  (759) 
nan

>  <Num_Not_Resolved_Atoms>  (759) 
nan

$$$$
CHEMBL383858
     RDKit          3D

  0  0  0  0  0  0  0  0  0  0999 V3000
M  V30 BEGIN CTAB
M  V30 COUNTS 54 57 0 0 0
M  V30 BEGIN ATOM
M  V30 1 C -0.275860 -1.379321 4.467638 0
M  V30 2 N 0.238010 -1.662985 3.154648 0
M  V30 3 C 1.652912 -1.734984 3.050122 0
M  V30 4 C 2.373437 -0.454240 2.791867 0
M  V30 5 N 1.637572 0.497191 1.986605 0
M  V30 6 N 1.844983 1.288442 0.885381 0
M  V30 7 C 2.678172 0.950435 -0.028310 0
M  V30 8 N 3.457212 -0.235267 -0.008063 0
M  V30 9 C 2.755314 1.884041 -1.142152 0
M  V30 10 C 3.936811 2.047327 -1.813660 0
M  V30 11 O 5.168705 1.453377 -1.597991 0
M  V30 12 N 4.069555 2.904823 -2.895590 0
M  V30 13 S 2.347417 3.611731 -3.050248 0
M  V30 14 C 1.697404 2.665589 -1.652102 0
M  V30 15 N 0.445448 2.598924 -1.040838 0
M  V30 16 C -0.313304 1.405968 -1.191125 0
M  V30 17 C -1.493242 1.288962 -0.500805 0
M  V30 18 C -2.253375 0.148311 -0.595385 0
M  V30 19 C -1.886785 -0.926122 -1.372140 0
M  V30 20 O -2.444646 -2.141165 -1.626172 0
M  V30 21 C -3.157986 -2.976849 -0.839701 0
M  V30 22 C -3.548911 -2.926332 0.479851 0
M  V30 23 C -4.289772 -3.886296 1.130349 0
M  V30 24 Cl -4.674782 -3.617447 2.817682 0
M  V30 25 C -4.679155 -4.986644 0.428725 0
M  V30 26 C -4.324151 -5.115681 -0.913432 0
M  V30 27 C -3.575359 -4.123937 -1.532449 0
M  V30 28 Cl -3.247559 -4.504894 -3.228120 0
M  V30 29 C -0.678569 -0.777536 -2.065377 0
M  V30 30 C 0.115913 0.369437 -1.989591 0
M  V30 31 C 0.296463 0.615513 2.528385 0
M  V30 32 C -0.341404 -0.744771 2.198496 0
M  V30 33 H -0.720671 -2.255414 4.976384 0
M  V30 34 H -1.097380 -0.627308 4.385449 0
M  V30 35 H 0.551476 -0.923766 5.082703 0
M  V30 36 H 1.918851 -2.491280 2.275819 0
M  V30 37 H 2.022598 -2.171715 4.025002 0
M  V30 38 H 3.388814 -0.649086 2.444706 0
M  V30 39 H 2.493353 0.050550 3.792017 0
M  V30 40 H 3.015032 -0.769733 -0.779197 0
M  V30 41 H 4.147981 -0.981291 0.201277 0
M  V30 42 H 5.402741 0.580227 -2.076064 0
M  V30 43 H 0.083960 3.401381 -0.492657 0
M  V30 44 H -1.922297 2.042258 0.152669 0
M  V30 45 H -3.179048 0.007604 -0.089364 0
M  V30 46 H -3.224304 -2.060133 1.001569 0
M  V30 47 H -5.263614 -5.711942 0.997369 0
M  V30 48 H -4.679364 -6.013052 -1.365391 0
M  V30 49 H -0.224070 -1.523431 -2.732906 0
M  V30 50 H 1.043276 0.497188 -2.514735 0
M  V30 51 H 0.334457 0.737967 3.631182 0
M  V30 52 H -0.295907 1.438396 2.129319 0
M  V30 53 H -1.416703 -0.622783 2.331780 0
M  V30 54 H -0.018688 -1.013691 1.195270 0
M  V30 END ATOM
M  V30 BEGIN BOND
M  V30 1 1 1 2
M  V30 2 1 2 3
M  V30 3 1 3 4
M  V30 4 1 4 5
M  V30 5 1 5 6
M  V30 6 2 6 7
M  V30 7 1 7 8
M  V30 8 1 7 9
M  V30 9 1 9 10
M  V30 10 1 10 11
M  V30 11 2 10 12
M  V30 12 1 12 13
M  V30 13 1 13 14
M  V30 14 1 14 15
M  V30 15 1 15 16
M  V30 16 2 16 17
M  V30 17 1 17 18
M  V30 18 2 18 19
M  V30 19 1 19 20
M  V30 20 1 20 21
M  V30 21 2 21 22
M  V30 22 1 22 23
M  V30 23 1 23 24
M  V30 24 2 23 25
M  V30 25 1 25 26
M  V30 26 2 26 27
M  V30 27 1 27 28
M  V30 28 1 19 29
M  V30 29 2 29 30
M  V30 30 1 5 31
M  V30 31 1 31 32
M  V30 32 1 32 2
M  V30 33 2 14 9
M  V30 34 1 30 16
M  V30 35 1 27 21
M  V30 36 1 1 33
M  V30 37 1 1 34
M  V30 38 1 1 35
M  V30 39 1 3 36
M  V30 40 1 3 37
M  V30 41 1 4 38
M  V30 42 1 4 39
M  V30 43 1 8 40
M  V30 44 1 8 41
M  V30 45 1 11 42
M  V30 46 1 15 43
M  V30 47 1 17 44
M  V30 48 1 18 45
M  V30 49 1 22 46
M  V30 50 1 25 47
M  V30 51 1 26 48
M  V30 52 1 29 49
M  V30 53 1 30 50
M  V30 54 1 31 51
M  V30 55 1 31 52
M  V30 56 1 32 53
M  V30 57 1 32 54
M  V30 END BOND
M  V30 END CTAB
M  END
>  <Dataset>  (760) 
ChEMBL_Kinases

>  <Ligand_Instance>  (760) 
nan

>  <PDB_ID>  (760) 
nan

>  <Standardized_SMILES>  (760) 
CN1CCN(/N=C(\N)c2c(O)nsc2Nc2ccc(Oc3cc(Cl)ccc3Cl)cc2)CC1

>  <Name>  (760) 
nan

>  <Pocket>  (760) 
nan

>  <ATP_Site>  (760) 
nan

>  <Peripheral>  (760) 
nan

>  <Num_H_Atoms_ProtBoundConf>  (760) 
nan

>  <Num_Resolved_Atoms>  (760) 
nan

>  <Num_Not_Resolved_Atoms>  (760) 
nan

$$$$
CHEMBL383615
     RDKit          3D

  0  0  0  0  0  0  0  0  0  0999 V3000
M  V30 BEGIN CTAB
M  V30 COUNTS 68 68 0 0 0
M  V30 BEGIN ATOM
M  V30 1 C -0.599522 -1.724625 4.001483 0
M  V30 2 C 0.850586 -2.183104 4.156254 0
M  V30 3 C 1.771707 -1.035767 3.831774 0
M  V30 4 C 3.222248 -1.457177 3.995967 0
M  V30 5 C 4.114591 -0.292340 3.684584 0
M  V30 6 C 3.985657 0.195878 2.310672 0
M  V30 7 O 4.148071 -0.717316 1.499409 0
M  V30 8 O 3.722539 1.508489 2.084549 0
M  V30 9 C 3.588530 2.123525 0.869226 0
M  V30 10 C 2.478810 1.626673 0.032909 0
M  V30 11 C 2.410446 2.414013 -1.281220 0
M  V30 12 O 1.374060 2.007172 -2.091718 0
M  V30 13 C 1.101436 1.674101 0.669056 0
M  V30 14 C 0.375898 0.750750 -0.296443 0
M  V30 15 C -0.768338 0.759293 -0.987529 0
M  V30 16 C -1.177226 -0.330080 -1.860922 0
M  V30 17 C -2.486282 -0.983040 -1.697981 0
M  V30 18 C -2.638978 -2.087878 -2.742153 0
M  V30 19 C -1.626160 -3.158901 -2.714972 0
M  V30 20 C -1.977548 -4.134123 -3.864269 0
M  V30 21 C -1.519166 -4.005606 -1.502896 0
M  V30 22 C -3.055798 -1.397619 -0.423211 0
M  V30 23 C -3.377555 -0.428740 0.643198 0
M  V30 24 C -4.349652 0.668897 0.253122 0
M  V30 25 C -2.305863 0.054311 1.545753 0
M  V30 26 C 1.370634 -0.351235 -0.299344 0
M  V30 27 O 1.059342 -1.595591 -0.336244 0
M  V30 28 O 2.646301 0.255908 -0.254225 0
M  V30 29 H -1.129410 -1.860777 4.966432 0
M  V30 30 H -1.136695 -2.270404 3.206379 0
M  V30 31 H -0.585922 -0.644010 3.764822 0
M  V30 32 H 1.056232 -2.982334 3.414892 0
M  V30 33 H 0.989075 -2.561158 5.182579 0
M  V30 34 H 1.593455 -0.147690 4.441337 0
M  V30 35 H 1.584896 -0.783450 2.752321 0
M  V30 36 H 3.449959 -2.293952 3.280179 0
M  V30 37 H 3.382564 -1.866390 4.993417 0
M  V30 38 H 3.920686 0.514895 4.449557 0
M  V30 39 H 5.174367 -0.645780 3.853922 0
M  V30 40 H 4.535115 1.956558 0.240433 0
M  V30 41 H 3.581036 3.244890 0.942026 0
M  V30 42 H 2.324997 3.486781 -1.102018 0
M  V30 43 H 3.366447 2.243776 -1.825216 0
M  V30 44 H 0.825136 2.735645 -2.471486 0
M  V30 45 H 0.702537 2.698562 0.562612 0
M  V30 46 H 1.063601 1.307708 1.693553 0
M  V30 47 H -1.328659 1.659347 -0.808911 0
M  V30 48 H -1.195474 0.158665 -2.908793 0
M  V30 49 H -0.360326 -1.106497 -1.903316 0
M  V30 50 H -3.224593 -0.173891 -2.173685 0
M  V30 51 H -3.632413 -2.554007 -2.540579 0
M  V30 52 H -2.741509 -1.657325 -3.763615 0
M  V30 53 H -0.595685 -2.824297 -2.973105 0
M  V30 54 H -1.048685 -4.678131 -4.168515 0
M  V30 55 H -2.426614 -3.603688 -4.703484 0
M  V30 56 H -2.680164 -4.910296 -3.508143 0
M  V30 57 H -1.167370 -5.039627 -1.827728 0
M  V30 58 H -0.781677 -3.681785 -0.744063 0
M  V30 59 H -2.483824 -4.186780 -1.037122 0
M  V30 60 H -3.948686 -2.062335 -0.598183 0
M  V30 61 H -2.300803 -2.113539 0.054165 0
M  V30 62 H -4.057832 -1.059660 1.369763 0
M  V30 63 H -5.235983 0.277319 -0.251142 0
M  V30 64 H -4.711398 1.157145 1.183018 0
M  V30 65 H -3.822276 1.465614 -0.310735 0
M  V30 66 H -2.594722 -0.057420 2.647116 0
M  V30 67 H -1.442713 -0.618114 1.447038 0
M  V30 68 H -2.072661 1.139702 1.484214 0
M  V30 END ATOM
M  V30 BEGIN BOND
M  V30 1 1 1 2
M  V30 2 1 2 3
M  V30 3 1 3 4
M  V30 4 1 4 5
M  V30 5 1 5 6
M  V30 6 2 6 7
M  V30 7 1 6 8
M  V30 8 1 8 9
M  V30 9 1 9 10
M  V30 10 1 10 11
M  V30 11 1 11 12
M  V30 12 1 10 13
M  V30 13 1 13 14
M  V30 14 2 14 15
M  V30 15 1 15 16
M  V30 16 1 16 17
M  V30 17 1 17 18
M  V30 18 1 18 19
M  V30 19 1 19 20
M  V30 20 1 19 21
M  V30 21 1 17 22
M  V30 22 1 22 23
M  V30 23 1 23 24
M  V30 24 1 23 25
M  V30 25 1 14 26
M  V30 26 2 26 27
M  V30 27 1 26 28
M  V30 28 1 28 10
M  V30 29 1 1 29
M  V30 30 1 1 30
M  V30 31 1 1 31
M  V30 32 1 2 32
M  V30 33 1 2 33
M  V30 34 1 3 34
M  V30 35 1 3 35
M  V30 36 1 4 36
M  V30 37 1 4 37
M  V30 38 1 5 38
M  V30 39 1 5 39
M  V30 40 1 9 40
M  V30 41 1 9 41
M  V30 42 1 11 42
M  V30 43 1 11 43
M  V30 44 1 12 44
M  V30 45 1 13 45
M  V30 46 1 13 46
M  V30 47 1 15 47
M  V30 48 1 16 48
M  V30 49 1 16 49
M  V30 50 1 17 50
M  V30 51 1 18 51
M  V30 52 1 18 52
M  V30 53 1 19 53
M  V30 54 1 20 54
M  V30 55 1 20 55
M  V30 56 1 20 56
M  V30 57 1 21 57
M  V30 58 1 21 58
M  V30 59 1 21 59
M  V30 60 1 22 60
M  V30 61 1 22 61
M  V30 62 1 23 62
M  V30 63 1 24 63
M  V30 64 1 24 64
M  V30 65 1 24 65
M  V30 66 1 25 66
M  V30 67 1 25 67
M  V30 68 1 25 68
M  V30 END BOND
M  V30 END CTAB
M  END
>  <Dataset>  (761) 
ChEMBL_Kinases

>  <Ligand_Instance>  (761) 
nan

>  <PDB_ID>  (761) 
nan

>  <Standardized_SMILES>  (761) 
CCCCCC(=O)OCC1(CO)C/C(=C/CC(CC(C)C)CC(C)C)C(=O)O1

>  <Name>  (761) 
nan

>  <Pocket>  (761) 
nan

>  <ATP_Site>  (761) 
nan

>  <Peripheral>  (761) 
nan

>  <Num_H_Atoms_ProtBoundConf>  (761) 
nan

>  <Num_Resolved_Atoms>  (761) 
nan

>  <Num_Not_Resolved_Atoms>  (761) 
nan

$$$$
CHEMBL494237
     RDKit          3D

  0  0  0  0  0  0  0  0  0  0999 V3000
M  V30 BEGIN CTAB
M  V30 COUNTS 45 48 0 0 0
M  V30 BEGIN ATOM
M  V30 1 C -3.635480 -3.887598 -1.385816 0
M  V30 2 O -2.459351 -4.065428 -0.609507 0
M  V30 3 C -1.454791 -3.108586 -0.780794 0
M  V30 4 C -1.648472 -2.069989 -1.668172 0
M  V30 5 C -0.690398 -1.098742 -1.875707 0
M  V30 6 C 0.503259 -1.151688 -1.183817 0
M  V30 7 C 1.657248 -0.283906 -1.218052 0
M  V30 8 C 2.090636 0.023669 -2.481968 0
M  V30 9 N 3.163213 0.810245 -2.678981 0
M  V30 10 C 3.805902 1.291816 -1.600275 0
M  V30 11 C 3.364517 0.978767 -0.315516 0
M  V30 12 C 4.099333 1.522420 0.775699 0
M  V30 13 N 4.705094 1.955368 1.639962 0
M  V30 14 C 2.271161 0.177989 -0.055906 0
M  V30 15 O 1.804791 -0.151650 1.182286 0
M  V30 16 C 0.893812 0.525904 1.953829 0
M  V30 17 C -0.473875 0.350960 1.910131 0
M  V30 18 C -1.398868 1.024394 2.679354 0
M  V30 19 C -0.946049 1.963105 3.582387 0
M  V30 20 N -1.585224 2.764579 4.452978 0
M  V30 21 C -0.699671 3.519457 5.128542 0
M  V30 22 C 0.545571 3.165452 4.650524 0
M  V30 23 C 0.409164 2.197525 3.687302 0
M  V30 24 C 1.284380 1.490571 2.889144 0
M  V30 25 C 0.714627 -2.200486 -0.279093 0
M  V30 26 C -0.267925 -3.178255 -0.080017 0
M  V30 27 O -0.108643 -4.236424 0.803325 0
M  V30 28 C 1.038355 -4.444121 1.586168 0
M  V30 29 H -4.118429 -2.912621 -1.243345 0
M  V30 30 H -4.306370 -4.759528 -1.334122 0
M  V30 31 H -3.256868 -3.870398 -2.449983 0
M  V30 32 H -2.568099 -1.953414 -2.258273 0
M  V30 33 H -0.729974 -0.251975 -2.534533 0
M  V30 34 H 1.625862 -0.325743 -3.388240 0
M  V30 35 H 4.671992 1.926742 -1.754734 0
M  V30 36 H -0.895734 -0.359367 1.233559 0
M  V30 37 H -2.456268 0.852735 2.608873 0
M  V30 38 H -2.625866 2.803546 4.593311 0
M  V30 39 H -0.934890 4.254463 5.892879 0
M  V30 40 H 1.500112 3.570205 4.966176 0
M  V30 41 H 2.305269 1.735856 3.039381 0
M  V30 42 H 1.597982 -2.377118 0.336383 0
M  V30 43 H 1.103427 -3.748551 2.451569 0
M  V30 44 H 1.936881 -4.333774 0.948754 0
M  V30 45 H 0.997489 -5.509408 1.904481 0
M  V30 END ATOM
M  V30 BEGIN BOND
M  V30 1 1 1 2
M  V30 2 1 2 3
M  V30 3 2 3 4
M  V30 4 1 4 5
M  V30 5 2 5 6
M  V30 6 1 6 7
M  V30 7 2 7 8
M  V30 8 1 8 9
M  V30 9 2 9 10
M  V30 10 1 10 11
M  V30 11 1 11 12
M  V30 12 3 12 13
M  V30 13 2 11 14
M  V30 14 1 14 15
M  V30 15 1 15 16
M  V30 16 2 16 17
M  V30 17 1 17 18
M  V30 18 2 18 19
M  V30 19 1 19 20
M  V30 20 1 20 21
M  V30 21 2 21 22
M  V30 22 1 22 23
M  V30 23 2 23 24
M  V30 24 1 6 25
M  V30 25 2 25 26
M  V30 26 1 26 27
M  V30 27 1 27 28
M  V30 28 1 26 3
M  V30 29 1 14 7
M  V30 30 1 24 16
M  V30 31 1 23 19
M  V30 32 1 1 29
M  V30 33 1 1 30
M  V30 34 1 1 31
M  V30 35 1 4 32
M  V30 36 1 5 33
M  V30 37 1 8 34
M  V30 38 1 10 35
M  V30 39 1 17 36
M  V30 40 1 18 37
M  V30 41 1 20 38
M  V30 42 1 21 39
M  V30 43 1 22 40
M  V30 44 1 24 41
M  V30 45 1 25 42
M  V30 46 1 28 43
M  V30 47 1 28 44
M  V30 48 1 28 45
M  V30 END BOND
M  V30 END CTAB
M  END
>  <Dataset>  (762) 
ChEMBL_Kinases

>  <Ligand_Instance>  (762) 
nan

>  <PDB_ID>  (762) 
nan

>  <Standardized_SMILES>  (762) 
COc1ccc(-c2cncc(C#N)c2Oc2ccc3[nH]ccc3c2)cc1OC

>  <Name>  (762) 
nan

>  <Pocket>  (762) 
nan

>  <ATP_Site>  (762) 
nan

>  <Peripheral>  (762) 
nan

>  <Num_H_Atoms_ProtBoundConf>  (762) 
nan

>  <Num_Resolved_Atoms>  (762) 
nan

>  <Num_Not_Resolved_Atoms>  (762) 
nan

$$$$
CHEMBL494238
     RDKit          3D

  0  0  0  0  0  0  0  0  0  0999 V3000
M  V30 BEGIN CTAB
M  V30 COUNTS 44 47 0 0 0
M  V30 BEGIN ATOM
M  V30 1 C 0.859189 -4.528775 3.844505 0
M  V30 2 O 0.768974 -4.278001 2.457895 0
M  V30 3 C 1.172961 -3.090040 1.871886 0
M  V30 4 C 1.704807 -2.050308 2.628231 0
M  V30 5 C 2.105411 -0.870517 2.032439 0
M  V30 6 C 1.954031 -0.768688 0.650550 0
M  V30 7 C 2.395378 0.499738 0.078913 0
M  V30 8 C 3.747161 0.781823 -0.092480 0
M  V30 9 N 4.107434 1.976569 -0.631564 0
M  V30 10 C 3.196151 2.889590 -1.001120 0
M  V30 11 C 1.853109 2.688542 -0.865245 0
M  V30 12 C 0.876087 3.661888 -1.261339 0
M  V30 13 N 0.114992 4.442958 -1.582575 0
M  V30 14 C 1.493697 1.472275 -0.316954 0
M  V30 15 C 0.066491 1.145178 -0.117150 0
M  V30 16 C -0.770510 0.355331 -0.874102 0
M  V30 17 C -2.079619 0.185079 -0.477075 0
M  V30 18 C -2.546621 0.791722 0.656528 0
M  V30 19 N -3.776350 0.759321 1.225028 0
M  V30 20 C -3.746694 1.518500 2.340255 0
M  V30 21 C -2.489919 2.031307 2.472568 0
M  V30 22 C -1.697848 1.589921 1.420135 0
M  V30 23 C -0.363487 1.776545 1.035105 0
M  V30 24 C 1.425416 -1.805767 -0.088232 0
M  V30 25 C 1.025670 -2.981888 0.498901 0
M  V30 26 O 0.491920 -4.044606 -0.221625 0
M  V30 27 C 0.360761 -3.885827 -1.618555 0
M  V30 28 H 1.880238 -4.499102 4.232420 0
M  V30 29 H 0.412757 -5.515464 4.052342 0
M  V30 30 H 0.238224 -3.786619 4.416605 0
M  V30 31 H 1.771832 -2.254556 3.704129 0
M  V30 32 H 2.508076 -0.120358 2.699055 0
M  V30 33 H 4.414374 -0.009023 0.234896 0
M  V30 34 H 3.538092 3.837647 -1.432081 0
M  V30 35 H -0.280466 -0.055595 -1.730965 0
M  V30 36 H -2.682092 -0.453865 -1.129878 0
M  V30 37 H -4.628499 0.253624 0.899406 0
M  V30 38 H -4.538260 1.733606 3.058920 0
M  V30 39 H -2.135423 2.684141 3.267115 0
M  V30 40 H 0.159849 2.409141 1.716946 0
M  V30 41 H 1.337235 -1.665828 -1.135650 0
M  V30 42 H -0.395274 -3.128825 -1.906192 0
M  V30 43 H 1.342827 -3.507082 -1.992375 0
M  V30 44 H 0.205802 -4.854531 -2.142028 0
M  V30 END ATOM
M  V30 BEGIN BOND
M  V30 1 1 1 2
M  V30 2 1 2 3
M  V30 3 2 3 4
M  V30 4 1 4 5
M  V30 5 2 5 6
M  V30 6 1 6 7
M  V30 7 2 7 8
M  V30 8 1 8 9
M  V30 9 2 9 10
M  V30 10 1 10 11
M  V30 11 1 11 12
M  V30 12 3 12 13
M  V30 13 2 11 14
M  V30 14 1 14 15
M  V30 15 2 15 16
M  V30 16 1 16 17
M  V30 17 2 17 18
M  V30 18 1 18 19
M  V30 19 1 19 20
M  V30 20 2 20 21
M  V30 21 1 21 22
M  V30 22 2 22 23
M  V30 23 1 6 24
M  V30 24 2 24 25
M  V30 25 1 25 26
M  V30 26 1 26 27
M  V30 27 1 25 3
M  V30 28 1 14 7
M  V30 29 1 23 15
M  V30 30 1 22 18
M  V30 31 1 1 28
M  V30 32 1 1 29
M  V30 33 1 1 30
M  V30 34 1 4 31
M  V30 35 1 5 32
M  V30 36 1 8 33
M  V30 37 1 10 34
M  V30 38 1 16 35
M  V30 39 1 17 36
M  V30 40 1 19 37
M  V30 41 1 20 38
M  V30 42 1 21 39
M  V30 43 1 23 40
M  V30 44 1 24 41
M  V30 45 1 27 42
M  V30 46 1 27 43
M  V30 47 1 27 44
M  V30 END BOND
M  V30 END CTAB
M  END
>  <Dataset>  (763) 
ChEMBL_Kinases

>  <Ligand_Instance>  (763) 
nan

>  <PDB_ID>  (763) 
nan

>  <Standardized_SMILES>  (763) 
COc1ccc(-c2cncc(C#N)c2-c2ccc3[nH]ccc3c2)cc1OC

>  <Name>  (763) 
nan

>  <Pocket>  (763) 
nan

>  <ATP_Site>  (763) 
nan

>  <Peripheral>  (763) 
nan

>  <Num_H_Atoms_ProtBoundConf>  (763) 
nan

>  <Num_Resolved_Atoms>  (763) 
nan

>  <Num_Not_Resolved_Atoms>  (763) 
nan

$$$$
CHEMBL383779
     RDKit          3D

  0  0  0  0  0  0  0  0  0  0999 V3000
M  V30 BEGIN CTAB
M  V30 COUNTS 54 57 0 0 0
M  V30 BEGIN ATOM
M  V30 1 C 0.084386 -4.777866 4.922934 0
M  V30 2 C 0.429181 -4.555021 3.443714 0 CFG=1
M  V30 3 O -0.758367 -4.578629 2.751217 0
M  V30 4 C 1.161092 -3.261099 3.393013 0
M  V30 5 N 1.560434 -2.771691 2.133729 0
M  V30 6 C 2.271000 -1.523735 2.158774 0
M  V30 7 C 3.096006 -1.313543 0.925166 0
M  V30 8 C 2.301821 -1.650743 -0.305318 0
M  V30 9 C 1.143158 -0.720542 -0.479248 0
M  V30 10 C 1.226347 0.255368 -1.475837 0
M  V30 11 C 0.047894 1.010220 -1.478086 0
M  V30 12 C -0.342701 2.131269 -2.320047 0
M  V30 13 C 0.433931 3.271581 -2.264554 0
M  V30 14 C 0.145479 4.394254 -3.029189 0
M  V30 15 N -0.920781 4.355651 -3.839971 0
M  V30 16 C -1.720294 3.266286 -3.938001 0
M  V30 17 C -1.433629 2.149852 -3.178030 0
M  V30 18 C -0.718162 0.461257 -0.473135 0
M  V30 19 C -2.053590 0.880022 -0.053122 0
M  V30 20 C -2.363509 2.127828 0.471097 0
M  V30 21 C -3.669544 2.377564 0.822707 0
M  V30 22 C -4.683582 1.449078 0.679511 0
M  V30 23 F -5.964596 1.758415 1.047918 0
M  V30 24 C -4.365354 0.206553 0.155730 0
M  V30 25 C -3.051529 -0.080154 -0.211012 0
M  V30 26 N -0.048891 -0.550205 0.092488 0
M  V30 27 C 1.839608 -3.079413 -0.217718 0
M  V30 28 C 2.021174 -3.690280 1.156597 0
M  V30 29 H 1.008801 -4.761508 5.544495 0
M  V30 30 H -0.457180 -5.716384 5.044605 0
M  V30 31 H -0.607223 -3.964508 5.250792 0
M  V30 32 H 1.038865 -5.442253 3.168948 0
M  V30 33 H -1.402354 -5.156823 3.227220 0
M  V30 34 H 2.078006 -3.386691 4.033279 0
M  V30 35 H 0.494841 -2.500829 3.892262 0
M  V30 36 H 2.891095 -1.451251 3.090669 0
M  V30 37 H 1.526882 -0.708068 2.254816 0
M  V30 38 H 4.003072 -1.922915 0.977701 0
M  V30 39 H 3.419715 -0.253246 0.848950 0
M  V30 40 H 2.985770 -1.546485 -1.183036 0
M  V30 41 H 1.995126 0.510678 -2.198315 0
M  V30 42 H 1.308230 3.395107 -1.642736 0
M  V30 43 H 0.733957 5.310934 -3.012796 0
M  V30 44 H -2.576116 3.182047 -4.562730 0
M  V30 45 H -2.030580 1.252581 -3.210553 0
M  V30 46 H -1.551707 2.835058 0.573115 0
M  V30 47 H -3.860478 3.378790 1.232073 0
M  V30 48 H -5.167435 -0.500868 0.051841 0
M  V30 49 H -2.861185 -1.073196 -0.616189 0
M  V30 50 H -0.345891 -1.167844 0.869125 0
M  V30 51 H 2.401142 -3.683039 -0.981975 0
M  V30 52 H 0.768795 -3.093347 -0.530748 0
M  V30 53 H 1.353394 -4.592741 1.151228 0
M  V30 54 H 3.076436 -4.008928 1.245329 0
M  V30 END ATOM
M  V30 BEGIN BOND
M  V30 1 1 1 2
M  V30 2 1 2 3
M  V30 3 1 2 4
M  V30 4 1 4 5
M  V30 5 1 5 6
M  V30 6 1 6 7
M  V30 7 1 7 8
M  V30 8 1 8 9
M  V30 9 2 9 10
M  V30 10 1 10 11
M  V30 11 1 11 12
M  V30 12 2 12 13
M  V30 13 1 13 14
M  V30 14 2 14 15
M  V30 15 1 15 16
M  V30 16 2 16 17
M  V30 17 2 11 18
M  V30 18 1 18 19
M  V30 19 2 19 20
M  V30 20 1 20 21
M  V30 21 2 21 22
M  V30 22 1 22 23
M  V30 23 1 22 24
M  V30 24 2 24 25
M  V30 25 1 18 26
M  V30 26 1 8 27
M  V30 27 1 27 28
M  V30 28 1 28 5
M  V30 29 1 26 9
M  V30 30 1 17 12
M  V30 31 1 25 19
M  V30 32 1 1 29
M  V30 33 1 1 30
M  V30 34 1 1 31
M  V30 35 1 2 32 CFG=3
M  V30 36 1 3 33
M  V30 37 1 4 34
M  V30 38 1 4 35
M  V30 39 1 6 36
M  V30 40 1 6 37
M  V30 41 1 7 38
M  V30 42 1 7 39
M  V30 43 1 8 40
M  V30 44 1 10 41
M  V30 45 1 13 42
M  V30 46 1 14 43
M  V30 47 1 16 44
M  V30 48 1 17 45
M  V30 49 1 20 46
M  V30 50 1 21 47
M  V30 51 1 24 48
M  V30 52 1 25 49
M  V30 53 1 26 50
M  V30 54 1 27 51
M  V30 55 1 27 52
M  V30 56 1 28 53
M  V30 57 1 28 54
M  V30 END BOND
M  V30 END CTAB
M  END
>  <Dataset>  (764) 
ChEMBL_Kinases

>  <Ligand_Instance>  (764) 
nan

>  <PDB_ID>  (764) 
nan

>  <Standardized_SMILES>  (764) 
C[C@@H](O)CN1CCC(c2cc(-c3ccncc3)c(-c3ccc(F)cc3)[nH]2)CC1

>  <Name>  (764) 
nan

>  <Pocket>  (764) 
nan

>  <ATP_Site>  (764) 
nan

>  <Peripheral>  (764) 
nan

>  <Num_H_Atoms_ProtBoundConf>  (764) 
nan

>  <Num_Resolved_Atoms>  (764) 
nan

>  <Num_Not_Resolved_Atoms>  (764) 
nan

$$$$
CHEMBL383723
     RDKit          3D

  0  0  0  0  0  0  0  0  0  0999 V3000
M  V30 BEGIN CTAB
M  V30 COUNTS 32 33 0 0 0
M  V30 BEGIN ATOM
M  V30 1 C -2.717338 -3.150005 4.774004 0
M  V30 2 N -1.643027 -3.263309 3.803133 0
M  V30 3 C -1.570169 -2.241951 2.815697 0
M  V30 4 O -2.418778 -1.323049 2.839822 0
M  V30 5 N -0.506053 -2.369286 1.867543 0
M  V30 6 C -0.148554 -1.535655 0.764112 0
M  V30 7 C 0.724845 -0.484884 0.877547 0
M  V30 8 C 0.994029 0.248129 -0.253414 0
M  V30 9 C 1.858644 1.414829 -0.501604 0
M  V30 10 C 1.892531 1.908186 -1.786595 0
M  V30 11 C 2.721550 3.004483 -1.960970 0
M  V30 12 C 3.443230 3.529818 -0.890553 0
M  V30 13 C 3.356897 2.973400 0.387550 0
M  V30 14 C 2.531905 1.869644 0.597507 0
M  V30 15 S -0.000725 -0.544129 -1.535248 0
M  V30 16 C -0.706783 -1.793526 -0.487292 0
M  V30 17 C -1.621438 -2.793129 -0.893317 0
M  V30 18 N -2.045362 -2.846694 -2.249261 0
M  V30 19 O -2.030988 -3.607543 -0.029652 0
M  V30 20 H -3.666106 -3.543995 4.336161 0
M  V30 21 H -2.863935 -2.111615 5.098440 0
M  V30 22 H -2.442079 -3.770391 5.670077 0
M  V30 23 H -0.966169 -4.053262 3.834981 0
M  V30 24 H 0.173482 -3.161312 1.898564 0
M  V30 25 H 1.219169 -0.187369 1.788591 0
M  V30 26 H 1.320285 1.475234 -2.588666 0
M  V30 27 H 2.799062 3.447819 -2.948276 0
M  V30 28 H 4.072452 4.399610 -1.130351 0
M  V30 29 H 3.936405 3.416801 1.185685 0
M  V30 30 H 2.447243 1.420722 1.575307 0
M  V30 31 H -1.655005 -3.510582 -2.973339 0
M  V30 32 H -2.791334 -2.161284 -2.478806 0
M  V30 END ATOM
M  V30 BEGIN BOND
M  V30 1 1 1 2
M  V30 2 1 2 3
M  V30 3 2 3 4
M  V30 4 1 3 5
M  V30 5 1 5 6
M  V30 6 1 6 7
M  V30 7 2 7 8
M  V30 8 1 8 9
M  V30 9 2 9 10
M  V30 10 1 10 11
M  V30 11 2 11 12
M  V30 12 1 12 13
M  V30 13 2 13 14
M  V30 14 1 8 15
M  V30 15 1 15 16
M  V30 16 1 16 17
M  V30 17 1 17 18
M  V30 18 2 17 19
M  V30 19 2 16 6
M  V30 20 1 14 9
M  V30 21 1 1 20
M  V30 22 1 1 21
M  V30 23 1 1 22
M  V30 24 1 2 23
M  V30 25 1 5 24
M  V30 26 1 7 25
M  V30 27 1 10 26
M  V30 28 1 11 27
M  V30 29 1 12 28
M  V30 30 1 13 29
M  V30 31 1 14 30
M  V30 32 1 18 31
M  V30 33 1 18 32
M  V30 END BOND
M  V30 END CTAB
M  END
>  <Dataset>  (765) 
ChEMBL_Kinases

>  <Ligand_Instance>  (765) 
nan

>  <PDB_ID>  (765) 
nan

>  <Standardized_SMILES>  (765) 
CNC(=O)Nc1cc(-c2ccccc2)sc1C(N)=O

>  <Name>  (765) 
nan

>  <Pocket>  (765) 
nan

>  <ATP_Site>  (765) 
nan

>  <Peripheral>  (765) 
nan

>  <Num_H_Atoms_ProtBoundConf>  (765) 
nan

>  <Num_Resolved_Atoms>  (765) 
nan

>  <Num_Not_Resolved_Atoms>  (765) 
nan

$$$$
CHEMBL383708
     RDKit          3D

  0  0  0  0  0  0  0  0  0  0999 V3000
M  V30 BEGIN CTAB
M  V30 COUNTS 74 74 0 0 0
M  V30 BEGIN ATOM
M  V30 1 C 1.106603 0.083627 5.396951 0
M  V30 2 C 2.230847 1.027339 5.032137 0
M  V30 3 C 3.544057 0.638927 5.685129 0
M  V30 4 C 4.575364 1.621983 5.262548 0
M  V30 5 C 4.843410 1.679816 3.784789 0
M  V30 6 C 5.340144 0.349439 3.312959 0
M  V30 7 C 5.654721 0.355240 1.838523 0
M  V30 8 C 4.435555 0.662674 1.081960 0
M  V30 9 O 4.659448 1.334626 0.063448 0
M  V30 10 O 3.252678 0.208316 1.539682 0
M  V30 11 C 1.986591 0.316228 1.046822 0
M  V30 12 C 1.689199 -0.477531 -0.172220 0
M  V30 13 C 2.459798 -0.072734 -1.366733 0
M  V30 14 O 1.941094 -0.682043 -2.544007 0
M  V30 15 C 0.178384 -0.341904 -0.483428 0
M  V30 16 C -0.348643 -1.589659 0.081774 0
M  V30 17 C -1.653333 -1.903868 0.030239 0
M  V30 18 C -2.726615 -1.076836 -0.579750 0
M  V30 19 C -3.422258 -1.845912 -1.714464 0
M  V30 20 C -4.493201 -1.058401 -2.341668 0
M  V30 21 C -5.588395 -0.622929 -1.374320 0
M  V30 22 C -6.233640 -1.848113 -0.758496 0
M  V30 23 C -6.673125 -0.001558 -2.236370 0
M  V30 24 C -2.373919 -2.262130 -2.696052 0
M  V30 25 C -2.735155 -3.029933 -3.896388 0
M  V30 26 C -3.651859 -2.429817 -4.902410 0
M  V30 27 C -1.401020 -3.328181 -4.623080 0
M  V30 28 C 0.719417 -2.381547 0.671644 0
M  V30 29 O 0.477235 -3.262380 1.547584 0
M  V30 30 O 1.843572 -1.886630 0.027766 0
M  V30 31 H 1.512058 -0.945368 5.528691 0
M  V30 32 H 0.323262 0.052545 4.618615 0
M  V30 33 H 0.658359 0.441936 6.354127 0
M  V30 34 H 1.968236 2.056050 5.391444 0
M  V30 35 H 2.316027 1.067716 3.934100 0
M  V30 36 H 3.804646 -0.407355 5.432315 0
M  V30 37 H 3.454069 0.704055 6.787831 0
M  V30 38 H 4.218851 2.638459 5.582417 0
M  V30 39 H 5.519421 1.360306 5.792392 0
M  V30 40 H 3.966278 2.039549 3.207596 0
M  V30 41 H 5.644232 2.421889 3.578064 0
M  V30 42 H 6.305083 0.147949 3.836571 0
M  V30 43 H 4.653693 -0.487198 3.582295 0
M  V30 44 H 6.487388 1.079651 1.697502 0
M  V30 45 H 6.041084 -0.653877 1.557663 0
M  V30 46 H 1.273886 0.040840 1.879043 0
M  V30 47 H 1.700349 1.417858 0.866554 0
M  V30 48 H 3.526728 -0.453863 -1.340529 0
M  V30 49 H 2.463122 0.997045 -1.519789 0
M  V30 50 H 2.340292 -0.207300 -3.290115 0
M  V30 51 H -0.251666 0.550497 -0.013015 0
M  V30 52 H 0.084890 -0.298462 -1.574895 0
M  V30 53 H -1.994484 -2.845970 0.466253 0
M  V30 54 H -2.282231 -0.138517 -0.901920 0
M  V30 55 H -3.457371 -0.856157 0.224924 0
M  V30 56 H -3.820419 -2.763241 -1.231658 0
M  V30 57 H -4.137930 -0.184860 -2.882164 0
M  V30 58 H -5.045070 -1.716941 -3.047946 0
M  V30 59 H -5.277123 0.138192 -0.660539 0
M  V30 60 H -6.468854 -2.535333 -1.615697 0
M  V30 61 H -7.196001 -1.595779 -0.290196 0
M  V30 62 H -5.545193 -2.403589 -0.103773 0
M  V30 63 H -7.311197 -0.769512 -2.722809 0
M  V30 64 H -6.227528 0.637182 -3.024864 0
M  V30 65 H -7.314510 0.693544 -1.620267 0
M  V30 66 H -1.831467 -1.326285 -3.075509 0
M  V30 67 H -1.546360 -2.840229 -2.188418 0
M  V30 68 H -3.105273 -4.056078 -3.600490 0
M  V30 69 H -3.690966 -1.336394 -4.907988 0
M  V30 70 H -3.233804 -2.664111 -5.947447 0
M  V30 71 H -4.640240 -2.946160 -4.949639 0
M  V30 72 H -1.588834 -4.000262 -5.475779 0
M  V30 73 H -0.670142 -3.700183 -3.888182 0
M  V30 74 H -1.026033 -2.343557 -4.967875 0
M  V30 END ATOM
M  V30 BEGIN BOND
M  V30 1 1 1 2
M  V30 2 1 2 3
M  V30 3 1 3 4
M  V30 4 1 4 5
M  V30 5 1 5 6
M  V30 6 1 6 7
M  V30 7 1 7 8
M  V30 8 2 8 9
M  V30 9 1 8 10
M  V30 10 1 10 11
M  V30 11 1 11 12
M  V30 12 1 12 13
M  V30 13 1 13 14
M  V30 14 1 12 15
M  V30 15 1 15 16
M  V30 16 2 16 17
M  V30 17 1 17 18
M  V30 18 1 18 19
M  V30 19 1 19 20
M  V30 20 1 20 21
M  V30 21 1 21 22
M  V30 22 1 21 23
M  V30 23 1 19 24
M  V30 24 1 24 25
M  V30 25 1 25 26
M  V30 26 1 25 27
M  V30 27 1 16 28
M  V30 28 2 28 29
M  V30 29 1 28 30
M  V30 30 1 30 12
M  V30 31 1 1 31
M  V30 32 1 1 32
M  V30 33 1 1 33
M  V30 34 1 2 34
M  V30 35 1 2 35
M  V30 36 1 3 36
M  V30 37 1 3 37
M  V30 38 1 4 38
M  V30 39 1 4 39
M  V30 40 1 5 40
M  V30 41 1 5 41
M  V30 42 1 6 42
M  V30 43 1 6 43
M  V30 44 1 7 44
M  V30 45 1 7 45
M  V30 46 1 11 46
M  V30 47 1 11 47
M  V30 48 1 13 48
M  V30 49 1 13 49
M  V30 50 1 14 50
M  V30 51 1 15 51
M  V30 52 1 15 52
M  V30 53 1 17 53
M  V30 54 1 18 54
M  V30 55 1 18 55
M  V30 56 1 19 56
M  V30 57 1 20 57
M  V30 58 1 20 58
M  V30 59 1 21 59
M  V30 60 1 22 60
M  V30 61 1 22 61
M  V30 62 1 22 62
M  V30 63 1 23 63
M  V30 64 1 23 64
M  V30 65 1 23 65
M  V30 66 1 24 66
M  V30 67 1 24 67
M  V30 68 1 25 68
M  V30 69 1 26 69
M  V30 70 1 26 70
M  V30 71 1 26 71
M  V30 72 1 27 72
M  V30 73 1 27 73
M  V30 74 1 27 74
M  V30 END BOND
M  V30 END CTAB
M  END
>  <Dataset>  (766) 
ChEMBL_Kinases

>  <Ligand_Instance>  (766) 
nan

>  <PDB_ID>  (766) 
nan

>  <Standardized_SMILES>  (766) 
CCCCCCCC(=O)OCC1(CO)C/C(=C\CC(CC(C)C)CC(C)C)C(=O)O1

>  <Name>  (766) 
nan

>  <Pocket>  (766) 
nan

>  <ATP_Site>  (766) 
nan

>  <Peripheral>  (766) 
nan

>  <Num_H_Atoms_ProtBoundConf>  (766) 
nan

>  <Num_Resolved_Atoms>  (766) 
nan

>  <Num_Not_Resolved_Atoms>  (766) 
nan

$$$$
CHEMBL383678
     RDKit          3D

  0  0  0  0  0  0  0  0  0  0999 V3000
M  V30 BEGIN CTAB
M  V30 COUNTS 56 59 0 0 0
M  V30 BEGIN ATOM
M  V30 1 C 1.810006 -0.259807 4.119072 0
M  V30 2 C 1.745861 -0.088512 2.626410 0
M  V30 3 O 0.635030 -0.429339 2.125609 0
M  V30 4 N 2.979920 0.431000 2.101730 0
M  V30 5 C 4.182712 0.741093 2.894883 0
M  V30 6 C 5.261513 -0.147871 2.353175 0
M  V30 7 C 4.834732 -1.121252 1.290663 0
M  V30 8 C 3.982065 -0.515832 0.195093 0
M  V30 9 C 3.252756 0.702997 0.693149 0
M  V30 10 C 2.066640 1.099595 -0.066464 0
M  V30 11 O 1.983633 0.816058 -1.288469 0
M  V30 12 N 0.950509 1.801214 0.433034 0
M  V30 13 C -0.177060 2.145185 -0.366143 0
M  V30 14 C -1.220424 1.246111 -0.351664 0
M  V30 15 C -2.367857 1.426455 -1.070316 0
M  V30 16 C -3.532305 0.523734 -1.101853 0
M  V30 17 C -4.769693 1.042309 -1.297715 0
M  V30 18 C -5.814182 0.143381 -1.309330 0
M  V30 19 N -5.644619 -1.173228 -1.138550 0
M  V30 20 C -4.434843 -1.742614 -0.939038 0
M  V30 21 N -4.324574 -3.137287 -0.779664 0
M  V30 22 C -3.263801 -4.002703 -0.431383 0
M  V30 23 C -2.219369 -3.702082 0.411482 0
M  V30 24 C -1.178433 -4.547336 0.724244 0
M  V30 25 C -1.202498 -5.786399 0.138317 0
M  V30 26 C -2.201404 -6.180761 -0.716116 0
M  V30 27 C -3.193192 -5.275026 -0.968334 0
M  V30 28 C -3.407124 -0.838863 -0.930821 0
M  V30 29 C -2.462798 2.586008 -1.849540 0
M  V30 30 C -1.405210 3.486784 -1.857453 0
M  V30 31 N -0.292399 3.263288 -1.129539 0
M  V30 32 H 0.911495 -0.723581 4.521329 0
M  V30 33 H 2.682641 -0.959000 4.281857 0
M  V30 34 H 2.006050 0.734659 4.585319 0
M  V30 35 H 3.964800 0.604397 3.967374 0
M  V30 36 H 4.428384 1.796170 2.670598 0
M  V30 37 H 6.148440 0.460476 2.087723 0
M  V30 38 H 5.587180 -0.787928 3.225578 0
M  V30 39 H 5.757557 -1.497366 0.802033 0
M  V30 40 H 4.338318 -2.005624 1.741596 0
M  V30 41 H 3.224812 -1.268728 -0.090854 0
M  V30 42 H 4.591818 -0.298347 -0.700471 0
M  V30 43 H 4.000632 1.546336 0.584347 0
M  V30 44 H 0.930665 2.110343 1.427389 0
M  V30 45 H -1.196205 0.341772 0.229630 0
M  V30 46 H -4.955309 2.085469 -1.438261 0
M  V30 47 H -6.847092 0.432966 -1.457472 0
M  V30 48 H -5.226226 -3.681509 -0.952074 0
M  V30 49 H -2.175624 -2.743276 0.900675 0
M  V30 50 H -0.383765 -4.269734 1.387116 0
M  V30 51 H -0.419042 -6.498708 0.337674 0
M  V30 52 H -2.192470 -7.175999 -1.167646 0
M  V30 53 H -3.992004 -5.572105 -1.642502 0
M  V30 54 H -2.395692 -1.181242 -0.792862 0
M  V30 55 H -3.315647 2.828590 -2.452226 0
M  V30 56 H -1.423806 4.409801 -2.447491 0
M  V30 END ATOM
M  V30 BEGIN BOND
M  V30 1 1 1 2
M  V30 2 2 2 3
M  V30 3 1 2 4
M  V30 4 1 4 5
M  V30 5 1 5 6
M  V30 6 1 6 7
M  V30 7 1 7 8
M  V30 8 1 8 9
M  V30 9 1 9 10
M  V30 10 2 10 11
M  V30 11 1 10 12
M  V30 12 1 12 13
M  V30 13 2 13 14
M  V30 14 1 14 15
M  V30 15 1 15 16
M  V30 16 2 16 17
M  V30 17 1 17 18
M  V30 18 2 18 19
M  V30 19 1 19 20
M  V30 20 1 20 21
M  V30 21 1 21 22
M  V30 22 2 22 23
M  V30 23 1 23 24
M  V30 24 2 24 25
M  V30 25 1 25 26
M  V30 26 2 26 27
M  V30 27 2 20 28
M  V30 28 2 15 29
M  V30 29 1 29 30
M  V30 30 2 30 31
M  V30 31 1 9 4
M  V30 32 1 31 13
M  V30 33 1 28 16
M  V30 34 1 27 22
M  V30 35 1 1 32
M  V30 36 1 1 33
M  V30 37 1 1 34
M  V30 38 1 5 35
M  V30 39 1 5 36
M  V30 40 1 6 37
M  V30 41 1 6 38
M  V30 42 1 7 39
M  V30 43 1 7 40
M  V30 44 1 8 41
M  V30 45 1 8 42
M  V30 46 1 9 43
M  V30 47 1 12 44
M  V30 48 1 14 45
M  V30 49 1 17 46
M  V30 50 1 18 47
M  V30 51 1 21 48
M  V30 52 1 23 49
M  V30 53 1 24 50
M  V30 54 1 25 51
M  V30 55 1 26 52
M  V30 56 1 27 53
M  V30 57 1 28 54
M  V30 58 1 29 55
M  V30 59 1 30 56
M  V30 END BOND
M  V30 END CTAB
M  END
>  <Dataset>  (767) 
ChEMBL_Kinases

>  <Ligand_Instance>  (767) 
nan

>  <PDB_ID>  (767) 
nan

>  <Standardized_SMILES>  (767) 
CC(=O)N1CCCCC1C(=O)Nc1cc(-c2ccnc(Nc3ccccc3)c2)ccn1

>  <Name>  (767) 
nan

>  <Pocket>  (767) 
nan

>  <ATP_Site>  (767) 
nan

>  <Peripheral>  (767) 
nan

>  <Num_H_Atoms_ProtBoundConf>  (767) 
nan

>  <Num_Resolved_Atoms>  (767) 
nan

>  <Num_Not_Resolved_Atoms>  (767) 
nan

$$$$
CHEMBL383670
     RDKit          3D

  0  0  0  0  0  0  0  0  0  0999 V3000
M  V30 BEGIN CTAB
M  V30 COUNTS 53 54 0 0 0
M  V30 BEGIN ATOM
M  V30 1 C 1.562041 -3.536376 0.682083 0
M  V30 2 O 0.486788 -2.790682 1.158005 0
M  V30 3 C 0.562012 -1.541718 1.627720 0
M  V30 4 C 1.747297 -0.850480 1.688680 0
M  V30 5 C 1.800462 0.449455 2.181915 0
M  V30 6 C 3.046692 1.192678 2.240151 0
M  V30 7 N 3.453948 2.027685 1.214592 0
M  V30 8 C 4.763720 2.623104 1.376044 0
M  V30 9 C 2.612781 2.689457 0.331512 0
M  V30 10 C 1.907673 1.852606 -0.659706 0
M  V30 11 N 1.087640 2.747930 -1.498259 0
M  V30 12 C 0.000309 3.313467 -0.736843 0
M  V30 13 C 0.659226 2.058500 -2.697864 0
M  V30 14 C 0.634196 1.015317 2.606418 0
M  V30 15 C -0.548364 0.329832 2.547271 0
M  V30 16 C -0.616394 -0.975047 2.052253 0
M  V30 17 N -1.933769 -1.487733 2.065498 0
M  V30 18 C -2.520223 -2.635141 1.505051 0
M  V30 19 O -1.813104 -3.395947 0.852686 0
M  V30 20 N -3.862706 -3.047197 1.591773 0
M  V30 21 C -4.314315 -4.245460 0.949709 0
M  V30 22 C -4.738876 -3.987859 -0.355032 0
M  V30 23 N -5.189770 -5.054130 -1.074950 0
M  V30 24 C -5.210303 -6.279039 -0.522919 0
M  V30 25 C -5.697763 -7.350432 -1.338362 0
M  V30 26 N -6.080685 -8.227641 -1.983727 0
M  V30 27 C -4.796211 -6.544071 0.757048 0
M  V30 28 N -4.346859 -5.488010 1.477348 0
M  V30 29 H 2.502954 -2.999126 0.512365 0
M  V30 30 H 1.279399 -4.156858 -0.207413 0
M  V30 31 H 1.799938 -4.289195 1.487891 0
M  V30 32 H 2.696239 -1.244541 1.371734 0
M  V30 33 H 2.983791 1.829700 3.185933 0
M  V30 34 H 3.925071 0.512964 2.502776 0
M  V30 35 H 5.217244 2.591910 0.341908 0
M  V30 36 H 5.424959 2.026592 2.009329 0
M  V30 37 H 4.689895 3.677503 1.626988 0
M  V30 38 H 3.250360 3.416845 -0.270849 0
M  V30 39 H 1.854991 3.367906 0.796379 0
M  V30 40 H 2.632799 1.395102 -1.368392 0
M  V30 41 H 1.307082 1.046594 -0.255165 0
M  V30 42 H 0.319651 4.249998 -0.217079 0
M  V30 43 H -0.310619 2.543487 -0.002052 0
M  V30 44 H -0.850494 3.489677 -1.392185 0
M  V30 45 H 0.746084 2.764108 -3.548827 0
M  V30 46 H 1.360337 1.219073 -2.953826 0
M  V30 47 H -0.379350 1.740497 -2.603467 0
M  V30 48 H 0.668879 2.009337 2.986837 0
M  V30 49 H -1.408569 0.889531 2.915608 0
M  V30 50 H -2.714690 -0.980057 2.585359 0
M  V30 51 H -4.521552 -2.438230 2.141073 0
M  V30 52 H -4.742042 -3.021198 -0.839941 0
M  V30 53 H -4.801733 -7.518668 1.224523 0
M  V30 END ATOM
M  V30 BEGIN BOND
M  V30 1 1 1 2
M  V30 2 1 2 3
M  V30 3 2 3 4
M  V30 4 1 4 5
M  V30 5 1 5 6
M  V30 6 1 6 7
M  V30 7 1 7 8
M  V30 8 1 7 9
M  V30 9 1 9 10
M  V30 10 1 10 11
M  V30 11 1 11 12
M  V30 12 1 11 13
M  V30 13 2 5 14
M  V30 14 1 14 15
M  V30 15 2 15 16
M  V30 16 1 16 17
M  V30 17 1 17 18
M  V30 18 2 18 19
M  V30 19 1 18 20
M  V30 20 1 20 21
M  V30 21 2 21 22
M  V30 22 1 22 23
M  V30 23 2 23 24
M  V30 24 1 24 25
M  V30 25 3 25 26
M  V30 26 1 24 27
M  V30 27 2 27 28
M  V30 28 1 16 3
M  V30 29 1 28 21
M  V30 30 1 1 29
M  V30 31 1 1 30
M  V30 32 1 1 31
M  V30 33 1 4 32
M  V30 34 1 6 33
M  V30 35 1 6 34
M  V30 36 1 8 35
M  V30 37 1 8 36
M  V30 38 1 8 37
M  V30 39 1 9 38
M  V30 40 1 9 39
M  V30 41 1 10 40
M  V30 42 1 10 41
M  V30 43 1 12 42
M  V30 44 1 12 43
M  V30 45 1 12 44
M  V30 46 1 13 45
M  V30 47 1 13 46
M  V30 48 1 13 47
M  V30 49 1 14 48
M  V30 50 1 15 49
M  V30 51 1 17 50
M  V30 52 1 20 51
M  V30 53 1 22 52
M  V30 54 1 27 53
M  V30 END BOND
M  V30 END CTAB
M  END
>  <Dataset>  (768) 
ChEMBL_Kinases

>  <Ligand_Instance>  (768) 
nan

>  <PDB_ID>  (768) 
nan

>  <Standardized_SMILES>  (768) 
COc1cc(CN(C)CCN(C)C)ccc1NC(=O)Nc1cnc(C#N)cn1

>  <Name>  (768) 
nan

>  <Pocket>  (768) 
nan

>  <ATP_Site>  (768) 
nan

>  <Peripheral>  (768) 
nan

>  <Num_H_Atoms_ProtBoundConf>  (768) 
nan

>  <Num_Resolved_Atoms>  (768) 
nan

>  <Num_Not_Resolved_Atoms>  (768) 
nan

$$$$
CHEMBL494305
     RDKit          3D

  0  0  0  0  0  0  0  0  0  0999 V3000
M  V30 BEGIN CTAB
M  V30 COUNTS 47 50 0 0 0
M  V30 BEGIN ATOM
M  V30 1 C -4.275589 -6.304073 2.459818 0
M  V30 2 N -3.342125 -5.866593 1.438106 0
M  V30 3 C -2.534081 -4.696951 1.387597 0
M  V30 4 N -2.462693 -3.724596 2.310621 0
M  V30 5 O -1.617054 -2.830968 1.911058 0
M  V30 6 C -1.135024 -3.196141 0.749171 0
M  V30 7 C -0.210743 -2.517252 -0.010219 0
M  V30 8 C 0.386874 -1.251600 0.391051 0
M  V30 9 C -0.360023 -0.114673 0.056285 0
M  V30 10 C 0.215944 1.106917 0.424062 0
M  V30 11 C 1.459005 1.222339 1.085535 0
M  V30 12 C 1.776127 2.534420 1.312696 0
M  V30 13 N 1.110654 3.737915 1.044315 0
M  V30 14 C 1.695383 5.014957 1.435073 0
M  V30 15 C 0.869693 6.124728 0.783758 0
M  V30 16 C 1.603309 5.165349 2.957300 0
M  V30 17 N 2.990139 2.579964 1.944761 0
M  V30 18 N 3.692233 1.528586 2.258680 0
M  V30 19 C 3.346058 0.253880 2.018904 0
M  V30 20 C 2.115037 0.069570 1.371078 0
M  V30 21 C 1.599964 -1.161148 1.035908 0
M  V30 22 C 0.189530 -3.037038 -1.208184 0
M  V30 23 C 1.167696 -2.408350 -2.095933 0
M  V30 24 C -0.371178 -4.244032 -1.598191 0
M  V30 25 C -1.297673 -4.945524 -0.859076 0
M  V30 26 C -1.687031 -4.395578 0.354178 0
M  V30 27 H -3.850936 -7.231762 2.928745 0
M  V30 28 H -5.297745 -6.464077 2.057288 0
M  V30 29 H -4.357369 -5.583046 3.301335 0
M  V30 30 H -3.334558 -6.576773 0.679998 0
M  V30 31 H -1.301198 -0.191794 -0.442052 0
M  V30 32 H -0.416027 1.949782 0.134941 0
M  V30 33 H 0.190494 3.757388 0.573565 0
M  V30 34 H 2.753198 5.061734 1.166313 0
M  V30 35 H 1.266466 6.256073 -0.253406 0
M  V30 36 H -0.202626 5.813730 0.712423 0
M  V30 37 H 0.978506 7.057199 1.370458 0
M  V30 38 H 2.585995 5.207765 3.449522 0
M  V30 39 H 1.072688 4.261011 3.370006 0
M  V30 40 H 1.030355 6.070620 3.198215 0
M  V30 41 H 3.917227 -0.628556 2.270735 0
M  V30 42 H 2.165224 -2.044861 1.291652 0
M  V30 43 H 1.723757 -3.160908 -2.715398 0
M  V30 44 H 0.623052 -1.716671 -2.761666 0
M  V30 45 H 1.944352 -1.859143 -1.495513 0
M  V30 46 H -0.070543 -4.681655 -2.549859 0
M  V30 47 H -1.754656 -5.884436 -1.124058 0
M  V30 END ATOM
M  V30 BEGIN BOND
M  V30 1 1 1 2
M  V30 2 1 2 3
M  V30 3 2 3 4
M  V30 4 1 4 5
M  V30 5 1 5 6
M  V30 6 2 6 7
M  V30 7 1 7 8
M  V30 8 2 8 9
M  V30 9 1 9 10
M  V30 10 2 10 11
M  V30 11 1 11 12
M  V30 12 1 12 13
M  V30 13 1 13 14
M  V30 14 1 14 15
M  V30 15 1 14 16
M  V30 16 2 12 17
M  V30 17 1 17 18
M  V30 18 2 18 19
M  V30 19 1 19 20
M  V30 20 2 20 21
M  V30 21 1 7 22
M  V30 22 1 22 23
M  V30 23 2 22 24
M  V30 24 1 24 25
M  V30 25 2 25 26
M  V30 26 1 26 3
M  V30 27 1 26 6
M  V30 28 1 21 8
M  V30 29 1 20 11
M  V30 30 1 1 27
M  V30 31 1 1 28
M  V30 32 1 1 29
M  V30 33 1 2 30
M  V30 34 1 9 31
M  V30 35 1 10 32
M  V30 36 1 13 33
M  V30 37 1 14 34
M  V30 38 1 15 35
M  V30 39 1 15 36
M  V30 40 1 15 37
M  V30 41 1 16 38
M  V30 42 1 16 39
M  V30 43 1 16 40
M  V30 44 1 19 41
M  V30 45 1 21 42
M  V30 46 1 23 43
M  V30 47 1 23 44
M  V30 48 1 23 45
M  V30 49 1 24 46
M  V30 50 1 25 47
M  V30 END BOND
M  V30 END CTAB
M  END
>  <Dataset>  (769) 
ChEMBL_Kinases

>  <Ligand_Instance>  (769) 
nan

>  <PDB_ID>  (769) 
nan

>  <Standardized_SMILES>  (769) 
CNc1noc2c(-c3ccc4c(NC(C)C)nncc4c3)c(C)ccc12

>  <Name>  (769) 
nan

>  <Pocket>  (769) 
nan

>  <ATP_Site>  (769) 
nan

>  <Peripheral>  (769) 
nan

>  <Num_H_Atoms_ProtBoundConf>  (769) 
nan

>  <Num_Resolved_Atoms>  (769) 
nan

>  <Num_Not_Resolved_Atoms>  (769) 
nan

$$$$
CHEMBL494314
     RDKit          3D

  0  0  0  0  0  0  0  0  0  0999 V3000
M  V30 BEGIN CTAB
M  V30 COUNTS 42 44 0 0 0
M  V30 BEGIN ATOM
M  V30 1 C 1.125619 -3.805226 4.774822 0
M  V30 2 O 1.248144 -4.007336 3.381652 0
M  V30 3 C 1.404657 -2.915881 2.554312 0
M  V30 4 C 1.435230 -1.663312 3.126313 0
M  V30 5 C 1.589615 -0.536710 2.345411 0
M  V30 6 C 1.717309 -0.631715 0.974758 0
M  V30 7 C 1.885117 0.422575 0.000479 0
M  V30 8 C 2.850026 0.265609 -1.001597 0
M  V30 9 N 3.035873 1.237638 -1.935305 0
M  V30 10 C 2.329339 2.362256 -1.947754 0
M  V30 11 C 1.360838 2.582805 -0.988497 0
M  V30 12 C 0.559063 3.777308 -0.942183 0
M  V30 13 N -0.100671 4.727643 -0.903219 0
M  V30 14 C 1.166761 1.600872 -0.037909 0
M  V30 15 N 0.185376 1.809470 0.944514 0
M  V30 16 C -1.105819 1.336430 0.605970 0
M  V30 17 C -1.353741 0.719068 -0.611561 0
M  V30 18 C -2.595514 0.229002 -1.013795 0
M  V30 19 C -3.647957 0.369172 -0.138690 0
M  V30 20 Cl -5.224862 -0.236101 -0.612102 0
M  V30 21 C -3.467767 0.970243 1.079715 0
M  V30 22 C -2.222303 1.435599 1.425861 0
M  V30 23 C 1.685325 -1.908304 0.400407 0
M  V30 24 C 1.530401 -3.034514 1.186944 0
M  V30 25 O 1.487726 -4.333952 0.705122 0
M  V30 26 C 1.611285 -4.523947 -0.691857 0
M  V30 27 H 0.887060 -4.743709 5.299639 0
M  V30 28 H 2.074588 -3.354569 5.129002 0
M  V30 29 H 0.267907 -3.101679 4.911546 0
M  V30 30 H 1.344060 -1.466226 4.196290 0
M  V30 31 H 1.623599 0.477508 2.717588 0
M  V30 32 H 3.437626 -0.629367 -1.020978 0
M  V30 33 H 2.480487 3.119232 -2.682457 0
M  V30 34 H 0.247504 2.264460 1.903192 0
M  V30 35 H -0.542828 0.588584 -1.334951 0
M  V30 36 H -2.697438 -0.242221 -1.990298 0
M  V30 37 H -4.325931 1.050830 1.719486 0
M  V30 38 H -2.100469 1.907280 2.392655 0
M  V30 39 H 1.776870 -2.096602 -0.666698 0
M  V30 40 H 0.958737 -3.863805 -1.271817 0
M  V30 41 H 1.268095 -5.566386 -0.943408 0
M  V30 42 H 2.675955 -4.384568 -1.008887 0
M  V30 END ATOM
M  V30 BEGIN BOND
M  V30 1 1 1 2
M  V30 2 1 2 3
M  V30 3 2 3 4
M  V30 4 1 4 5
M  V30 5 2 5 6
M  V30 6 1 6 7
M  V30 7 2 7 8
M  V30 8 1 8 9
M  V30 9 2 9 10
M  V30 10 1 10 11
M  V30 11 1 11 12
M  V30 12 3 12 13
M  V30 13 2 11 14
M  V30 14 1 14 15
M  V30 15 1 15 16
M  V30 16 2 16 17
M  V30 17 1 17 18
M  V30 18 2 18 19
M  V30 19 1 19 20
M  V30 20 1 19 21
M  V30 21 2 21 22
M  V30 22 1 6 23
M  V30 23 2 23 24
M  V30 24 1 24 25
M  V30 25 1 25 26
M  V30 26 1 24 3
M  V30 27 1 14 7
M  V30 28 1 22 16
M  V30 29 1 1 27
M  V30 30 1 1 28
M  V30 31 1 1 29
M  V30 32 1 4 30
M  V30 33 1 5 31
M  V30 34 1 8 32
M  V30 35 1 10 33
M  V30 36 1 15 34
M  V30 37 1 17 35
M  V30 38 1 18 36
M  V30 39 1 21 37
M  V30 40 1 22 38
M  V30 41 1 23 39
M  V30 42 1 26 40
M  V30 43 1 26 41
M  V30 44 1 26 42
M  V30 END BOND
M  V30 END CTAB
M  END
>  <Dataset>  (770) 
ChEMBL_Kinases

>  <Ligand_Instance>  (770) 
nan

>  <PDB_ID>  (770) 
nan

>  <Standardized_SMILES>  (770) 
COc1ccc(-c2cncc(C#N)c2Nc2ccc(Cl)cc2)cc1OC

>  <Name>  (770) 
nan

>  <Pocket>  (770) 
nan

>  <ATP_Site>  (770) 
nan

>  <Peripheral>  (770) 
nan

>  <Num_H_Atoms_ProtBoundConf>  (770) 
nan

>  <Num_Resolved_Atoms>  (770) 
nan

>  <Num_Not_Resolved_Atoms>  (770) 
nan

$$$$
CHEMBL593698
     RDKit          3D

  0  0  0  0  0  0  0  0  0  0999 V3000
M  V30 BEGIN CTAB
M  V30 COUNTS 37 40 0 0 0
M  V30 BEGIN ATOM
M  V30 1 C 1.993794 -6.276164 0.380771 0
M  V30 2 C 1.376793 -5.224806 1.231804 0
M  V30 3 O 1.745612 -5.061219 2.401595 0
M  V30 4 N 0.360380 -4.447573 0.610515 0
M  V30 5 C -0.522112 -3.368901 0.926891 0
M  V30 6 C -1.760351 -3.768401 1.449647 0
M  V30 7 C -2.661039 -2.779393 1.777159 0
M  V30 8 C -2.317842 -1.438064 1.581553 0
M  V30 9 C -1.116278 -1.020721 1.073058 0
M  V30 10 C -0.276472 -2.025521 0.771088 0
M  V30 11 C -1.176501 0.403420 1.038989 0
M  V30 12 C -0.246201 1.193185 0.626054 0
M  V30 13 N -0.277163 2.605354 0.580515 0
M  V30 14 C 0.914717 3.188132 0.069133 0
M  V30 15 C 1.227671 4.518912 -0.113680 0
M  V30 16 C 2.480766 4.750587 -0.635621 0
M  V30 17 C 3.384436 3.765090 -0.964522 0
M  V30 18 C 2.975598 2.473088 -0.744102 0
M  V30 19 C 1.733552 2.093452 -0.220577 0
M  V30 20 C 1.045272 0.862104 0.111611 0
M  V30 21 O 1.683600 -0.152886 -0.107579 0
M  V30 22 C -2.465326 0.812449 1.549104 0
M  V30 23 O -2.926281 1.968201 1.689946 0
M  V30 24 N -3.192468 -0.358394 1.894672 0
M  V30 25 H 2.068714 -7.194844 1.032973 0
M  V30 26 H 2.995802 -5.986418 0.004724 0
M  V30 27 H 1.330449 -6.569117 -0.477613 0
M  V30 28 H 0.070994 -4.618203 -0.396946 0
M  V30 29 H -2.013013 -4.806197 1.595727 0
M  V30 30 H -3.605230 -3.109835 2.176845 0
M  V30 31 H 0.681350 -1.909322 0.374676 0
M  V30 32 H -1.108161 3.148330 0.897924 0
M  V30 33 H 0.527922 5.296735 0.140401 0
M  V30 34 H 2.778646 5.775832 -0.799677 0
M  V30 35 H 4.363714 3.969503 -1.373395 0
M  V30 36 H 3.683759 1.697823 -1.001739 0
M  V30 37 H -4.161456 -0.362644 2.291049 0
M  V30 END ATOM
M  V30 BEGIN BOND
M  V30 1 1 1 2
M  V30 2 2 2 3
M  V30 3 1 2 4
M  V30 4 1 4 5
M  V30 5 2 5 6
M  V30 6 1 6 7
M  V30 7 2 7 8
M  V30 8 1 8 9
M  V30 9 2 9 10
M  V30 10 1 9 11
M  V30 11 2 11 12
M  V30 12 1 12 13
M  V30 13 1 13 14
M  V30 14 2 14 15
M  V30 15 1 15 16
M  V30 16 2 16 17
M  V30 17 1 17 18
M  V30 18 2 18 19
M  V30 19 1 19 20
M  V30 20 2 20 21
M  V30 21 1 11 22
M  V30 22 2 22 23
M  V30 23 1 22 24
M  V30 24 1 10 5
M  V30 25 1 20 12
M  V30 26 1 24 8
M  V30 27 1 19 14
M  V30 28 1 1 25
M  V30 29 1 1 26
M  V30 30 1 1 27
M  V30 31 1 4 28
M  V30 32 1 6 29
M  V30 33 1 7 30
M  V30 34 1 10 31
M  V30 35 1 13 32
M  V30 36 1 15 33
M  V30 37 1 16 34
M  V30 38 1 17 35
M  V30 39 1 18 36
M  V30 40 1 24 37
M  V30 END BOND
M  V30 END CTAB
M  END
>  <Dataset>  (771) 
ChEMBL_Kinases

>  <Ligand_Instance>  (771) 
nan

>  <PDB_ID>  (771) 
nan

>  <Standardized_SMILES>  (771) 
CC(=O)Nc1ccc2c(c1)/C(=C1/Nc3ccccc3C1=O)C(=O)N2

>  <Name>  (771) 
nan

>  <Pocket>  (771) 
nan

>  <ATP_Site>  (771) 
nan

>  <Peripheral>  (771) 
nan

>  <Num_H_Atoms_ProtBoundConf>  (771) 
nan

>  <Num_Resolved_Atoms>  (771) 
nan

>  <Num_Not_Resolved_Atoms>  (771) 
nan

$$$$
CHEMBL383620
     RDKit          3D

  0  0  0  0  0  0  0  0  0  0999 V3000
M  V30 BEGIN CTAB
M  V30 COUNTS 27 29 0 0 0
M  V30 BEGIN ATOM
M  V30 1 N -0.725696 -4.733923 3.288369 0
M  V30 2 C 0.603790 -4.576850 2.807557 0
M  V30 3 O 1.528840 -5.405754 2.997153 0
M  V30 4 C 0.937626 -3.381204 2.040885 0
M  V30 5 N 0.113814 -2.367941 1.718365 0
M  V30 6 C 0.777817 -1.442208 1.004878 0
M  V30 7 C 0.189186 -0.183325 0.475609 0
M  V30 8 C 0.722318 0.805587 -0.234474 0
M  V30 9 C -0.045652 1.859449 -0.596185 0
M  V30 10 C 0.318458 2.989954 -1.335394 0
M  V30 11 C -0.617336 3.944200 -1.591832 0
M  V30 12 C -1.934328 3.928899 -1.193928 0
M  V30 13 C -2.329237 2.830703 -0.463664 0
M  V30 14 C -1.367536 1.838023 -0.193413 0
M  V30 15 S -1.477330 0.268681 0.715776 0
M  V30 16 O 1.985013 -1.870479 0.887237 0
M  V30 17 C 2.150932 -3.030244 1.486106 0
M  V30 18 N 3.351981 -3.771277 1.545012 0
M  V30 19 H -1.586386 -5.144902 2.838292 0
M  V30 20 H -1.078230 -4.441109 4.239174 0
M  V30 21 H 1.780176 0.697086 -0.486602 0
M  V30 22 H 1.337802 3.144783 -1.723250 0
M  V30 23 H -0.312548 4.828234 -2.175807 0
M  V30 24 H -2.685483 4.675164 -1.388764 0
M  V30 25 H -3.321383 2.652692 -0.070900 0
M  V30 26 H 3.340952 -4.455196 0.735362 0
M  V30 27 H 4.188098 -3.803405 2.152673 0
M  V30 END ATOM
M  V30 BEGIN BOND
M  V30 1 1 1 2
M  V30 2 2 2 3
M  V30 3 1 2 4
M  V30 4 1 4 5
M  V30 5 2 5 6
M  V30 6 1 6 7
M  V30 7 2 7 8
M  V30 8 1 8 9
M  V30 9 2 9 10
M  V30 10 1 10 11
M  V30 11 2 11 12
M  V30 12 1 12 13
M  V30 13 2 13 14
M  V30 14 1 14 15
M  V30 15 1 6 16
M  V30 16 1 16 17
M  V30 17 1 17 18
M  V30 18 2 17 4
M  V30 19 1 15 7
M  V30 20 1 14 9
M  V30 21 1 1 19
M  V30 22 1 1 20
M  V30 23 1 8 21
M  V30 24 1 10 22
M  V30 25 1 11 23
M  V30 26 1 12 24
M  V30 27 1 13 25
M  V30 28 1 18 26
M  V30 29 1 18 27
M  V30 END BOND
M  V30 END CTAB
M  END
>  <Dataset>  (772) 
ChEMBL_Kinases

>  <Ligand_Instance>  (772) 
nan

>  <PDB_ID>  (772) 
nan

>  <Standardized_SMILES>  (772) 
NC(=O)c1nc(-c2cc3ccccc3s2)oc1N

>  <Name>  (772) 
nan

>  <Pocket>  (772) 
nan

>  <ATP_Site>  (772) 
nan

>  <Peripheral>  (772) 
nan

>  <Num_H_Atoms_ProtBoundConf>  (772) 
nan

>  <Num_Resolved_Atoms>  (772) 
nan

>  <Num_Not_Resolved_Atoms>  (772) 
nan

$$$$
CHEMBL383844
     RDKit          3D

  0  0  0  0  0  0  0  0  0  0999 V3000
M  V30 BEGIN CTAB
M  V30 COUNTS 51 54 0 0 0
M  V30 BEGIN ATOM
M  V30 1 N -1.563346 -3.921232 -1.154941 0
M  V30 2 C -0.624614 -4.125555 -0.145003 0
M  V30 3 C 0.306674 -3.224627 0.278098 0
M  V30 4 C 0.533807 -1.876177 -0.173159 0
M  V30 5 O -0.338721 -1.505553 -1.037607 0
M  V30 6 C 1.520250 -0.895960 0.152130 0
M  V30 7 C 2.793801 -1.128122 0.622495 0
M  V30 8 C 3.747673 -0.212197 0.967195 0
M  V30 9 C 3.382607 1.119317 0.823460 0
M  V30 10 C 2.127530 1.440500 0.358775 0
M  V30 11 C 1.811566 2.846339 0.242287 0
M  V30 12 C 1.542430 4.033063 0.127523 0
M  V30 13 C 1.204874 5.450049 -0.028159 0
M  V30 14 N 0.142529 5.854611 0.865002 0
M  V30 15 C 0.511128 5.854830 2.243806 0
M  V30 16 C 0.318929 4.545252 2.958847 0
M  V30 17 O -0.595438 3.702444 2.356569 0
M  V30 18 C -1.623382 4.505675 1.855099 0
M  V30 19 C -1.090436 5.154525 0.597908 0
M  V30 20 C 1.224070 0.455920 0.033200 0
M  V30 21 C 0.984304 -3.888591 1.272718 0
M  V30 22 N 0.458724 -5.122095 1.411610 0
M  V30 23 N -0.532995 -5.272555 0.539692 0
M  V30 24 C -1.317300 -6.449212 0.395728 0
M  V30 25 C -2.514438 -6.760969 1.003426 0
M  V30 26 C -3.115833 -7.988300 0.706871 0
M  V30 27 C -2.521490 -8.865404 -0.176466 0
M  V30 28 F -3.153560 -10.054433 -0.429002 0
M  V30 29 C -1.319508 -8.543529 -0.782623 0
M  V30 30 C -0.712703 -7.336172 -0.500438 0
M  V30 31 H -2.097914 -3.020319 -1.356365 0
M  V30 32 H -2.124378 -4.227570 -1.962103 0
M  V30 33 H 3.128026 -2.156681 0.737207 0
M  V30 34 H 4.730293 -0.472935 1.329502 0
M  V30 35 H 4.091232 1.897357 1.078665 0
M  V30 36 H 2.096006 6.047247 0.225601 0
M  V30 37 H 0.840579 5.651449 -1.064923 0
M  V30 38 H 1.593644 6.101416 2.315473 0
M  V30 39 H -0.000360 6.697736 2.787610 0
M  V30 40 H 1.291707 4.021873 3.134333 0
M  V30 41 H -0.081190 4.784432 3.975379 0
M  V30 42 H -2.528279 3.915894 1.598947 0
M  V30 43 H -1.951711 5.267734 2.572659 0
M  V30 44 H -0.842234 4.327676 -0.126639 0
M  V30 45 H -1.871985 5.776073 0.117663 0
M  V30 46 H 0.229648 0.775013 -0.331825 0
M  V30 47 H 1.787156 -3.639824 1.922806 0
M  V30 48 H -2.886531 -5.998538 1.674461 0
M  V30 49 H -4.056324 -8.179813 1.214014 0
M  V30 50 H -0.917667 -9.296527 -1.467025 0
M  V30 51 H 0.230850 -7.190240 -1.035822 0
M  V30 END ATOM
M  V30 BEGIN BOND
M  V30 1 1 1 2
M  V30 2 2 2 3
M  V30 3 1 3 4
M  V30 4 2 4 5
M  V30 5 1 4 6
M  V30 6 2 6 7
M  V30 7 1 7 8
M  V30 8 2 8 9
M  V30 9 1 9 10
M  V30 10 1 10 11
M  V30 11 3 11 12
M  V30 12 1 12 13
M  V30 13 1 13 14
M  V30 14 1 14 15
M  V30 15 1 15 16
M  V30 16 1 16 17
M  V30 17 1 17 18
M  V30 18 1 18 19
M  V30 19 2 10 20
M  V30 20 1 3 21
M  V30 21 2 21 22
M  V30 22 1 22 23
M  V30 23 1 23 24
M  V30 24 2 24 25
M  V30 25 1 25 26
M  V30 26 2 26 27
M  V30 27 1 27 28
M  V30 28 1 27 29
M  V30 29 2 29 30
M  V30 30 1 23 2
M  V30 31 1 30 24
M  V30 32 1 20 6
M  V30 33 1 19 14
M  V30 34 1 1 31
M  V30 35 1 1 32
M  V30 36 1 7 33
M  V30 37 1 8 34
M  V30 38 1 9 35
M  V30 39 1 13 36
M  V30 40 1 13 37
M  V30 41 1 15 38
M  V30 42 1 15 39
M  V30 43 1 16 40
M  V30 44 1 16 41
M  V30 45 1 18 42
M  V30 46 1 18 43
M  V30 47 1 19 44
M  V30 48 1 19 45
M  V30 49 1 20 46
M  V30 50 1 21 47
M  V30 51 1 25 48
M  V30 52 1 26 49
M  V30 53 1 29 50
M  V30 54 1 30 51
M  V30 END BOND
M  V30 END CTAB
M  END
>  <Dataset>  (773) 
ChEMBL_Kinases

>  <Ligand_Instance>  (773) 
nan

>  <PDB_ID>  (773) 
nan

>  <Standardized_SMILES>  (773) 
Nc1c(C(=O)c2cccc(C#CCN3CCOCC3)c2)cnn1-c1ccc(F)cc1

>  <Name>  (773) 
nan

>  <Pocket>  (773) 
nan

>  <ATP_Site>  (773) 
nan

>  <Peripheral>  (773) 
nan

>  <Num_H_Atoms_ProtBoundConf>  (773) 
nan

>  <Num_Resolved_Atoms>  (773) 
nan

>  <Num_Not_Resolved_Atoms>  (773) 
nan

$$$$
CHEMBL3828266
     RDKit          3D

  0  0  0  0  0  0  0  0  0  0999 V3000
M  V30 BEGIN CTAB
M  V30 COUNTS 52 56 0 0 0
M  V30 BEGIN ATOM
M  V30 1 C 1.143308 -7.437105 -0.352702 0
M  V30 2 N 1.938874 -6.235102 -0.620430 0
M  V30 3 C 1.660567 -4.953852 -0.339573 0
M  V30 4 C 2.706577 -4.138888 -0.773642 0
M  V30 5 C 2.644762 -2.682636 -0.581295 0
M  V30 6 C 3.251506 -1.810507 -1.467181 0
M  V30 7 C 3.184888 -0.448998 -1.278454 0
M  V30 8 C 2.507997 0.073379 -0.197085 0
M  V30 9 C 2.320389 1.480200 0.195279 0
M  V30 10 C 3.355926 2.410123 0.302333 0
M  V30 11 N 3.056887 3.667201 0.686039 0
M  V30 12 C 1.786051 4.045665 0.966508 0
M  V30 13 N 1.511349 5.382641 1.370230 0
M  V30 14 C 0.737800 3.181332 0.877013 0
M  V30 15 C -0.571017 3.516356 1.145052 0
M  V30 16 C -1.582265 2.584577 1.025602 0
M  V30 17 C -1.255767 1.304807 0.632820 0
M  V30 18 C -2.167894 0.150214 0.435245 0
M  V30 19 O -2.030453 -0.488307 -0.664232 0
M  V30 20 N -3.130109 -0.195518 1.437560 0
M  V30 21 C -3.607442 0.235148 2.753085 0
M  V30 22 C -5.107768 0.359739 2.495001 0
M  V30 23 C -5.380038 -0.932352 1.736355 0
M  V30 24 C -4.010305 -1.354579 1.240482 0
M  V30 25 N 0.028902 0.989063 0.374370 0
M  V30 26 C 1.007007 1.884605 0.488026 0
M  V30 27 C 1.887447 -0.787654 0.710143 0
M  V30 28 C 1.965084 -2.158469 0.505312 0
M  V30 29 C 3.625336 -4.998418 -1.331380 0
M  V30 30 N 3.118493 -6.261988 -1.215721 0
M  V30 31 H 0.546069 -7.693107 -1.257494 0
M  V30 32 H 1.800694 -8.267249 -0.015004 0
M  V30 33 H 0.431826 -7.188251 0.458443 0
M  V30 34 H 0.739291 -4.688794 0.153403 0
M  V30 35 H 3.795654 -2.167978 -2.337711 0
M  V30 36 H 3.623719 0.311426 -1.907921 0
M  V30 37 H 4.345561 2.037301 0.063803 0
M  V30 38 H 1.581685 5.922827 2.268032 0
M  V30 39 H 1.160713 6.285123 0.983674 0
M  V30 40 H -0.819775 4.498294 1.445740 0
M  V30 41 H -2.623023 2.741414 1.204150 0
M  V30 42 H -3.397542 -0.573227 3.479595 0
M  V30 43 H -3.252299 1.223734 3.050858 0
M  V30 44 H -5.689098 0.390056 3.447321 0
M  V30 45 H -5.246505 1.263508 1.870539 0
M  V30 46 H -5.804471 -1.654438 2.447011 0
M  V30 47 H -6.103896 -0.791259 0.917643 0
M  V30 48 H -3.631398 -2.159276 1.926593 0
M  V30 49 H -4.058876 -1.689138 0.204918 0
M  V30 50 H 1.325946 -0.559873 1.605671 0
M  V30 51 H 1.504693 -2.896246 1.170452 0
M  V30 52 H 4.539278 -4.622067 -1.750785 0
M  V30 END ATOM
M  V30 BEGIN BOND
M  V30 1 1 1 2
M  V30 2 1 2 3
M  V30 3 2 3 4
M  V30 4 1 4 5
M  V30 5 2 5 6
M  V30 6 1 6 7
M  V30 7 2 7 8
M  V30 8 1 8 9
M  V30 9 2 9 10
M  V30 10 1 10 11
M  V30 11 2 11 12
M  V30 12 1 12 13
M  V30 13 1 12 14
M  V30 14 2 14 15
M  V30 15 1 15 16
M  V30 16 2 16 17
M  V30 17 1 17 18
M  V30 18 2 18 19
M  V30 19 1 18 20
M  V30 20 1 20 21
M  V30 21 1 21 22
M  V30 22 1 22 23
M  V30 23 1 23 24
M  V30 24 1 17 25
M  V30 25 2 25 26
M  V30 26 1 8 27
M  V30 27 2 27 28
M  V30 28 1 4 29
M  V30 29 2 29 30
M  V30 30 1 30 2
M  V30 31 1 28 5
M  V30 32 1 26 9
M  V30 33 1 26 14
M  V30 34 1 24 20
M  V30 35 1 1 31
M  V30 36 1 1 32
M  V30 37 1 1 33
M  V30 38 1 3 34
M  V30 39 1 6 35
M  V30 40 1 7 36
M  V30 41 1 10 37
M  V30 42 1 13 38
M  V30 43 1 13 39
M  V30 44 1 15 40
M  V30 45 1 16 41
M  V30 46 1 21 42
M  V30 47 1 21 43
M  V30 48 1 22 44
M  V30 49 1 22 45
M  V30 50 1 23 46
M  V30 51 1 23 47
M  V30 52 1 24 48
M  V30 53 1 24 49
M  V30 54 1 27 50
M  V30 55 1 28 51
M  V30 56 1 29 52
M  V30 END BOND
M  V30 END CTAB
M  END
>  <Dataset>  (774) 
ChEMBL_Kinases

>  <Ligand_Instance>  (774) 
nan

>  <PDB_ID>  (774) 
nan

>  <Standardized_SMILES>  (774) 
Cn1cc(-c2ccc(-c3cnc(N)c4ccc(C(=O)N5CCCC5)nc34)cc2)cn1

>  <Name>  (774) 
nan

>  <Pocket>  (774) 
nan

>  <ATP_Site>  (774) 
nan

>  <Peripheral>  (774) 
nan

>  <Num_H_Atoms_ProtBoundConf>  (774) 
nan

>  <Num_Resolved_Atoms>  (774) 
nan

>  <Num_Not_Resolved_Atoms>  (774) 
nan

$$$$
CHEMBL3828240
     RDKit          3D

  0  0  0  0  0  0  0  0  0  0999 V3000
M  V30 BEGIN CTAB
M  V30 COUNTS 58 61 0 0 0
M  V30 BEGIN ATOM
M  V30 1 C 3.379691 1.198173 -0.258071 0
M  V30 2 C 3.721458 1.234634 1.207218 0
M  V30 3 N 4.277185 0.180728 1.829263 0
M  V30 4 C 4.469948 0.505826 3.139064 0
M  V30 5 C 4.990974 -0.167696 4.222828 0
M  V30 6 C 5.065240 0.424893 5.470327 0
M  V30 7 C 4.581943 1.721079 5.529041 0
M  V30 8 C 4.054242 2.432122 4.476764 0
M  V30 9 C 3.995657 1.804878 3.240884 0
M  V30 10 N 3.530595 2.276446 2.068402 0
M  V30 11 C 2.959179 3.531937 1.691409 0
M  V30 12 C 1.481294 3.595442 1.835951 0
M  V30 13 O 0.905142 4.664417 1.505943 0
M  V30 14 N 0.848534 2.416685 2.344358 0
M  V30 15 N -0.522381 2.170764 2.590236 0
M  V30 16 C -1.364458 1.611023 1.616476 0
M  V30 17 O -0.642734 1.409421 0.579846 0
M  V30 18 C -2.759618 1.416504 2.018342 0
M  V30 19 C -3.645988 0.775424 1.003246 0
M  V30 20 C -3.250933 -0.556709 0.606589 0
M  V30 21 O -2.331496 -0.405338 1.449618 0
M  V30 22 C -3.303523 -1.795949 -0.109495 0
M  V30 23 C -2.347540 -2.743090 0.172071 0
M  V30 24 C -2.466816 -3.913941 -0.559416 0
M  V30 25 C -3.478958 -4.072152 -1.484666 0
M  V30 26 O -3.438072 -5.307027 -2.117432 0
M  V30 27 C -2.675552 -5.406786 -3.296258 0
M  V30 28 C -2.694983 -6.675530 -3.835837 0
M  V30 29 C -2.012671 -6.989103 -4.991562 0
M  V30 30 C -1.306716 -5.957429 -5.580253 0
M  V30 31 C -1.287672 -4.693708 -5.042958 0
M  V30 32 C -1.962557 -4.372065 -3.894060 0
M  V30 33 C -4.419068 -3.097830 -1.738379 0
M  V30 34 C -4.321356 -1.924083 -1.023222 0
M  V30 35 H 4.323846 1.191581 -0.815816 0
M  V30 36 H 2.738992 2.058093 -0.516942 0
M  V30 37 H 2.841308 0.262295 -0.432900 0
M  V30 38 H 5.341462 -1.181151 4.063768 0
M  V30 39 H 5.469329 -0.084812 6.333516 0
M  V30 40 H 4.637498 2.190977 6.503134 0
M  V30 41 H 3.700317 3.430685 4.601575 0
M  V30 42 H 3.454705 4.400367 2.217753 0
M  V30 43 H 3.179937 3.711067 0.619113 0
M  V30 44 H 1.405790 1.571736 2.594589 0
M  V30 45 H -0.736639 2.479269 3.585114 0
M  V30 46 H -3.196684 2.361183 2.333447 0
M  V30 47 H -2.792825 0.746487 2.928944 0
M  V30 48 H -4.667467 0.703098 1.470060 0
M  V30 49 H -3.779271 1.471818 0.127426 0
M  V30 50 H -1.561043 -2.605852 0.899072 0
M  V30 51 H -1.709527 -4.677134 -0.343274 0
M  V30 52 H -3.241999 -7.520242 -3.399710 0
M  V30 53 H -1.993909 -7.959484 -5.452881 0
M  V30 54 H -0.727966 -6.092140 -6.502386 0
M  V30 55 H -0.733103 -3.893222 -5.509536 0
M  V30 56 H -2.016223 -3.417897 -3.387855 0
M  V30 57 H -5.167286 -3.326514 -2.483022 0
M  V30 58 H -5.052625 -1.150019 -1.212191 0
M  V30 END ATOM
M  V30 BEGIN BOND
M  V30 1 1 1 2
M  V30 2 2 2 3
M  V30 3 1 3 4
M  V30 4 2 4 5
M  V30 5 1 5 6
M  V30 6 2 6 7
M  V30 7 1 7 8
M  V30 8 2 8 9
M  V30 9 1 9 10
M  V30 10 1 10 11
M  V30 11 1 11 12
M  V30 12 2 12 13
M  V30 13 1 12 14
M  V30 14 1 14 15
M  V30 15 1 15 16
M  V30 16 2 16 17
M  V30 17 1 16 18
M  V30 18 1 18 19
M  V30 19 1 19 20
M  V30 20 2 20 21
M  V30 21 1 20 22
M  V30 22 2 22 23
M  V30 23 1 23 24
M  V30 24 2 24 25
M  V30 25 1 25 26
M  V30 26 1 26 27
M  V30 27 2 27 28
M  V30 28 1 28 29
M  V30 29 2 29 30
M  V30 30 1 30 31
M  V30 31 2 31 32
M  V30 32 1 25 33
M  V30 33 2 33 34
M  V30 34 1 10 2
M  V30 35 1 34 22
M  V30 36 1 9 4
M  V30 37 1 32 27
M  V30 38 1 1 35
M  V30 39 1 1 36
M  V30 40 1 1 37
M  V30 41 1 5 38
M  V30 42 1 6 39
M  V30 43 1 7 40
M  V30 44 1 8 41
M  V30 45 1 11 42
M  V30 46 1 11 43
M  V30 47 1 14 44
M  V30 48 1 15 45
M  V30 49 1 18 46
M  V30 50 1 18 47
M  V30 51 1 19 48
M  V30 52 1 19 49
M  V30 53 1 23 50
M  V30 54 1 24 51
M  V30 55 1 28 52
M  V30 56 1 29 53
M  V30 57 1 30 54
M  V30 58 1 31 55
M  V30 59 1 32 56
M  V30 60 1 33 57
M  V30 61 1 34 58
M  V30 END BOND
M  V30 END CTAB
M  END
>  <Dataset>  (775) 
ChEMBL_Kinases

>  <Ligand_Instance>  (775) 
nan

>  <PDB_ID>  (775) 
nan

>  <Standardized_SMILES>  (775) 
Cc1nc2ccccc2n1CC(=O)NNC(=O)CCC(=O)c1ccc(Oc2ccccc2)cc1

>  <Name>  (775) 
nan

>  <Pocket>  (775) 
nan

>  <ATP_Site>  (775) 
nan

>  <Peripheral>  (775) 
nan

>  <Num_H_Atoms_ProtBoundConf>  (775) 
nan

>  <Num_Resolved_Atoms>  (775) 
nan

>  <Num_Not_Resolved_Atoms>  (775) 
nan

$$$$
CHEMBL3828221
     RDKit          3D

  0  0  0  0  0  0  0  0  0  0999 V3000
M  V30 BEGIN CTAB
M  V30 COUNTS 46 50 0 0 0
M  V30 BEGIN ATOM
M  V30 1 C -3.362247 -5.856627 1.797835 0
M  V30 2 N -2.157697 -5.531407 1.076229 0
M  V30 3 C -1.683567 -4.276390 0.907057 0
M  V30 4 C -0.503241 -4.322965 0.162995 0
M  V30 5 C 0.252837 -3.103994 -0.186489 0
M  V30 6 C -0.508863 -1.967250 -0.373824 0
M  V30 7 C 0.149106 -0.780619 -0.706480 0
M  V30 8 C 1.530920 -0.724346 -0.849690 0
M  V30 9 C 2.177205 0.532081 -1.197037 0
M  V30 10 C 3.169124 0.691067 -2.146298 0
M  V30 11 N 3.718807 1.892893 -2.410688 0
M  V30 12 C 3.315315 3.014095 -1.745919 0
M  V30 13 C 2.323827 2.894711 -0.787740 0
M  V30 14 C 1.893623 4.007531 -0.098250 0
M  V30 15 C 0.909757 3.947570 0.866373 0
M  V30 16 C 0.359521 2.687855 1.117703 0
M  V30 17 C -0.692323 2.409548 2.098972 0
M  V30 18 N -2.014367 2.700798 2.064939 0
M  V30 19 C -2.603475 2.253919 3.189501 0
M  V30 20 C -1.598945 1.671533 3.929004 0
M  V30 21 N -0.420192 1.761415 3.268464 0
M  V30 22 C 0.891793 1.271032 3.700228 0
M  V30 23 N 0.804745 1.624386 0.424886 0
M  V30 24 C 1.751145 1.651942 -0.510121 0
M  V30 25 C 2.218790 -1.905190 -0.645351 0
M  V30 26 C 1.625502 -3.106119 -0.315520 0
M  V30 27 C -0.312148 -5.681480 -0.095054 0
M  V30 28 N -1.332566 -6.354119 0.475620 0
M  V30 29 H -3.224166 -6.688441 2.500833 0
M  V30 30 H -3.720457 -4.983312 2.380725 0
M  V30 31 H -4.159959 -6.214681 1.086633 0
M  V30 32 H -2.151990 -3.364994 1.293401 0
M  V30 33 H -1.570272 -1.982990 -0.270074 0
M  V30 34 H -0.489110 0.081720 -0.843015 0
M  V30 35 H 3.446585 -0.232238 -2.639169 0
M  V30 36 H 3.766749 3.974256 -1.969208 0
M  V30 37 H 2.298454 4.995896 -0.268844 0
M  V30 38 H 0.517619 4.769188 1.449569 0
M  V30 39 H -3.649671 2.320232 3.487301 0
M  V30 40 H -1.729715 1.210046 4.894534 0
M  V30 41 H 0.734463 0.429656 4.372746 0
M  V30 42 H 1.471299 1.014166 2.772812 0
M  V30 43 H 1.427492 2.118613 4.207997 0
M  V30 44 H 3.294093 -1.891533 -0.749873 0
M  V30 45 H 2.163817 -4.021997 -0.157440 0
M  V30 46 H 0.560682 -5.981923 -0.672373 0
M  V30 END ATOM
M  V30 BEGIN BOND
M  V30 1 1 1 2
M  V30 2 1 2 3
M  V30 3 2 3 4
M  V30 4 1 4 5
M  V30 5 2 5 6
M  V30 6 1 6 7
M  V30 7 2 7 8
M  V30 8 1 8 9
M  V30 9 2 9 10
M  V30 10 1 10 11
M  V30 11 2 11 12
M  V30 12 1 12 13
M  V30 13 2 13 14
M  V30 14 1 14 15
M  V30 15 2 15 16
M  V30 16 1 16 17
M  V30 17 2 17 18
M  V30 18 1 18 19
M  V30 19 2 19 20
M  V30 20 1 20 21
M  V30 21 1 21 22
M  V30 22 1 16 23
M  V30 23 2 23 24
M  V30 24 1 8 25
M  V30 25 2 25 26
M  V30 26 1 4 27
M  V30 27 2 27 28
M  V30 28 1 28 2
M  V30 29 1 26 5
M  V30 30 1 24 9
M  V30 31 1 24 13
M  V30 32 1 21 17
M  V30 33 1 1 29
M  V30 34 1 1 30
M  V30 35 1 1 31
M  V30 36 1 3 32
M  V30 37 1 6 33
M  V30 38 1 7 34
M  V30 39 1 10 35
M  V30 40 1 12 36
M  V30 41 1 14 37
M  V30 42 1 15 38
M  V30 43 1 19 39
M  V30 44 1 20 40
M  V30 45 1 22 41
M  V30 46 1 22 42
M  V30 47 1 22 43
M  V30 48 1 25 44
M  V30 49 1 26 45
M  V30 50 1 27 46
M  V30 END BOND
M  V30 END CTAB
M  END
>  <Dataset>  (776) 
ChEMBL_Kinases

>  <Ligand_Instance>  (776) 
nan

>  <PDB_ID>  (776) 
nan

>  <Standardized_SMILES>  (776) 
Cn1cc(-c2ccc(-c3cncc4ccc(-c5nccn5C)nc34)cc2)cn1

>  <Name>  (776) 
nan

>  <Pocket>  (776) 
nan

>  <ATP_Site>  (776) 
nan

>  <Peripheral>  (776) 
nan

>  <Num_H_Atoms_ProtBoundConf>  (776) 
nan

>  <Num_Resolved_Atoms>  (776) 
nan

>  <Num_Not_Resolved_Atoms>  (776) 
nan

$$$$
CHEMBL3828209
     RDKit          3D

  0  0  0  0  0  0  0  0  0  0999 V3000
M  V30 BEGIN CTAB
M  V30 COUNTS 39 42 0 0 0
M  V30 BEGIN ATOM
M  V30 1 C 0.353051 -3.743453 3.226658 0
M  V30 2 N 0.623133 -2.943409 2.051598 0
M  V30 3 C 1.134878 -3.475899 0.847507 0
M  V30 4 O 1.375633 -4.708457 0.771193 0
M  V30 5 C 1.363313 -2.541513 -0.274984 0
M  V30 6 C 1.861325 -2.992406 -1.480289 0
M  V30 7 C 2.070906 -2.095320 -2.529937 0
M  V30 8 C 1.789774 -0.751377 -2.393232 0
M  V30 9 C 1.981494 0.174785 -3.406111 0
M  V30 10 N 1.667844 1.445243 -3.139362 0
M  V30 11 C 1.178416 1.850092 -1.935740 0
M  V30 12 C 0.971244 0.953009 -0.892996 0
M  V30 13 C 0.443457 1.429758 0.384871 0
M  V30 14 C 0.834360 2.549291 1.088299 0
M  V30 15 C 0.231163 2.862012 2.288696 0
M  V30 16 C -0.772295 2.083525 2.830589 0
M  V30 17 C -1.529060 2.166124 3.989599 0
M  V30 18 N -2.354106 1.109329 3.968276 0
M  V30 19 N -2.157891 0.382065 2.876947 0
M  V30 20 C -2.863848 -0.839768 2.502931 0
M  V30 21 C -1.183363 0.956224 2.146878 0
M  V30 22 C -0.573016 0.641698 0.934377 0
M  V30 23 C 1.296422 -0.360415 -1.171409 0
M  V30 24 N 1.104100 -1.246019 -0.177055 0
M  V30 25 H 0.397950 -3.166158 4.157515 0
M  V30 26 H -0.663340 -4.166734 3.106485 0
M  V30 27 H 1.054406 -4.594999 3.319382 0
M  V30 28 H 0.421482 -1.934083 2.127011 0
M  V30 29 H 2.094603 -4.050375 -1.622249 0
M  V30 30 H 2.467658 -2.453920 -3.490470 0
M  V30 31 H 2.371002 -0.158241 -4.358599 0
M  V30 32 H 0.933049 2.898338 -1.754218 0
M  V30 33 H 1.624118 3.126365 0.621908 0
M  V30 34 H 0.567372 3.751701 2.811680 0
M  V30 35 H -1.468781 2.930892 4.761493 0
M  V30 36 H -3.661738 -0.537289 1.798015 0
M  V30 37 H -3.242636 -1.400923 3.367135 0
M  V30 38 H -2.193303 -1.531212 1.920933 0
M  V30 39 H -0.961812 -0.259286 0.472789 0
M  V30 END ATOM
M  V30 BEGIN BOND
M  V30 1 1 1 2
M  V30 2 1 2 3
M  V30 3 2 3 4
M  V30 4 1 3 5
M  V30 5 2 5 6
M  V30 6 1 6 7
M  V30 7 2 7 8
M  V30 8 1 8 9
M  V30 9 2 9 10
M  V30 10 1 10 11
M  V30 11 2 11 12
M  V30 12 1 12 13
M  V30 13 2 13 14
M  V30 14 1 14 15
M  V30 15 2 15 16
M  V30 16 1 16 17
M  V30 17 2 17 18
M  V30 18 1 18 19
M  V30 19 1 19 20
M  V30 20 1 19 21
M  V30 21 2 21 22
M  V30 22 1 12 23
M  V30 23 2 23 24
M  V30 24 1 24 5
M  V30 25 1 23 8
M  V30 26 1 22 13
M  V30 27 1 21 16
M  V30 28 1 1 25
M  V30 29 1 1 26
M  V30 30 1 1 27
M  V30 31 1 2 28
M  V30 32 1 6 29
M  V30 33 1 7 30
M  V30 34 1 9 31
M  V30 35 1 11 32
M  V30 36 1 14 33
M  V30 37 1 15 34
M  V30 38 1 17 35
M  V30 39 1 20 36
M  V30 40 1 20 37
M  V30 41 1 20 38
M  V30 42 1 22 39
M  V30 END BOND
M  V30 END CTAB
M  END
>  <Dataset>  (777) 
ChEMBL_Kinases

>  <Ligand_Instance>  (777) 
nan

>  <PDB_ID>  (777) 
nan

>  <Standardized_SMILES>  (777) 
CNC(=O)c1ccc2cncc(-c3ccc4cnn(C)c4c3)c2n1

>  <Name>  (777) 
nan

>  <Pocket>  (777) 
nan

>  <ATP_Site>  (777) 
nan

>  <Peripheral>  (777) 
nan

>  <Num_H_Atoms_ProtBoundConf>  (777) 
nan

>  <Num_Resolved_Atoms>  (777) 
nan

>  <Num_Not_Resolved_Atoms>  (777) 
nan

$$$$
CHEMBL3828169
     RDKit          3D

  0  0  0  0  0  0  0  0  0  0999 V3000
M  V30 BEGIN CTAB
M  V30 COUNTS 37 40 0 0 0
M  V30 BEGIN ATOM
M  V30 1 C 0.443793 -6.207783 3.606645 0
M  V30 2 N 1.200681 -5.364288 2.693631 0
M  V30 3 C 0.801033 -4.152338 2.261857 0
M  V30 4 C 1.763423 -3.626915 1.402577 0
M  V30 5 C 1.573729 -2.314956 0.791172 0
M  V30 6 C 0.864948 -1.356425 1.524695 0
M  V30 7 C 0.641916 -0.081156 1.009891 0
M  V30 8 C 1.122812 0.271670 -0.255996 0
M  V30 9 C 0.835600 1.627790 -0.700565 0
M  V30 10 C 1.757246 2.446730 -1.289311 0
M  V30 11 N 1.457645 3.701112 -1.690491 0
M  V30 12 C 0.248934 4.260081 -1.554739 0
M  V30 13 C -0.726757 3.481270 -0.965837 0
M  V30 14 C -2.012105 3.940152 -0.768813 0
M  V30 15 C -3.005587 3.181298 -0.182637 0
M  V30 16 C -2.642337 1.902017 0.209645 0
M  V30 17 C -3.555635 0.982766 0.834743 0
M  V30 18 N -4.297390 0.252373 1.355532 0
M  V30 19 N -1.394267 1.438244 0.025453 0
M  V30 20 C -0.437311 2.187568 -0.546349 0
M  V30 21 C 1.819906 -0.685444 -0.966397 0
M  V30 22 C 2.040596 -1.948344 -0.456216 0
M  V30 23 C 2.747474 -4.592997 1.352933 0
M  V30 24 N 2.375073 -5.623385 2.141502 0
M  V30 25 H 0.676178 -5.950717 4.666558 0
M  V30 26 H -0.629546 -6.001883 3.425740 0
M  V30 27 H 0.651478 -7.258732 3.371094 0
M  V30 28 H -0.148284 -3.687931 2.567447 0
M  V30 29 H 0.490333 -1.641644 2.518849 0
M  V30 30 H 0.075942 0.570098 1.683198 0
M  V30 31 H 2.762788 2.090286 -1.444445 0
M  V30 32 H -0.008257 5.259325 -1.868924 0
M  V30 33 H -2.271961 4.941315 -1.083005 0
M  V30 34 H -4.020311 3.511987 -0.014827 0
M  V30 35 H 2.174348 -0.392622 -1.924483 0
M  V30 36 H 2.588812 -2.690226 -1.023317 0
M  V30 37 H 3.632707 -4.424724 0.736162 0
M  V30 END ATOM
M  V30 BEGIN BOND
M  V30 1 1 1 2
M  V30 2 1 2 3
M  V30 3 2 3 4
M  V30 4 1 4 5
M  V30 5 2 5 6
M  V30 6 1 6 7
M  V30 7 2 7 8
M  V30 8 1 8 9
M  V30 9 2 9 10
M  V30 10 1 10 11
M  V30 11 2 11 12
M  V30 12 1 12 13
M  V30 13 2 13 14
M  V30 14 1 14 15
M  V30 15 2 15 16
M  V30 16 1 16 17
M  V30 17 3 17 18
M  V30 18 1 16 19
M  V30 19 2 19 20
M  V30 20 1 8 21
M  V30 21 2 21 22
M  V30 22 1 4 23
M  V30 23 2 23 24
M  V30 24 1 24 2
M  V30 25 1 22 5
M  V30 26 1 20 9
M  V30 27 1 20 13
M  V30 28 1 1 25
M  V30 29 1 1 26
M  V30 30 1 1 27
M  V30 31 1 3 28
M  V30 32 1 6 29
M  V30 33 1 7 30
M  V30 34 1 10 31
M  V30 35 1 12 32
M  V30 36 1 14 33
M  V30 37 1 15 34
M  V30 38 1 21 35
M  V30 39 1 22 36
M  V30 40 1 23 37
M  V30 END BOND
M  V30 END CTAB
M  END
>  <Dataset>  (778) 
ChEMBL_Kinases

>  <Ligand_Instance>  (778) 
nan

>  <PDB_ID>  (778) 
nan

>  <Standardized_SMILES>  (778) 
Cn1cc(-c2ccc(-c3cncc4ccc(C#N)nc34)cc2)cn1

>  <Name>  (778) 
nan

>  <Pocket>  (778) 
nan

>  <ATP_Site>  (778) 
nan

>  <Peripheral>  (778) 
nan

>  <Num_H_Atoms_ProtBoundConf>  (778) 
nan

>  <Num_Resolved_Atoms>  (778) 
nan

>  <Num_Not_Resolved_Atoms>  (778) 
nan

$$$$
CHEMBL3828150
     RDKit          3D

  0  0  0  0  0  0  0  0  0  0999 V3000
M  V30 BEGIN CTAB
M  V30 COUNTS 42 45 0 0 0
M  V30 BEGIN ATOM
M  V30 1 C -1.030742 -4.678120 -0.254212 0
M  V30 2 O -0.738759 -3.443266 -0.832542 0
M  V30 3 C 0.458171 -3.045711 -1.341975 0
M  V30 4 C 1.579702 -3.880063 -1.348264 0
M  V30 5 C 2.775016 -3.451249 -1.866042 0
M  V30 6 C 2.971536 -2.208678 -2.405576 0
M  V30 7 C 1.877177 -1.350845 -2.415896 0
M  V30 8 C 0.664503 -1.795921 -1.885966 0
M  V30 9 N -0.462887 -0.902177 -1.709164 0
M  V30 10 C -0.316165 0.603022 -1.805815 0
M  V30 11 N -0.208361 1.736272 -1.884400 0
M  V30 12 N 0.252184 2.645908 -1.106497 0
M  V30 13 C 0.706580 2.422875 -0.016442 0
M  V30 14 C 1.340646 2.541133 1.448324 0
M  V30 15 N 0.438786 1.928119 2.390271 0
M  V30 16 C -0.597641 2.492282 3.034979 0
M  V30 17 C -0.928706 3.936901 2.842558 0
M  V30 18 N -1.212330 1.543877 3.811957 0
M  V30 19 C -0.577417 0.357638 3.681096 0
M  V30 20 C -0.871841 -0.847057 4.262454 0
M  V30 21 C -0.047844 -1.892600 3.923502 0
M  V30 22 C 1.015037 -1.733929 3.042201 0
M  V30 23 C 1.225153 -0.458684 2.499993 0
M  V30 24 C 0.442077 0.639578 2.791254 0
M  V30 25 S 0.427539 0.566485 -0.100326 0
M  V30 26 H -2.035144 -5.070964 -0.599123 0
M  V30 27 H -0.278523 -5.444759 -0.492667 0
M  V30 28 H -1.050253 -4.569664 0.868172 0
M  V30 29 H 1.601141 -4.913451 -0.925438 0
M  V30 30 H 3.659213 -4.108871 -1.879624 0
M  V30 31 H 3.852443 -1.751922 -2.832958 0
M  V30 32 H 1.860713 -0.326562 -2.817029 0
M  V30 33 H -1.441808 -1.185603 -1.519500 0
M  V30 34 H 1.377330 3.611607 1.529351 0
M  V30 35 H 2.337021 2.148147 1.382170 0
M  V30 36 H -0.546785 4.293101 1.894236 0
M  V30 37 H -0.345191 4.510131 3.623189 0
M  V30 38 H -1.994461 4.157072 2.937252 0
M  V30 39 H -1.684404 -0.960140 4.960273 0
M  V30 40 H -0.292834 -2.842956 4.418586 0
M  V30 41 H 1.564145 -2.635012 2.870547 0
M  V30 42 H 2.100874 -0.428488 1.858803 0
M  V30 END ATOM
M  V30 BEGIN BOND
M  V30 1 1 1 2
M  V30 2 1 2 3
M  V30 3 2 3 4
M  V30 4 1 4 5
M  V30 5 2 5 6
M  V30 6 1 6 7
M  V30 7 2 7 8
M  V30 8 1 8 9
M  V30 9 1 9 10
M  V30 10 2 10 11
M  V30 11 1 11 12
M  V30 12 2 12 13
M  V30 13 1 13 14
M  V30 14 1 14 15
M  V30 15 1 15 16
M  V30 16 1 16 17
M  V30 17 2 16 18
M  V30 18 1 18 19
M  V30 19 2 19 20
M  V30 20 1 20 21
M  V30 21 2 21 22
M  V30 22 1 22 23
M  V30 23 2 23 24
M  V30 24 1 13 25
M  V30 25 1 8 3
M  V30 26 1 25 10
M  V30 27 1 24 15
M  V30 28 1 24 19
M  V30 29 1 1 26
M  V30 30 1 1 27
M  V30 31 1 1 28
M  V30 32 1 4 29
M  V30 33 1 5 30
M  V30 34 1 6 31
M  V30 35 1 7 32
M  V30 36 1 9 33
M  V30 37 1 14 34
M  V30 38 1 14 35
M  V30 39 1 17 36
M  V30 40 1 17 37
M  V30 41 1 17 38
M  V30 42 1 20 39
M  V30 43 1 21 40
M  V30 44 1 22 41
M  V30 45 1 23 42
M  V30 END BOND
M  V30 END CTAB
M  END
>  <Dataset>  (779) 
ChEMBL_Kinases

>  <Ligand_Instance>  (779) 
nan

>  <PDB_ID>  (779) 
nan

>  <Standardized_SMILES>  (779) 
COc1ccccc1Nc1nnc(Cn2c(C)nc3ccccc32)s1

>  <Name>  (779) 
nan

>  <Pocket>  (779) 
nan

>  <ATP_Site>  (779) 
nan

>  <Peripheral>  (779) 
nan

>  <Num_H_Atoms_ProtBoundConf>  (779) 
nan

>  <Num_Resolved_Atoms>  (779) 
nan

>  <Num_Not_Resolved_Atoms>  (779) 
nan

$$$$
CHEMBL3828131
     RDKit          3D

  0  0  0  0  0  0  0  0  0  0999 V3000
M  V30 BEGIN CTAB
M  V30 COUNTS 38 41 0 0 0
M  V30 BEGIN ATOM
M  V30 1 C -0.913017 -2.902900 -2.718723 0
M  V30 2 C 0.271477 -2.859648 -1.822282 0
M  V30 3 N 0.752615 -3.888503 -1.138573 0
M  V30 4 C 1.820968 -3.457670 -0.449218 0
M  V30 5 C 2.737804 -4.020735 0.425619 0
M  V30 6 C 3.779234 -3.297376 1.003135 0
M  V30 7 C 3.917129 -1.955998 0.699451 0
M  V30 8 C 2.993074 -1.410638 -0.175342 0
M  V30 9 C 1.951747 -2.111232 -0.759783 0
M  V30 10 N 0.976585 -1.732898 -1.624481 0
M  V30 11 C 0.862616 -0.393775 -2.121065 0
M  V30 12 C -0.004220 0.487020 -1.277943 0
M  V30 13 N -1.115764 0.806204 -1.229450 0
M  V30 14 N -1.809596 1.568320 -0.481968 0
M  V30 15 C -1.003006 2.162923 0.535526 0
M  V30 16 N -0.919117 3.066274 1.696186 0
M  V30 17 C -1.305156 2.317634 2.866712 0
M  V30 18 C -0.475450 2.102524 3.944918 0
M  V30 19 C -0.914118 1.377148 5.051572 0
M  V30 20 C -2.215021 0.903735 4.980748 0
M  V30 21 C -3.076085 1.095107 3.925896 0
M  V30 22 C -2.615750 1.825222 2.826455 0
M  V30 23 F -3.426934 2.042625 1.761702 0
M  V30 24 S 0.745810 1.443256 0.182201 0
M  V30 25 H -1.829676 -3.081303 -2.083421 0
M  V30 26 H -1.035872 -1.991844 -3.326259 0
M  V30 27 H -0.828963 -3.765900 -3.413711 0
M  V30 28 H 2.629340 -5.082986 0.667183 0
M  V30 29 H 4.439254 -3.822361 1.669124 0
M  V30 30 H 4.717261 -1.374714 1.135095 0
M  V30 31 H 3.144545 -0.345586 -0.385607 0
M  V30 32 H 0.380480 -0.393938 -3.114681 0
M  V30 33 H 1.866473 0.078936 -2.178237 0
M  V30 34 H -0.607117 4.038022 1.451675 0
M  V30 35 H 0.535578 2.511251 3.919552 0
M  V30 36 H -0.270572 1.202136 5.902748 0
M  V30 37 H -2.599878 0.325313 5.836747 0
M  V30 38 H -4.081956 0.715224 3.900679 0
M  V30 END ATOM
M  V30 BEGIN BOND
M  V30 1 1 1 2
M  V30 2 2 2 3
M  V30 3 1 3 4
M  V30 4 2 4 5
M  V30 5 1 5 6
M  V30 6 2 6 7
M  V30 7 1 7 8
M  V30 8 2 8 9
M  V30 9 1 9 10
M  V30 10 1 10 11
M  V30 11 1 11 12
M  V30 12 2 12 13
M  V30 13 1 13 14
M  V30 14 2 14 15
M  V30 15 1 15 16
M  V30 16 1 16 17
M  V30 17 2 17 18
M  V30 18 1 18 19
M  V30 19 2 19 20
M  V30 20 1 20 21
M  V30 21 2 21 22
M  V30 22 1 22 23
M  V30 23 1 15 24
M  V30 24 1 10 2
M  V30 25 1 24 12
M  V30 26 1 9 4
M  V30 27 1 22 17
M  V30 28 1 1 25
M  V30 29 1 1 26
M  V30 30 1 1 27
M  V30 31 1 5 28
M  V30 32 1 6 29
M  V30 33 1 7 30
M  V30 34 1 8 31
M  V30 35 1 11 32
M  V30 36 1 11 33
M  V30 37 1 16 34
M  V30 38 1 18 35
M  V30 39 1 19 36
M  V30 40 1 20 37
M  V30 41 1 21 38
M  V30 END BOND
M  V30 END CTAB
M  END
>  <Dataset>  (780) 
ChEMBL_Kinases

>  <Ligand_Instance>  (780) 
nan

>  <PDB_ID>  (780) 
nan

>  <Standardized_SMILES>  (780) 
Cc1nc2ccccc2n1Cc1nnc(Nc2ccccc2F)s1

>  <Name>  (780) 
nan

>  <Pocket>  (780) 
nan

>  <ATP_Site>  (780) 
nan

>  <Peripheral>  (780) 
nan

>  <Num_H_Atoms_ProtBoundConf>  (780) 
nan

>  <Num_Resolved_Atoms>  (780) 
nan

>  <Num_Not_Resolved_Atoms>  (780) 
nan

$$$$
CHEMBL3828129
     RDKit          3D

  0  0  0  0  0  0  0  0  0  0999 V3000
M  V30 BEGIN CTAB
M  V30 COUNTS 48 52 0 0 0
M  V30 BEGIN ATOM
M  V30 1 C -2.536279 -6.999562 0.046068 0
M  V30 2 N -1.475175 -6.129693 -0.432895 0
M  V30 3 C -1.269818 -4.847335 -0.089634 0
M  V30 4 C -0.136583 -4.474950 -0.819018 0
M  V30 5 C 0.469679 -3.148419 -0.767947 0
M  V30 6 C 1.800188 -2.894513 -0.930155 0
M  V30 7 C 2.312412 -1.615056 -0.870499 0
M  V30 8 C 1.488959 -0.534964 -0.642287 0
M  V30 9 C 1.872961 0.869281 -0.551497 0
M  V30 10 C 2.745877 1.426588 -1.472160 0
M  V30 11 N 3.143324 2.726245 -1.443967 0
M  V30 12 C 2.676739 3.538697 -0.476903 0
M  V30 13 N 3.032936 4.905787 -0.364970 0
M  V30 14 C 1.791823 3.050256 0.489154 0
M  V30 15 C 1.312541 3.863932 1.473616 0
M  V30 16 C 0.430228 3.342227 2.422061 0
M  V30 17 C 0.048412 2.015027 2.361344 0
M  V30 18 C -0.868371 1.372083 3.303798 0
M  V30 19 N -0.297202 1.009452 4.478417 0
M  V30 20 C -1.216211 0.428364 5.276531 0
M  V30 21 C -2.384471 0.447915 4.540922 0
M  V30 22 N -2.169281 1.019808 3.348019 0
M  V30 23 C -2.978680 1.318592 2.179829 0
M  V30 24 N 0.537309 1.226524 1.374819 0
M  V30 25 C 1.394863 1.708897 0.442452 0
M  V30 26 C 0.123494 -0.766230 -0.472787 0
M  V30 27 C -0.378389 -2.060999 -0.535469 0
M  V30 28 C 0.306629 -5.524727 -1.572082 0
M  V30 29 N -0.559050 -6.515108 -1.291174 0
M  V30 30 H -3.249202 -6.421543 0.701082 0
M  V30 31 H -3.161714 -7.412049 -0.791840 0
M  V30 32 H -2.103137 -7.875911 0.540726 0
M  V30 33 H -1.858982 -4.267294 0.592324 0
M  V30 34 H 2.466991 -3.726778 -1.110525 0
M  V30 35 H 3.356367 -1.376758 -0.993748 0
M  V30 36 H 3.170452 0.857811 -2.279194 0
M  V30 37 H 2.949254 5.582465 -1.172850 0
M  V30 38 H 3.398588 5.291151 0.547229 0
M  V30 39 H 1.607640 4.915374 1.531507 0
M  V30 40 H 0.021319 3.927932 3.215465 0
M  V30 41 H -1.115627 0.021665 6.274671 0
M  V30 42 H -3.375865 0.088706 4.784091 0
M  V30 43 H -3.200644 2.424340 2.120153 0
M  V30 44 H -2.446277 1.073067 1.237306 0
M  V30 45 H -3.976469 0.842389 2.231974 0
M  V30 46 H -0.646338 -0.001782 -0.284745 0
M  V30 47 H -1.451619 -2.260304 -0.403973 0
M  V30 48 H 1.140421 -5.607810 -2.248511 0
M  V30 END ATOM
M  V30 BEGIN BOND
M  V30 1 1 1 2
M  V30 2 1 2 3
M  V30 3 2 3 4
M  V30 4 1 4 5
M  V30 5 2 5 6
M  V30 6 1 6 7
M  V30 7 2 7 8
M  V30 8 1 8 9
M  V30 9 2 9 10
M  V30 10 1 10 11
M  V30 11 2 11 12
M  V30 12 1 12 13
M  V30 13 1 12 14
M  V30 14 2 14 15
M  V30 15 1 15 16
M  V30 16 2 16 17
M  V30 17 1 17 18
M  V30 18 2 18 19
M  V30 19 1 19 20
M  V30 20 2 20 21
M  V30 21 1 21 22
M  V30 22 1 22 23
M  V30 23 1 17 24
M  V30 24 2 24 25
M  V30 25 1 8 26
M  V30 26 2 26 27
M  V30 27 1 4 28
M  V30 28 2 28 29
M  V30 29 1 29 2
M  V30 30 1 27 5
M  V30 31 1 25 9
M  V30 32 1 25 14
M  V30 33 1 22 18
M  V30 34 1 1 30
M  V30 35 1 1 31
M  V30 36 1 1 32
M  V30 37 1 3 33
M  V30 38 1 6 34
M  V30 39 1 7 35
M  V30 40 1 10 36
M  V30 41 1 13 37
M  V30 42 1 13 38
M  V30 43 1 15 39
M  V30 44 1 16 40
M  V30 45 1 20 41
M  V30 46 1 21 42
M  V30 47 1 23 43
M  V30 48 1 23 44
M  V30 49 1 23 45
M  V30 50 1 26 46
M  V30 51 1 27 47
M  V30 52 1 28 48
M  V30 END BOND
M  V30 END CTAB
M  END
>  <Dataset>  (781) 
ChEMBL_Kinases

>  <Ligand_Instance>  (781) 
nan

>  <PDB_ID>  (781) 
nan

>  <Standardized_SMILES>  (781) 
Cn1cc(-c2ccc(-c3cnc(N)c4ccc(-c5nccn5C)nc34)cc2)cn1

>  <Name>  (781) 
nan

>  <Pocket>  (781) 
nan

>  <ATP_Site>  (781) 
nan

>  <Peripheral>  (781) 
nan

>  <Num_H_Atoms_ProtBoundConf>  (781) 
nan

>  <Num_Resolved_Atoms>  (781) 
nan

>  <Num_Not_Resolved_Atoms>  (781) 
nan

$$$$
CHEMBL3828120
     RDKit          3D

  0  0  0  0  0  0  0  0  0  0999 V3000
M  V30 BEGIN CTAB
M  V30 COUNTS 51 55 0 0 0
M  V30 BEGIN ATOM
M  V30 1 C 1.973637 -3.276436 6.988543 0
M  V30 2 N 2.183487 -3.253770 5.558351 0
M  V30 3 C 2.261819 -2.076011 4.866549 0
M  V30 4 C 2.443089 -2.444615 3.541935 0
M  V30 5 C 2.562959 -1.429522 2.503023 0
M  V30 6 C 3.134979 -0.189688 2.664498 0
M  V30 7 C 3.175062 0.725755 1.637785 0
M  V30 8 C 2.635364 0.414125 0.410643 0
M  V30 9 C 2.565483 1.203179 -0.830951 0
M  V30 10 C 3.577615 1.787976 -1.559183 0
M  V30 11 N 3.259983 2.435239 -2.691355 0
M  V30 12 C 2.009092 2.551309 -3.163886 0
M  V30 13 C 0.961093 1.988223 -2.475776 0
M  V30 14 C -0.331262 2.096769 -2.920213 0
M  V30 15 C -1.396803 1.554515 -2.243154 0
M  V30 16 C -1.082865 0.876192 -1.060170 0
M  V30 17 C -1.940231 0.172762 -0.079793 0
M  V30 18 O -1.832047 0.449587 1.144036 0
M  V30 19 N -2.869903 -0.806413 -0.519726 0
M  V30 20 C -3.163791 -1.248477 -1.867725 0
M  V30 21 C -4.627272 -0.839196 -2.098254 0
M  V30 22 O -5.361207 -1.662282 -1.212145 0
M  V30 23 C -5.115406 -1.338851 0.119964 0
M  V30 24 C -3.656959 -1.529811 0.482463 0
M  V30 25 N 0.193383 0.791601 -0.660639 0
M  V30 26 C 1.248544 1.309983 -1.299990 0
M  V30 27 C 2.060148 -0.864696 0.281205 0
M  V30 28 C 2.002283 -1.821618 1.304199 0
M  V30 29 C 2.470984 -3.816946 3.464765 0
M  V30 30 N 2.307977 -4.267501 4.721490 0
M  V30 31 H 1.106559 -3.924377 7.230796 0
M  V30 32 H 1.685610 -2.256328 7.376099 0
M  V30 33 H 2.839163 -3.621556 7.572197 0
M  V30 34 H 2.190915 -1.080291 5.288947 0
M  V30 35 H 3.561534 0.064557 3.618346 0
M  V30 36 H 3.601519 1.704690 1.682433 0
M  V30 37 H 4.542847 1.648458 -1.107852 0
M  V30 38 H 1.809201 3.079341 -4.085246 0
M  V30 39 H -0.606144 2.608612 -3.831218 0
M  V30 40 H -2.452207 1.553823 -2.447328 0
M  V30 41 H -3.142283 -2.357686 -1.874907 0
M  V30 42 H -2.485862 -0.809840 -2.627874 0
M  V30 43 H -4.716317 0.220088 -1.799602 0
M  V30 44 H -4.948315 -1.054047 -3.111860 0
M  V30 45 H -5.458848 -0.306255 0.360781 0
M  V30 46 H -5.748107 -2.043454 0.708101 0
M  V30 47 H -3.479447 -1.205495 1.506141 0
M  V30 48 H -3.450184 -2.627021 0.352765 0
M  V30 49 H 1.608933 -1.182504 -0.674623 0
M  V30 50 H 1.531801 -2.781810 1.100251 0
M  V30 51 H 2.608102 -4.246993 2.481823 0
M  V30 END ATOM
M  V30 BEGIN BOND
M  V30 1 1 1 2
M  V30 2 1 2 3
M  V30 3 2 3 4
M  V30 4 1 4 5
M  V30 5 2 5 6
M  V30 6 1 6 7
M  V30 7 2 7 8
M  V30 8 1 8 9
M  V30 9 2 9 10
M  V30 10 1 10 11
M  V30 11 2 11 12
M  V30 12 1 12 13
M  V30 13 2 13 14
M  V30 14 1 14 15
M  V30 15 2 15 16
M  V30 16 1 16 17
M  V30 17 2 17 18
M  V30 18 1 17 19
M  V30 19 1 19 20
M  V30 20 1 20 21
M  V30 21 1 21 22
M  V30 22 1 22 23
M  V30 23 1 23 24
M  V30 24 1 16 25
M  V30 25 2 25 26
M  V30 26 1 8 27
M  V30 27 2 27 28
M  V30 28 1 4 29
M  V30 29 2 29 30
M  V30 30 1 30 2
M  V30 31 1 28 5
M  V30 32 1 26 9
M  V30 33 1 26 13
M  V30 34 1 24 19
M  V30 35 1 1 31
M  V30 36 1 1 32
M  V30 37 1 1 33
M  V30 38 1 3 34
M  V30 39 1 6 35
M  V30 40 1 7 36
M  V30 41 1 10 37
M  V30 42 1 12 38
M  V30 43 1 14 39
M  V30 44 1 15 40
M  V30 45 1 20 41
M  V30 46 1 20 42
M  V30 47 1 21 43
M  V30 48 1 21 44
M  V30 49 1 23 45
M  V30 50 1 23 46
M  V30 51 1 24 47
M  V30 52 1 24 48
M  V30 53 1 27 49
M  V30 54 1 28 50
M  V30 55 1 29 51
M  V30 END BOND
M  V30 END CTAB
M  END
>  <Dataset>  (782) 
ChEMBL_Kinases

>  <Ligand_Instance>  (782) 
nan

>  <PDB_ID>  (782) 
nan

>  <Standardized_SMILES>  (782) 
Cn1cc(-c2ccc(-c3cncc4ccc(C(=O)N5CCOCC5)nc34)cc2)cn1

>  <Name>  (782) 
nan

>  <Pocket>  (782) 
nan

>  <ATP_Site>  (782) 
nan

>  <Peripheral>  (782) 
nan

>  <Num_H_Atoms_ProtBoundConf>  (782) 
nan

>  <Num_Resolved_Atoms>  (782) 
nan

>  <Num_Not_Resolved_Atoms>  (782) 
nan

$$$$
CHEMBL3828116
     RDKit          3D

  0  0  0  0  0  0  0  0  0  0999 V3000
M  V30 BEGIN CTAB
M  V30 COUNTS 40 43 0 0 0
M  V30 BEGIN ATOM
M  V30 1 C -0.372995 -7.389102 2.267196 0
M  V30 2 N 0.109678 -6.034544 2.054115 0
M  V30 3 C -0.539221 -4.988681 1.510339 0
M  V30 4 C 0.261277 -3.862274 1.481092 0
M  V30 5 C -0.066607 -2.536672 0.975629 0
M  V30 6 C 0.961542 -1.781278 0.437054 0
M  V30 7 C 0.722915 -0.510121 -0.063057 0
M  V30 8 C -0.568362 0.000924 -0.017462 0
M  V30 9 C -0.876448 1.331508 -0.529844 0
M  V30 10 C -2.017473 1.478425 -1.319646 0
M  V30 11 N -2.393823 2.661154 -1.842617 0
M  V30 12 C -1.636470 3.765418 -1.596525 0
M  V30 13 C -0.487249 3.680541 -0.815651 0
M  V30 14 C 0.286045 4.800949 -0.563554 0
M  V30 15 C 1.397497 4.586674 0.221584 0
M  V30 16 C 1.785858 3.377571 0.758666 0
M  V30 17 C 2.980055 3.240157 1.581799 0
M  V30 18 N 3.314864 1.964560 2.102226 0
M  V30 19 O 3.775989 4.159962 1.893862 0
M  V30 20 N 0.983452 2.314160 0.474062 0
M  V30 21 C -0.117957 2.458194 -0.288147 0
M  V30 22 C -1.570359 -0.776848 0.525411 0
M  V30 23 C -1.352659 -2.043636 1.027928 0
M  V30 24 C 1.463980 -4.292944 2.052246 0
M  V30 25 N 1.305111 -5.590752 2.369273 0
M  V30 26 H -1.377974 -7.509247 1.804189 0
M  V30 27 H 0.304019 -8.158372 1.847796 0
M  V30 28 H -0.514205 -7.598271 3.361152 0
M  V30 29 H -1.542881 -5.022913 1.147806 0
M  V30 30 H 1.989920 -2.095994 0.360853 0
M  V30 31 H 1.496477 0.108866 -0.490373 0
M  V30 32 H -2.641419 0.642548 -1.539498 0
M  V30 33 H -1.860068 4.755834 -1.973697 0
M  V30 34 H 0.029288 5.763835 -0.956723 0
M  V30 35 H 2.054434 5.408369 0.465756 0
M  V30 36 H 4.281879 1.569443 2.263120 0
M  V30 37 H 3.046508 1.035763 2.481505 0
M  V30 38 H -2.604476 -0.439201 0.592868 0
M  V30 39 H -2.132746 -2.664410 1.457107 0
M  V30 40 H 2.326083 -3.658038 2.187991 0
M  V30 END ATOM
M  V30 BEGIN BOND
M  V30 1 1 1 2
M  V30 2 1 2 3
M  V30 3 2 3 4
M  V30 4 1 4 5
M  V30 5 2 5 6
M  V30 6 1 6 7
M  V30 7 2 7 8
M  V30 8 1 8 9
M  V30 9 2 9 10
M  V30 10 1 10 11
M  V30 11 2 11 12
M  V30 12 1 12 13
M  V30 13 2 13 14
M  V30 14 1 14 15
M  V30 15 2 15 16
M  V30 16 1 16 17
M  V30 17 1 17 18
M  V30 18 2 17 19
M  V30 19 1 16 20
M  V30 20 2 20 21
M  V30 21 1 8 22
M  V30 22 2 22 23
M  V30 23 1 4 24
M  V30 24 2 24 25
M  V30 25 1 25 2
M  V30 26 1 23 5
M  V30 27 1 21 9
M  V30 28 1 21 13
M  V30 29 1 1 26
M  V30 30 1 1 27
M  V30 31 1 1 28
M  V30 32 1 3 29
M  V30 33 1 6 30
M  V30 34 1 7 31
M  V30 35 1 10 32
M  V30 36 1 12 33
M  V30 37 1 14 34
M  V30 38 1 15 35
M  V30 39 1 18 36
M  V30 40 1 18 37
M  V30 41 1 22 38
M  V30 42 1 23 39
M  V30 43 1 24 40
M  V30 END BOND
M  V30 END CTAB
M  END
>  <Dataset>  (783) 
ChEMBL_Kinases

>  <Ligand_Instance>  (783) 
nan

>  <PDB_ID>  (783) 
nan

>  <Standardized_SMILES>  (783) 
Cn1cc(-c2ccc(-c3cncc4ccc(C(N)=O)nc34)cc2)cn1

>  <Name>  (783) 
nan

>  <Pocket>  (783) 
nan

>  <ATP_Site>  (783) 
nan

>  <Peripheral>  (783) 
nan

>  <Num_H_Atoms_ProtBoundConf>  (783) 
nan

>  <Num_Resolved_Atoms>  (783) 
nan

>  <Num_Not_Resolved_Atoms>  (783) 
nan

$$$$
CHEMBL3828689
     RDKit          3D

  0  0  0  0  0  0  0  0  0  0999 V3000
M  V30 BEGIN CTAB
M  V30 COUNTS 48 52 0 0 0
M  V30 BEGIN ATOM
M  V30 1 C 6.164655 1.417131 0.002918 0
M  V30 2 N 5.194519 0.500202 0.552692 0
M  V30 3 C 3.930148 0.180580 0.244832 0
M  V30 4 C 3.436127 -0.796566 1.122198 0
M  V30 5 C 2.071355 -1.312585 0.985588 0
M  V30 6 C 1.556065 -1.361574 -0.318138 0
M  V30 7 C 0.270230 -1.856852 -0.419929 0
M  V30 8 C -0.520316 -2.294763 0.636893 0
M  V30 9 C -1.837862 -2.762160 0.229766 0
M  V30 10 C -2.059193 -4.078603 0.600666 0
M  V30 11 N -3.264796 -4.552753 0.165918 0
M  V30 12 C -4.114189 -3.809009 -0.533463 0
M  V30 13 C -3.925834 -2.499880 -0.916742 0
M  V30 14 C -4.795097 -1.727989 -1.628389 0
M  V30 15 C -4.543382 -0.417546 -1.970237 0
M  V30 16 C -3.326388 0.033903 -1.520933 0
M  V30 17 C -2.963657 1.433276 -1.839239 0
M  V30 18 O -2.861210 2.237753 -0.878985 0
M  V30 19 N -2.799805 1.563782 -3.265425 0
M  V30 20 C -2.838855 0.887543 -4.546998 0
M  V30 21 C -1.972854 1.965974 -5.112043 0
M  V30 22 F -0.621569 1.700139 -5.032178 0
M  V30 23 F -2.381837 2.425760 -6.345756 0
M  V30 24 C -2.455131 2.776195 -3.927227 0
M  V30 25 C -2.371971 -0.648319 -0.799081 0
M  V30 26 C -2.700121 -1.970736 -0.492609 0
M  V30 27 C 0.063039 -2.211766 1.877624 0
M  V30 28 C 1.336564 -1.731992 2.073055 0
M  V30 29 C 4.498275 -1.020417 1.956982 0
M  V30 30 N 5.535817 -0.236584 1.598278 0
M  V30 31 H 7.077991 0.822414 -0.233555 0
M  V30 32 H 6.377878 2.278937 0.671747 0
M  V30 33 H 5.796267 1.800351 -0.976631 0
M  V30 34 H 3.432553 0.670720 -0.598150 0
M  V30 35 H 2.133375 -1.031607 -1.171451 0
M  V30 36 H -0.080776 -1.878651 -1.459021 0
M  V30 37 H -1.393689 -4.695675 1.159396 0
M  V30 38 H -5.055207 -4.274140 -0.836266 0
M  V30 39 H -5.724814 -2.203883 -1.925164 0
M  V30 40 H -5.230882 0.192539 -2.534718 0
M  V30 41 H -2.381455 -0.125778 -4.509197 0
M  V30 42 H -3.844966 0.894107 -4.992619 0
M  V30 43 H -3.296645 3.409845 -4.265366 0
M  V30 44 H -1.614861 3.356992 -3.490875 0
M  V30 45 H -1.458795 -0.201299 -0.487467 0
M  V30 46 H -0.601548 -2.568120 2.673019 0
M  V30 47 H 1.735124 -1.694215 3.073340 0
M  V30 48 H 4.392767 -1.756619 2.761898 0
M  V30 END ATOM
M  V30 BEGIN BOND
M  V30 1 1 1 2
M  V30 2 1 2 3
M  V30 3 2 3 4
M  V30 4 1 4 5
M  V30 5 2 5 6
M  V30 6 1 6 7
M  V30 7 2 7 8
M  V30 8 1 8 9
M  V30 9 2 9 10
M  V30 10 1 10 11
M  V30 11 2 11 12
M  V30 12 1 12 13
M  V30 13 2 13 14
M  V30 14 1 14 15
M  V30 15 2 15 16
M  V30 16 1 16 17
M  V30 17 2 17 18
M  V30 18 1 17 19
M  V30 19 1 19 20
M  V30 20 1 20 21
M  V30 21 1 21 22
M  V30 22 1 21 23
M  V30 23 1 21 24
M  V30 24 1 16 25
M  V30 25 2 25 26
M  V30 26 1 8 27
M  V30 27 2 27 28
M  V30 28 1 4 29
M  V30 29 2 29 30
M  V30 30 1 30 2
M  V30 31 1 28 5
M  V30 32 1 26 9
M  V30 33 1 26 13
M  V30 34 1 24 19
M  V30 35 1 1 31
M  V30 36 1 1 32
M  V30 37 1 1 33
M  V30 38 1 3 34
M  V30 39 1 6 35
M  V30 40 1 7 36
M  V30 41 1 10 37
M  V30 42 1 12 38
M  V30 43 1 14 39
M  V30 44 1 15 40
M  V30 45 1 20 41
M  V30 46 1 20 42
M  V30 47 1 24 43
M  V30 48 1 24 44
M  V30 49 1 25 45
M  V30 50 1 27 46
M  V30 51 1 28 47
M  V30 52 1 29 48
M  V30 END BOND
M  V30 END CTAB
M  END
>  <Dataset>  (784) 
ChEMBL_Kinases

>  <Ligand_Instance>  (784) 
nan

>  <PDB_ID>  (784) 
nan

>  <Standardized_SMILES>  (784) 
Cn1cc(-c2ccc(-c3cncc4ccc(C(=O)N5CC(F)(F)C5)cc34)cc2)cn1

>  <Name>  (784) 
nan

>  <Pocket>  (784) 
nan

>  <ATP_Site>  (784) 
nan

>  <Peripheral>  (784) 
nan

>  <Num_H_Atoms_ProtBoundConf>  (784) 
nan

>  <Num_Resolved_Atoms>  (784) 
nan

>  <Num_Not_Resolved_Atoms>  (784) 
nan

$$$$
CHEMBL3828098
     RDKit          3D

  0  0  0  0  0  0  0  0  0  0999 V3000
M  V30 BEGIN CTAB
M  V30 COUNTS 46 49 0 0 0
M  V30 BEGIN ATOM
M  V30 1 C 5.854208 -1.232458 0.878505 0
M  V30 2 C 4.970317 -0.687584 -0.203257 0
M  V30 3 N 5.079049 -1.139167 -1.482938 0
M  V30 4 C 4.183665 -0.500296 -2.259476 0
M  V30 5 C 3.839355 -0.537208 -3.596281 0
M  V30 6 C 2.846462 0.260747 -4.128607 0
M  V30 7 C 2.213622 1.105065 -3.234479 0
M  V30 8 C 2.492713 1.206719 -1.887350 0
M  V30 9 C 3.509546 0.367462 -1.423247 0
M  V30 10 N 3.988260 0.253995 -0.170078 0
M  V30 11 C 3.615711 0.940817 1.053586 0
M  V30 12 C 2.530370 0.103661 1.681365 0
M  V30 13 O 2.812747 -0.533585 0.633204 0
M  V30 14 N 1.903555 0.458324 2.911263 0
M  V30 15 N 0.932352 -0.511149 3.245029 0
M  V30 16 C -0.411463 -0.422197 2.832067 0
M  V30 17 O -0.874646 0.514202 2.135791 0
M  V30 18 C -1.284661 -1.555174 3.291992 0
M  V30 19 C -2.676323 -1.403317 2.827762 0
M  V30 20 C -3.739741 -0.779136 3.422492 0
M  V30 21 C -4.856042 -0.895499 2.605131 0
M  V30 22 C -6.146499 -0.469154 2.708221 0
M  V30 23 C -7.051377 -0.758082 1.682087 0
M  V30 24 C -6.605254 -1.474570 0.583131 0
M  V30 25 C -5.300562 -1.914157 0.462948 0
M  V30 26 C -4.438770 -1.614199 1.486537 0
M  V30 27 N -3.136435 -1.891679 1.667997 0
M  V30 28 H 6.933019 -1.131945 0.631262 0
M  V30 29 H 5.605257 -0.824143 1.856675 0
M  V30 30 H 5.638551 -2.332430 0.946077 0
M  V30 31 H 4.370718 -1.223602 -4.264219 0
M  V30 32 H 2.546380 0.262775 -5.168100 0
M  V30 33 H 1.421763 1.748490 -3.633216 0
M  V30 34 H 1.972421 1.875527 -1.245391 0
M  V30 35 H 4.486319 1.025081 1.732524 0
M  V30 36 H 3.186128 1.920885 0.755201 0
M  V30 37 H 2.280263 1.345822 3.311075 0
M  V30 38 H 1.317249 -1.303134 3.832074 0
M  V30 39 H -1.202518 -1.596667 4.401311 0
M  V30 40 H -0.861624 -2.502541 2.903932 0
M  V30 41 H -3.723475 -0.267989 4.386265 0
M  V30 42 H -6.431651 0.085419 3.591159 0
M  V30 43 H -8.085985 -0.419249 1.759175 0
M  V30 44 H -7.293124 -1.705702 -0.218391 0
M  V30 45 H -4.954989 -2.464421 -0.379445 0
M  V30 46 H -2.566564 -2.431027 0.966541 0
M  V30 END ATOM
M  V30 BEGIN BOND
M  V30 1 1 1 2
M  V30 2 2 2 3
M  V30 3 1 3 4
M  V30 4 2 4 5
M  V30 5 1 5 6
M  V30 6 2 6 7
M  V30 7 1 7 8
M  V30 8 2 8 9
M  V30 9 1 9 10
M  V30 10 1 10 11
M  V30 11 1 11 12
M  V30 12 2 12 13
M  V30 13 1 12 14
M  V30 14 1 14 15
M  V30 15 1 15 16
M  V30 16 2 16 17
M  V30 17 1 16 18
M  V30 18 1 18 19
M  V30 19 2 19 20
M  V30 20 1 20 21
M  V30 21 2 21 22
M  V30 22 1 22 23
M  V30 23 2 23 24
M  V30 24 1 24 25
M  V30 25 2 25 26
M  V30 26 1 26 27
M  V30 27 1 10 2
M  V30 28 1 27 19
M  V30 29 1 9 4
M  V30 30 1 26 21
M  V30 31 1 1 28
M  V30 32 1 1 29
M  V30 33 1 1 30
M  V30 34 1 5 31
M  V30 35 1 6 32
M  V30 36 1 7 33
M  V30 37 1 8 34
M  V30 38 1 11 35
M  V30 39 1 11 36
M  V30 40 1 14 37
M  V30 41 1 15 38
M  V30 42 1 18 39
M  V30 43 1 18 40
M  V30 44 1 20 41
M  V30 45 1 22 42
M  V30 46 1 23 43
M  V30 47 1 24 44
M  V30 48 1 25 45
M  V30 49 1 27 46
M  V30 END BOND
M  V30 END CTAB
M  END
>  <Dataset>  (785) 
ChEMBL_Kinases

>  <Ligand_Instance>  (785) 
nan

>  <PDB_ID>  (785) 
nan

>  <Standardized_SMILES>  (785) 
Cc1nc2ccccc2n1CC(=O)NNC(=O)Cc1cc2ccccc2[nH]1

>  <Name>  (785) 
nan

>  <Pocket>  (785) 
nan

>  <ATP_Site>  (785) 
nan

>  <Peripheral>  (785) 
nan

>  <Num_H_Atoms_ProtBoundConf>  (785) 
nan

>  <Num_Resolved_Atoms>  (785) 
nan

>  <Num_Not_Resolved_Atoms>  (785) 
nan

$$$$
CHEMBL3702226
     RDKit          3D

  0  0  0  0  0  0  0  0  0  0999 V3000
M  V30 BEGIN CTAB
M  V30 COUNTS 65 69 0 0 0
M  V30 BEGIN ATOM
M  V30 1 C 4.129819 0.844335 3.999369 0
M  V30 2 C 2.766463 0.399573 3.527639 0
M  V30 3 C 2.542217 0.599696 2.047553 0 CFG=2
M  V30 4 C 3.530642 -0.159796 1.201125 0
M  V30 5 N 2.316699 1.959183 1.666272 0
M  V30 6 C 3.108840 2.945468 1.223636 0
M  V30 7 C 4.465327 2.930282 0.993778 0
M  V30 8 N 5.062093 4.044894 0.546544 0
M  V30 9 C 4.407177 5.203986 0.301478 0
M  V30 10 C 3.022472 5.265807 0.520510 0
M  V30 11 C 2.431234 4.116209 0.977896 0
M  V30 12 C 1.122415 3.843843 1.287556 0
M  V30 13 C -0.039455 4.542795 1.266281 0
M  V30 14 N -1.224035 3.999613 1.634354 0
M  V30 15 C -1.296649 2.714445 2.046385 0
M  V30 16 N -2.262467 1.756425 2.487061 0
M  V30 17 C -2.617394 0.711080 1.591154 0
M  V30 18 C -3.524061 -0.264927 2.027815 0
M  V30 19 C -3.818081 -1.272567 1.120474 0
M  V30 20 C -3.228213 -1.271432 -0.127844 0
M  V30 21 N -3.501518 -2.307844 -1.054873 0
M  V30 22 C -4.071399 -3.624704 -0.818564 0
M  V30 23 C -3.679450 -4.622330 -1.850374 0
M  V30 24 C -2.342755 -4.475262 -2.468256 0
M  V30 25 N -1.273419 -5.231478 -1.868334 0
M  V30 26 C -1.419227 -6.667106 -1.990686 0
M  V30 27 C -0.919713 -4.834837 -0.534235 0
M  V30 28 C -2.002842 -3.044542 -2.715935 0
M  V30 29 C -3.260098 -2.231220 -2.481588 0
M  V30 30 C -2.343363 -0.303415 -0.535994 0
M  V30 31 N -2.074253 0.662322 0.363165 0
M  V30 32 N -0.138016 2.030915 2.063793 0
M  V30 33 C 1.068092 2.536418 1.702984 0
M  V30 34 H 4.094612 0.768303 5.113843 0
M  V30 35 H 4.387791 1.876276 3.771219 0
M  V30 36 H 4.902700 0.091910 3.680787 0
M  V30 37 H 2.634068 -0.666098 3.793663 0
M  V30 38 H 1.987781 0.978175 4.065837 0
M  V30 39 H 1.560516 0.053701 1.863105 0
M  V30 40 H 3.546558 0.231729 0.168289 0
M  V30 41 H 4.536523 -0.263857 1.660695 0
M  V30 42 H 3.199737 -1.235527 1.078153 0
M  V30 43 H 5.039347 2.028767 1.172901 0
M  V30 44 H 4.979913 6.062772 -0.060589 0
M  V30 45 H 2.492759 6.174686 0.331641 0
M  V30 46 H -0.091122 5.569834 0.955141 0
M  V30 47 H -2.687417 1.834200 3.433690 0
M  V30 48 H -3.918090 -0.157260 3.023314 0
M  V30 49 H -4.502685 -2.016838 1.440763 0
M  V30 50 H -3.776351 -3.995507 0.178814 0
M  V30 51 H -5.186903 -3.490796 -0.903098 0
M  V30 52 H -4.483539 -4.740657 -2.645293 0
M  V30 53 H -3.718177 -5.631812 -1.337209 0
M  V30 54 H -2.425843 -4.931344 -3.518565 0
M  V30 55 H -0.941671 -6.948083 -2.966674 0
M  V30 56 H -2.438069 -7.040775 -1.988527 0
M  V30 57 H -0.770030 -7.114713 -1.181767 0
M  V30 58 H -0.004182 -5.452595 -0.283544 0
M  V30 59 H -0.588979 -3.795680 -0.532764 0
M  V30 60 H -1.667640 -5.107772 0.223852 0
M  V30 61 H -1.257887 -2.634021 -1.990525 0
M  V30 62 H -1.588161 -2.865086 -3.736048 0
M  V30 63 H -4.112900 -2.595544 -3.096704 0
M  V30 64 H -2.992873 -1.189925 -2.794261 0
M  V30 65 H -1.827929 -0.200099 -1.465485 0
M  V30 END ATOM
M  V30 BEGIN BOND
M  V30 1 1 1 2
M  V30 2 1 2 3
M  V30 3 1 3 4
M  V30 4 1 3 5
M  V30 5 1 5 6
M  V30 6 2 6 7
M  V30 7 1 7 8
M  V30 8 2 8 9
M  V30 9 1 9 10
M  V30 10 2 10 11
M  V30 11 1 11 12
M  V30 12 2 12 13
M  V30 13 1 13 14
M  V30 14 2 14 15
M  V30 15 1 15 16
M  V30 16 1 16 17
M  V30 17 2 17 18
M  V30 18 1 18 19
M  V30 19 2 19 20
M  V30 20 1 20 21
M  V30 21 1 21 22
M  V30 22 1 22 23
M  V30 23 1 23 24
M  V30 24 1 24 25
M  V30 25 1 25 26
M  V30 26 1 25 27
M  V30 27 1 24 28
M  V30 28 1 28 29
M  V30 29 1 20 30
M  V30 30 2 30 31
M  V30 31 1 15 32
M  V30 32 2 32 33
M  V30 33 1 33 5
M  V30 34 1 11 6
M  V30 35 1 33 12
M  V30 36 1 31 17
M  V30 37 1 29 21
M  V30 38 1 1 34
M  V30 39 1 1 35
M  V30 40 1 1 36
M  V30 41 1 2 37
M  V30 42 1 2 38
M  V30 43 1 3 39 CFG=3
M  V30 44 1 4 40
M  V30 45 1 4 41
M  V30 46 1 4 42
M  V30 47 1 7 43
M  V30 48 1 9 44
M  V30 49 1 10 45
M  V30 50 1 13 46
M  V30 51 1 16 47
M  V30 52 1 18 48
M  V30 53 1 19 49
M  V30 54 1 22 50
M  V30 55 1 22 51
M  V30 56 1 23 52
M  V30 57 1 23 53
M  V30 58 1 24 54
M  V30 59 1 26 55
M  V30 60 1 26 56
M  V30 61 1 26 57
M  V30 62 1 27 58
M  V30 63 1 27 59
M  V30 64 1 27 60
M  V30 65 1 28 61
M  V30 66 1 28 62
M  V30 67 1 29 63
M  V30 68 1 29 64
M  V30 69 1 30 65
M  V30 END BOND
M  V30 END CTAB
M  END
>  <Dataset>  (786) 
ChEMBL_Kinases

>  <Ligand_Instance>  (786) 
nan

>  <PDB_ID>  (786) 
nan

>  <Standardized_SMILES>  (786) 
CC[C@H](C)n1c2cnccc2c2cnc(Nc3ccc(N4CCC(N(C)C)CC4)cn3)nc21

>  <Name>  (786) 
nan

>  <Pocket>  (786) 
nan

>  <ATP_Site>  (786) 
nan

>  <Peripheral>  (786) 
nan

>  <Num_H_Atoms_ProtBoundConf>  (786) 
nan

>  <Num_Resolved_Atoms>  (786) 
nan

>  <Num_Not_Resolved_Atoms>  (786) 
nan

$$$$
CHEMBL3828084
     RDKit          3D

  0  0  0  0  0  0  0  0  0  0999 V3000
M  V30 BEGIN CTAB
M  V30 COUNTS 49 53 0 0 0
M  V30 BEGIN ATOM
M  V30 1 C -2.282608 -6.784285 2.091338 0
M  V30 2 N -1.223258 -6.196367 1.273793 0
M  V30 3 C -0.999294 -4.865501 1.213281 0
M  V30 4 C 0.082025 -4.726237 0.335160 0
M  V30 5 C 0.623525 -3.408863 0.012838 0
M  V30 6 C 1.961473 -3.240092 -0.282784 0
M  V30 7 C 2.501834 -2.007129 -0.589615 0
M  V30 8 C 1.683928 -0.894369 -0.604931 0
M  V30 9 C 2.068767 0.491585 -0.905956 0
M  V30 10 C 2.884458 0.805083 -1.989103 0
M  V30 11 N 3.225212 2.100939 -2.246011 0
M  V30 12 C 2.757807 3.090531 -1.429446 0
M  V30 13 N 3.151786 4.425699 -1.753436 0
M  V30 14 C 1.948694 2.850312 -0.342966 0
M  V30 15 C 1.514328 3.898372 0.437987 0
M  V30 16 C 0.705041 3.612533 1.517350 0
M  V30 17 C 0.366727 2.299226 1.768153 0
M  V30 18 C -0.471163 1.774838 2.847511 0
M  V30 19 O -0.149713 1.724762 4.082159 0
M  V30 20 N -1.767166 1.259458 2.574233 0
M  V30 21 C -2.782921 0.688722 3.445666 0
M  V30 22 C -3.845702 0.857559 2.379098 0
M  V30 23 C -2.674765 1.044422 1.436316 0
M  V30 24 N 0.810915 1.302237 0.982107 0
M  V30 25 C 1.602314 1.524358 -0.083111 0
M  V30 26 C 0.327405 -1.037642 -0.309799 0
M  V30 27 C -0.212224 -2.285615 -0.000519 0
M  V30 28 C 0.471463 -5.976360 -0.102290 0
M  V30 29 N -0.362420 -6.869322 0.501663 0
M  V30 30 H -2.412333 -6.282995 3.061015 0
M  V30 31 H -3.241217 -6.641001 1.524002 0
M  V30 32 H -2.077422 -7.868829 2.267748 0
M  V30 33 H -1.563079 -4.101892 1.748948 0
M  V30 34 H 2.635677 -4.087681 -0.281419 0
M  V30 35 H 3.535978 -1.804038 -0.829395 0
M  V30 36 H 3.225727 -0.019396 -2.601813 0
M  V30 37 H 3.631974 5.228443 -1.245904 0
M  V30 38 H 3.114142 5.081643 -2.579399 0
M  V30 39 H 1.773194 4.921843 0.250386 0
M  V30 40 H 0.297638 4.314754 2.201806 0
M  V30 41 H -2.536444 -0.380289 3.613022 0
M  V30 42 H -3.043564 1.276538 4.338030 0
M  V30 43 H -4.442085 -0.048562 2.186891 0
M  V30 44 H -4.491266 1.737131 2.476501 0
M  V30 45 H -2.827970 1.932553 0.796493 0
M  V30 46 H -2.498371 0.116057 0.881034 0
M  V30 47 H -0.434558 -0.283100 -0.278410 0
M  V30 48 H -1.240763 -2.481576 0.236858 0
M  V30 49 H 1.271172 -6.175909 -0.779478 0
M  V30 END ATOM
M  V30 BEGIN BOND
M  V30 1 1 1 2
M  V30 2 1 2 3
M  V30 3 2 3 4
M  V30 4 1 4 5
M  V30 5 2 5 6
M  V30 6 1 6 7
M  V30 7 2 7 8
M  V30 8 1 8 9
M  V30 9 2 9 10
M  V30 10 1 10 11
M  V30 11 2 11 12
M  V30 12 1 12 13
M  V30 13 1 12 14
M  V30 14 2 14 15
M  V30 15 1 15 16
M  V30 16 2 16 17
M  V30 17 1 17 18
M  V30 18 2 18 19
M  V30 19 1 18 20
M  V30 20 1 20 21
M  V30 21 1 21 22
M  V30 22 1 22 23
M  V30 23 1 17 24
M  V30 24 2 24 25
M  V30 25 1 8 26
M  V30 26 2 26 27
M  V30 27 1 4 28
M  V30 28 2 28 29
M  V30 29 1 29 2
M  V30 30 1 27 5
M  V30 31 1 25 9
M  V30 32 1 25 14
M  V30 33 1 23 20
M  V30 34 1 1 30
M  V30 35 1 1 31
M  V30 36 1 1 32
M  V30 37 1 3 33
M  V30 38 1 6 34
M  V30 39 1 7 35
M  V30 40 1 10 36
M  V30 41 1 13 37
M  V30 42 1 13 38
M  V30 43 1 15 39
M  V30 44 1 16 40
M  V30 45 1 21 41
M  V30 46 1 21 42
M  V30 47 1 22 43
M  V30 48 1 22 44
M  V30 49 1 23 45
M  V30 50 1 23 46
M  V30 51 1 26 47
M  V30 52 1 27 48
M  V30 53 1 28 49
M  V30 END BOND
M  V30 END CTAB
M  END
>  <Dataset>  (787) 
ChEMBL_Kinases

>  <Ligand_Instance>  (787) 
nan

>  <PDB_ID>  (787) 
nan

>  <Standardized_SMILES>  (787) 
Cn1cc(-c2ccc(-c3cnc(N)c4ccc(C(=O)N5CCC5)nc34)cc2)cn1

>  <Name>  (787) 
nan

>  <Pocket>  (787) 
nan

>  <ATP_Site>  (787) 
nan

>  <Peripheral>  (787) 
nan

>  <Num_H_Atoms_ProtBoundConf>  (787) 
nan

>  <Num_Resolved_Atoms>  (787) 
nan

>  <Num_Not_Resolved_Atoms>  (787) 
nan

$$$$
CHEMBL3828071
     RDKit          3D

  0  0  0  0  0  0  0  0  0  0999 V3000
M  V30 BEGIN CTAB
M  V30 COUNTS 49 53 0 0 0
M  V30 BEGIN ATOM
M  V30 1 C -0.342594 -7.149891 -1.465549 0
M  V30 2 N 0.571164 -6.390896 -0.606713 0
M  V30 3 C 0.490470 -5.041385 -0.507098 0
M  V30 4 C 1.520898 -4.725669 0.390359 0
M  V30 5 C 1.768849 -3.313167 0.762560 0
M  V30 6 C 1.503585 -2.330779 -0.200497 0
M  V30 7 C 1.735318 -0.992592 0.133779 0
M  V30 8 C 2.219443 -0.655940 1.399943 0
M  V30 9 C 2.384107 0.783783 1.557878 0
M  V30 10 C 3.485799 1.457267 2.034734 0
M  V30 11 N 3.523473 2.798607 2.124738 0
M  V30 12 C 2.475856 3.569837 1.750077 0
M  V30 13 N 2.438016 4.990119 1.813288 0
M  V30 14 C 1.331477 2.970387 1.260384 0
M  V30 15 C 0.234720 3.704210 0.866458 0
M  V30 16 C -0.894296 3.074574 0.384111 0
M  V30 17 C -0.878442 1.713550 0.314791 0
M  V30 18 C -1.962572 0.824799 -0.170332 0
M  V30 19 O -1.655425 -0.075718 -1.020672 0
M  V30 20 N -3.295632 1.038856 0.352704 0
M  V30 21 C -4.130168 1.843074 1.255024 0
M  V30 22 C -5.083487 0.674271 1.358950 0
M  V30 23 F -6.432030 1.032040 1.317867 0
M  V30 24 F -4.794026 -0.211618 2.376101 0
M  V30 25 C -4.516742 0.295641 0.019909 0
M  V30 26 N 0.187648 0.998436 0.697669 0
M  V30 27 C 1.296833 1.582062 1.169315 0
M  V30 28 C 2.468695 -1.652213 2.321409 0
M  V30 29 C 2.249425 -2.979692 2.019164 0
M  V30 30 C 2.178253 -5.868527 0.797303 0
M  V30 31 N 1.552276 -6.893726 0.148804 0
M  V30 32 H -0.043344 -6.871305 -2.512700 0
M  V30 33 H -0.237998 -8.227303 -1.368912 0
M  V30 34 H -1.356262 -6.735937 -1.346466 0
M  V30 35 H -0.202430 -4.412359 -1.006830 0
M  V30 36 H 1.131432 -2.674723 -1.151825 0
M  V30 37 H 1.485797 -0.360978 -0.714688 0
M  V30 38 H 4.315945 0.833373 2.331003 0
M  V30 39 H 2.458274 5.714316 1.085997 0
M  V30 40 H 2.378775 5.394960 2.752335 0
M  V30 41 H 0.227330 4.783874 0.924150 0
M  V30 42 H -1.795611 3.545822 0.052510 0
M  V30 43 H -3.698425 2.053718 2.240379 0
M  V30 44 H -4.662644 2.683024 0.742710 0
M  V30 45 H -5.035313 0.787550 -0.819926 0
M  V30 46 H -4.301032 -0.769642 -0.128420 0
M  V30 47 H 2.839823 -1.293505 3.271296 0
M  V30 48 H 2.448797 -3.732042 2.751914 0
M  V30 49 H 3.008895 -5.895994 1.486617 0
M  V30 END ATOM
M  V30 BEGIN BOND
M  V30 1 1 1 2
M  V30 2 1 2 3
M  V30 3 2 3 4
M  V30 4 1 4 5
M  V30 5 2 5 6
M  V30 6 1 6 7
M  V30 7 2 7 8
M  V30 8 1 8 9
M  V30 9 2 9 10
M  V30 10 1 10 11
M  V30 11 2 11 12
M  V30 12 1 12 13
M  V30 13 1 12 14
M  V30 14 2 14 15
M  V30 15 1 15 16
M  V30 16 2 16 17
M  V30 17 1 17 18
M  V30 18 2 18 19
M  V30 19 1 18 20
M  V30 20 1 20 21
M  V30 21 1 21 22
M  V30 22 1 22 23
M  V30 23 1 22 24
M  V30 24 1 22 25
M  V30 25 1 17 26
M  V30 26 2 26 27
M  V30 27 1 8 28
M  V30 28 2 28 29
M  V30 29 1 4 30
M  V30 30 2 30 31
M  V30 31 1 31 2
M  V30 32 1 29 5
M  V30 33 1 27 9
M  V30 34 1 27 14
M  V30 35 1 25 20
M  V30 36 1 1 32
M  V30 37 1 1 33
M  V30 38 1 1 34
M  V30 39 1 3 35
M  V30 40 1 6 36
M  V30 41 1 7 37
M  V30 42 1 10 38
M  V30 43 1 13 39
M  V30 44 1 13 40
M  V30 45 1 15 41
M  V30 46 1 16 42
M  V30 47 1 21 43
M  V30 48 1 21 44
M  V30 49 1 25 45
M  V30 50 1 25 46
M  V30 51 1 28 47
M  V30 52 1 29 48
M  V30 53 1 30 49
M  V30 END BOND
M  V30 END CTAB
M  END
>  <Dataset>  (788) 
ChEMBL_Kinases

>  <Ligand_Instance>  (788) 
nan

>  <PDB_ID>  (788) 
nan

>  <Standardized_SMILES>  (788) 
Cn1cc(-c2ccc(-c3cnc(N)c4ccc(C(=O)N5CC(F)(F)C5)nc34)cc2)cn1

>  <Name>  (788) 
nan

>  <Pocket>  (788) 
nan

>  <ATP_Site>  (788) 
nan

>  <Peripheral>  (788) 
nan

>  <Num_H_Atoms_ProtBoundConf>  (788) 
nan

>  <Num_Resolved_Atoms>  (788) 
nan

>  <Num_Not_Resolved_Atoms>  (788) 
nan

$$$$
CHEMBL3828006
     RDKit          3D

  0  0  0  0  0  0  0  0  0  0999 V3000
M  V30 BEGIN CTAB
M  V30 COUNTS 38 41 0 0 0
M  V30 BEGIN ATOM
M  V30 1 C -1.036791 -2.580976 -2.737104 0
M  V30 2 C 0.237208 -2.646219 -1.988984 0
M  V30 3 N 0.726995 -3.793454 -1.453651 0
M  V30 4 C 1.893711 -3.539582 -0.844037 0
M  V30 5 C 2.825431 -4.296392 -0.143460 0
M  V30 6 C 3.963817 -3.656486 0.365704 0
M  V30 7 C 4.175921 -2.288221 0.184418 0
M  V30 8 C 3.219827 -1.583074 -0.519451 0
M  V30 9 C 2.090386 -2.183507 -1.033104 0
M  V30 10 N 1.090474 -1.632807 -1.727436 0
M  V30 11 C 0.823487 -0.289070 -2.175619 0
M  V30 12 C 0.051157 0.493399 -1.176293 0
M  V30 13 N -1.108207 0.561823 -0.965914 0
M  V30 14 N -1.769704 1.240136 -0.114376 0
M  V30 15 C -1.048051 2.031439 0.709203 0
M  V30 16 N -1.725156 2.855150 1.734018 0
M  V30 17 C -1.745749 2.292329 3.034552 0
M  V30 18 C -1.034163 1.127431 3.294220 0
M  V30 19 C -1.040826 0.569445 4.555776 0
M  V30 20 C -1.759077 1.156726 5.598562 0
M  V30 21 F -1.800006 0.654129 6.854995 0
M  V30 22 C -2.473138 2.317197 5.354820 0
M  V30 23 C -2.451780 2.857280 4.086478 0
M  V30 24 S 0.728043 1.694050 0.121187 0
M  V30 25 H -1.588165 -3.531242 -2.692216 0
M  V30 26 H -1.689709 -1.793380 -2.332940 0
M  V30 27 H -0.829432 -2.396814 -3.821319 0
M  V30 28 H 2.616393 -5.343755 -0.031322 0
M  V30 29 H 4.672222 -4.289820 0.907657 0
M  V30 30 H 5.083290 -1.897197 0.617570 0
M  V30 31 H 3.396695 -0.515456 -0.655053 0
M  V30 32 H 0.238633 -0.263870 -3.086690 0
M  V30 33 H 1.834709 0.181541 -2.351151 0
M  V30 34 H -2.111008 3.754527 1.397396 0
M  V30 35 H -0.455595 0.623882 2.515951 0
M  V30 36 H -0.484910 -0.337457 4.743343 0
M  V30 37 H -3.066638 2.858466 6.082944 0
M  V30 38 H -2.975574 3.768697 3.773506 0
M  V30 END ATOM
M  V30 BEGIN BOND
M  V30 1 1 1 2
M  V30 2 2 2 3
M  V30 3 1 3 4
M  V30 4 2 4 5
M  V30 5 1 5 6
M  V30 6 2 6 7
M  V30 7 1 7 8
M  V30 8 2 8 9
M  V30 9 1 9 10
M  V30 10 1 10 11
M  V30 11 1 11 12
M  V30 12 2 12 13
M  V30 13 1 13 14
M  V30 14 2 14 15
M  V30 15 1 15 16
M  V30 16 1 16 17
M  V30 17 2 17 18
M  V30 18 1 18 19
M  V30 19 2 19 20
M  V30 20 1 20 21
M  V30 21 1 20 22
M  V30 22 2 22 23
M  V30 23 1 15 24
M  V30 24 1 10 2
M  V30 25 1 24 12
M  V30 26 1 9 4
M  V30 27 1 23 17
M  V30 28 1 1 25
M  V30 29 1 1 26
M  V30 30 1 1 27
M  V30 31 1 5 28
M  V30 32 1 6 29
M  V30 33 1 7 30
M  V30 34 1 8 31
M  V30 35 1 11 32
M  V30 36 1 11 33
M  V30 37 1 16 34
M  V30 38 1 18 35
M  V30 39 1 19 36
M  V30 40 1 22 37
M  V30 41 1 23 38
M  V30 END BOND
M  V30 END CTAB
M  END
>  <Dataset>  (789) 
ChEMBL_Kinases

>  <Ligand_Instance>  (789) 
nan

>  <PDB_ID>  (789) 
nan

>  <Standardized_SMILES>  (789) 
Cc1nc2ccccc2n1Cc1nnc(Nc2ccc(F)cc2)s1

>  <Name>  (789) 
nan

>  <Pocket>  (789) 
nan

>  <ATP_Site>  (789) 
nan

>  <Peripheral>  (789) 
nan

>  <Num_H_Atoms_ProtBoundConf>  (789) 
nan

>  <Num_Resolved_Atoms>  (789) 
nan

>  <Num_Not_Resolved_Atoms>  (789) 
nan

$$$$
CHEMBL3828003
     RDKit          3D

  0  0  0  0  0  0  0  0  0  0999 V3000
M  V30 BEGIN CTAB
M  V30 COUNTS 44 47 0 0 0
M  V30 BEGIN ATOM
M  V30 1 C -2.194556 -4.729037 -0.356899 0
M  V30 2 N -1.573852 -3.501573 -0.846516 0
M  V30 3 C -1.519696 -3.105837 -2.209197 0
M  V30 4 O -2.025435 -3.821184 -3.110524 0
M  V30 5 C -0.882970 -1.864815 -2.630894 0
M  V30 6 C -0.887869 -1.570367 -3.997284 0
M  V30 7 C -0.289698 -0.391668 -4.453009 0
M  V30 8 C 0.310235 0.499687 -3.598800 0
M  V30 9 C 0.911875 1.664479 -4.028140 0
M  V30 10 N 1.486724 2.484275 -3.115470 0
M  V30 11 C 1.472571 2.165909 -1.788146 0
M  V30 12 C 0.876005 0.997252 -1.296221 0
M  V30 13 C 0.925288 0.822577 0.125476 0
M  V30 14 C -0.066868 0.563424 1.047017 0
M  V30 15 C 0.205167 0.411954 2.390098 0
M  V30 16 C 1.488908 0.512571 2.884612 0
M  V30 17 C 1.661338 0.334678 4.322279 0
M  V30 18 C 2.766991 -0.192316 4.970165 0
M  V30 19 N 2.527448 -0.182740 6.296522 0
M  V30 20 N 1.320783 0.328509 6.486049 0
M  V30 21 C 0.750507 0.482137 7.816394 0
M  V30 22 C 0.745006 0.663729 5.296683 0
M  V30 23 C 2.499763 0.771936 1.983584 0
M  V30 24 C 2.218701 0.922043 0.639864 0
M  V30 25 C 0.303077 0.189315 -2.255126 0
M  V30 26 C -0.274664 -0.954599 -1.794440 0
M  V30 27 H -2.899423 -5.168493 -1.097494 0
M  V30 28 H -1.431504 -5.467598 -0.072113 0
M  V30 29 H -2.792551 -4.538226 0.569984 0
M  V30 30 H -1.164839 -2.926866 -0.098319 0
M  V30 31 H -1.337252 -2.210405 -4.760808 0
M  V30 32 H -0.286231 -0.148996 -5.517440 0
M  V30 33 H 0.885805 1.851847 -5.083348 0
M  V30 34 H 1.958179 2.877977 -1.104286 0
M  V30 35 H -1.056439 0.502598 0.620781 0
M  V30 36 H -0.649648 0.210714 3.023751 0
M  V30 37 H 3.632204 -0.528866 4.412832 0
M  V30 38 H 0.858048 -0.471932 8.364872 0
M  V30 39 H 1.192981 1.356007 8.304696 0
M  V30 40 H -0.353249 0.637671 7.667141 0
M  V30 41 H -0.242555 1.100340 5.198353 0
M  V30 42 H 3.496242 0.846286 2.395198 0
M  V30 43 H 3.117345 1.124516 0.041384 0
M  V30 44 H -0.284008 -1.217729 -0.765672 0
M  V30 END ATOM
M  V30 BEGIN BOND
M  V30 1 1 1 2
M  V30 2 1 2 3
M  V30 3 2 3 4
M  V30 4 1 3 5
M  V30 5 2 5 6
M  V30 6 1 6 7
M  V30 7 2 7 8
M  V30 8 1 8 9
M  V30 9 2 9 10
M  V30 10 1 10 11
M  V30 11 2 11 12
M  V30 12 1 12 13
M  V30 13 2 13 14
M  V30 14 1 14 15
M  V30 15 2 15 16
M  V30 16 1 16 17
M  V30 17 1 17 18
M  V30 18 2 18 19
M  V30 19 1 19 20
M  V30 20 1 20 21
M  V30 21 1 20 22
M  V30 22 1 16 23
M  V30 23 2 23 24
M  V30 24 1 12 25
M  V30 25 2 25 26
M  V30 26 1 26 5
M  V30 27 1 25 8
M  V30 28 1 24 13
M  V30 29 2 22 17
M  V30 30 1 1 27
M  V30 31 1 1 28
M  V30 32 1 1 29
M  V30 33 1 2 30
M  V30 34 1 6 31
M  V30 35 1 7 32
M  V30 36 1 9 33
M  V30 37 1 11 34
M  V30 38 1 14 35
M  V30 39 1 15 36
M  V30 40 1 18 37
M  V30 41 1 21 38
M  V30 42 1 21 39
M  V30 43 1 21 40
M  V30 44 1 22 41
M  V30 45 1 23 42
M  V30 46 1 24 43
M  V30 47 1 26 44
M  V30 END BOND
M  V30 END CTAB
M  END
>  <Dataset>  (790) 
ChEMBL_Kinases

>  <Ligand_Instance>  (790) 
nan

>  <PDB_ID>  (790) 
nan

>  <Standardized_SMILES>  (790) 
CNC(=O)c1ccc2cncc(-c3ccc(-c4cnn(C)c4)cc3)c2c1

>  <Name>  (790) 
nan

>  <Pocket>  (790) 
nan

>  <ATP_Site>  (790) 
nan

>  <Peripheral>  (790) 
nan

>  <Num_H_Atoms_ProtBoundConf>  (790) 
nan

>  <Num_Resolved_Atoms>  (790) 
nan

>  <Num_Not_Resolved_Atoms>  (790) 
nan

$$$$
CHEMBL382799
     RDKit          3D

  0  0  0  0  0  0  0  0  0  0999 V3000
M  V30 BEGIN CTAB
M  V30 COUNTS 41 44 0 0 0
M  V30 BEGIN ATOM
M  V30 1 C 0.915374 -6.462460 0.541403 0
M  V30 2 O 1.646659 -5.745970 1.485964 0
M  V30 3 C 1.789029 -4.392356 1.590281 0
M  V30 4 C 2.563159 -3.874753 2.605813 0
M  V30 5 C 2.765650 -2.523104 2.791890 0
M  V30 6 C 2.143420 -1.681343 1.893206 0
M  V30 7 C 1.360376 -2.102572 0.859279 0
M  V30 8 C 0.692092 -1.239346 -0.103992 0
M  V30 9 C 0.774615 0.129617 -0.082558 0
M  V30 10 C 0.136543 0.968070 -1.003058 0
M  V30 11 C 0.334102 2.423736 -0.830915 0
M  V30 12 C 0.903345 3.435228 -1.614595 0
M  V30 13 N 0.794690 4.576321 -0.927485 0
M  V30 14 N 0.193523 4.349022 0.238739 0
M  V30 15 C -0.112916 3.031872 0.349129 0
M  V30 16 C -0.781538 2.401759 1.493047 0
M  V30 17 C -0.333947 2.323681 2.793671 0
M  V30 18 C -1.099563 1.687547 3.748363 0
M  V30 19 C -2.306961 1.154635 3.310325 0
M  V30 20 C -2.756642 1.231692 2.009117 0
M  V30 21 N -1.964623 1.865340 1.123086 0
M  V30 22 C -0.621030 0.370596 -1.990518 0
M  V30 23 C -0.700645 -1.005949 -2.007513 0
M  V30 24 N -0.067969 -1.769849 -1.099395 0
M  V30 25 C 1.210625 -3.470269 0.745828 0
M  V30 26 H 0.586975 -7.418000 1.046244 0
M  V30 27 H 1.520570 -6.798783 -0.319302 0
M  V30 28 H -0.024542 -5.957085 0.231781 0
M  V30 29 H 3.053350 -4.533175 3.313162 0
M  V30 30 H 3.376648 -2.130504 3.594477 0
M  V30 31 H 2.295405 -0.627281 2.029829 0
M  V30 32 H 1.363573 0.579447 0.686745 0
M  V30 33 H 1.291335 3.089186 -2.566168 0
M  V30 34 H 1.174579 5.441644 -1.373711 0
M  V30 35 H 0.617198 2.784343 2.971341 0
M  V30 36 H -0.736910 1.632843 4.764369 0
M  V30 37 H -2.941289 0.642495 4.040237 0
M  V30 38 H -3.698825 0.795533 1.750317 0
M  V30 39 H -1.105388 1.042130 -2.691765 0
M  V30 40 H -1.295646 -1.455150 -2.783644 0
M  V30 41 H 0.598435 -3.864838 -0.057941 0
M  V30 END ATOM
M  V30 BEGIN BOND
M  V30 1 1 1 2
M  V30 2 1 2 3
M  V30 3 2 3 4
M  V30 4 1 4 5
M  V30 5 2 5 6
M  V30 6 1 6 7
M  V30 7 1 7 8
M  V30 8 2 8 9
M  V30 9 1 9 10
M  V30 10 1 10 11
M  V30 11 2 11 12
M  V30 12 1 12 13
M  V30 13 1 13 14
M  V30 14 2 14 15
M  V30 15 1 15 16
M  V30 16 2 16 17
M  V30 17 1 17 18
M  V30 18 2 18 19
M  V30 19 1 19 20
M  V30 20 2 20 21
M  V30 21 2 10 22
M  V30 22 1 22 23
M  V30 23 2 23 24
M  V30 24 2 7 25
M  V30 25 1 25 3
M  V30 26 1 24 8
M  V30 27 1 15 11
M  V30 28 1 21 16
M  V30 29 1 1 26
M  V30 30 1 1 27
M  V30 31 1 1 28
M  V30 32 1 4 29
M  V30 33 1 5 30
M  V30 34 1 6 31
M  V30 35 1 9 32
M  V30 36 1 12 33
M  V30 37 1 13 34
M  V30 38 1 17 35
M  V30 39 1 18 36
M  V30 40 1 19 37
M  V30 41 1 20 38
M  V30 42 1 22 39
M  V30 43 1 23 40
M  V30 44 1 25 41
M  V30 END BOND
M  V30 END CTAB
M  END
>  <Dataset>  (791) 
ChEMBL_Kinases

>  <Ligand_Instance>  (791) 
nan

>  <PDB_ID>  (791) 
nan

>  <Standardized_SMILES>  (791) 
COc1cccc(-c2cc(-c3c[nH]nc3-c3ccccn3)ccn2)c1

>  <Name>  (791) 
nan

>  <Pocket>  (791) 
nan

>  <ATP_Site>  (791) 
nan

>  <Peripheral>  (791) 
nan

>  <Num_H_Atoms_ProtBoundConf>  (791) 
nan

>  <Num_Resolved_Atoms>  (791) 
nan

>  <Num_Not_Resolved_Atoms>  (791) 
nan

$$$$
CHEMBL3702227
     RDKit          3D

  0  0  0  0  0  0  0  0  0  0999 V3000
M  V30 BEGIN CTAB
M  V30 COUNTS 64 68 0 0 0
M  V30 BEGIN ATOM
M  V30 1 C 4.213373 0.697094 3.895489 0
M  V30 2 C 2.890829 0.217907 3.396378 0
M  V30 3 C 2.618574 0.448997 1.940154 0 CFG=2
M  V30 4 C 3.579050 -0.193089 1.000792 0
M  V30 5 N 2.297370 1.820468 1.605702 0
M  V30 6 C 3.045782 2.854235 1.125569 0
M  V30 7 C 4.384007 2.876013 0.823826 0
M  V30 8 N 4.968702 3.990661 0.358032 0
M  V30 9 C 4.233259 5.117409 0.180468 0
M  V30 10 C 2.877191 5.150139 0.470182 0
M  V30 11 C 2.285457 3.977993 0.954559 0
M  V30 12 C 1.011237 3.696340 1.324256 0
M  V30 13 C -0.143987 4.411155 1.364770 0
M  V30 14 N -1.273168 3.826234 1.794696 0
M  V30 15 C -1.285389 2.527685 2.192569 0
M  V30 16 N -2.266188 1.604522 2.673252 0
M  V30 17 C -2.632524 0.566736 1.734786 0
M  V30 18 C -3.547815 -0.422406 2.051826 0
M  V30 19 C -3.889257 -1.430302 1.158606 0
M  V30 20 C -3.272709 -1.407103 -0.072790 0
M  V30 21 N -3.496475 -2.374769 -1.081123 0
M  V30 22 C -4.100931 -3.681214 -0.994572 0
M  V30 23 C -3.658738 -4.596874 -2.103668 0
M  V30 24 C -2.251415 -4.446679 -2.539316 0
M  V30 25 N -1.269310 -5.203432 -1.815542 0
M  V30 26 C -1.402447 -6.628068 -1.959677 0
M  V30 27 C -0.973446 -4.774257 -0.497599 0
M  V30 28 C -1.900793 -3.006587 -2.744006 0
M  V30 29 C -3.138400 -2.191197 -2.472586 0
M  V30 30 N -2.368089 -0.432019 -0.390464 0
M  V30 31 N -2.085274 0.503570 0.508065 0
M  V30 32 N -0.123200 1.808307 2.151153 0
M  V30 33 C 1.049138 2.379205 1.715734 0
M  V30 34 H 4.112830 1.745440 4.244033 0
M  V30 35 H 5.025081 0.650653 3.179556 0
M  V30 36 H 4.549002 0.106217 4.789003 0
M  V30 37 H 2.789582 -0.858227 3.624556 0
M  V30 38 H 2.044028 0.729409 3.942361 0
M  V30 39 H 1.644973 -0.119917 1.772758 0
M  V30 40 H 3.572446 0.352433 0.023302 0
M  V30 41 H 4.605865 -0.329140 1.387998 0
M  V30 42 H 3.264440 -1.226542 0.718662 0
M  V30 43 H 5.005858 2.005232 0.952032 0
M  V30 44 H 4.741716 5.989562 -0.196045 0
M  V30 45 H 2.280276 6.044862 0.331573 0
M  V30 46 H -0.213475 5.434741 1.068517 0
M  V30 47 H -2.757947 1.562460 3.598216 0
M  V30 48 H -3.984454 -0.363147 3.042662 0
M  V30 49 H -4.590363 -2.185345 1.400779 0
M  V30 50 H -3.726482 -4.129325 -0.039046 0
M  V30 51 H -5.197979 -3.661595 -0.965150 0
M  V30 52 H -4.386000 -4.489894 -2.949966 0
M  V30 53 H -3.793342 -5.638041 -1.711391 0
M  V30 54 H -2.218048 -4.905359 -3.587005 0
M  V30 55 H -1.157778 -6.859846 -3.035448 0
M  V30 56 H -2.361250 -7.060192 -1.701699 0
M  V30 57 H -0.531041 -7.075140 -1.403708 0
M  V30 58 H 0.143170 -4.864756 -0.374811 0
M  V30 59 H -1.187020 -3.718652 -0.353910 0
M  V30 60 H -1.373481 -5.445956 0.300217 0
M  V30 61 H -1.085750 -2.639742 -2.078123 0
M  V30 62 H -1.592977 -2.795646 -3.799855 0
M  V30 63 H -3.968394 -2.413382 -3.174494 0
M  V30 64 H -2.817430 -1.113218 -2.621386 0
M  V30 END ATOM
M  V30 BEGIN BOND
M  V30 1 1 1 2
M  V30 2 1 2 3
M  V30 3 1 3 4
M  V30 4 1 3 5
M  V30 5 1 5 6
M  V30 6 2 6 7
M  V30 7 1 7 8
M  V30 8 2 8 9
M  V30 9 1 9 10
M  V30 10 2 10 11
M  V30 11 1 11 12
M  V30 12 2 12 13
M  V30 13 1 13 14
M  V30 14 2 14 15
M  V30 15 1 15 16
M  V30 16 1 16 17
M  V30 17 2 17 18
M  V30 18 1 18 19
M  V30 19 2 19 20
M  V30 20 1 20 21
M  V30 21 1 21 22
M  V30 22 1 22 23
M  V30 23 1 23 24
M  V30 24 1 24 25
M  V30 25 1 25 26
M  V30 26 1 25 27
M  V30 27 1 24 28
M  V30 28 1 28 29
M  V30 29 1 20 30
M  V30 30 2 30 31
M  V30 31 1 15 32
M  V30 32 2 32 33
M  V30 33 1 33 5
M  V30 34 1 11 6
M  V30 35 1 33 12
M  V30 36 1 31 17
M  V30 37 1 29 21
M  V30 38 1 1 34
M  V30 39 1 1 35
M  V30 40 1 1 36
M  V30 41 1 2 37
M  V30 42 1 2 38
M  V30 43 1 3 39 CFG=3
M  V30 44 1 4 40
M  V30 45 1 4 41
M  V30 46 1 4 42
M  V30 47 1 7 43
M  V30 48 1 9 44
M  V30 49 1 10 45
M  V30 50 1 13 46
M  V30 51 1 16 47
M  V30 52 1 18 48
M  V30 53 1 19 49
M  V30 54 1 22 50
M  V30 55 1 22 51
M  V30 56 1 23 52
M  V30 57 1 23 53
M  V30 58 1 24 54
M  V30 59 1 26 55
M  V30 60 1 26 56
M  V30 61 1 26 57
M  V30 62 1 27 58
M  V30 63 1 27 59
M  V30 64 1 27 60
M  V30 65 1 28 61
M  V30 66 1 28 62
M  V30 67 1 29 63
M  V30 68 1 29 64
M  V30 END BOND
M  V30 END CTAB
M  END
>  <Dataset>  (792) 
ChEMBL_Kinases

>  <Ligand_Instance>  (792) 
nan

>  <PDB_ID>  (792) 
nan

>  <Standardized_SMILES>  (792) 
CC[C@H](C)n1c2cnccc2c2cnc(Nc3ccc(N4CCC(N(C)C)CC4)nn3)nc21

>  <Name>  (792) 
nan

>  <Pocket>  (792) 
nan

>  <ATP_Site>  (792) 
nan

>  <Peripheral>  (792) 
nan

>  <Num_H_Atoms_ProtBoundConf>  (792) 
nan

>  <Num_Resolved_Atoms>  (792) 
nan

>  <Num_Not_Resolved_Atoms>  (792) 
nan

$$$$
CHEMBL3827983
     RDKit          3D

  0  0  0  0  0  0  0  0  0  0999 V3000
M  V30 BEGIN CTAB
M  V30 COUNTS 43 46 0 0 0
M  V30 BEGIN ATOM
M  V30 1 C 0.055681 -4.893180 1.250526 0
M  V30 2 N 0.204888 -3.853916 0.261200 0
M  V30 3 C 0.348882 -4.009338 -1.137295 0
M  V30 4 O 0.342693 -5.198957 -1.536971 0
M  V30 5 C 0.492302 -2.890776 -2.040932 0
M  V30 6 C 0.627702 -3.121977 -3.392909 0
M  V30 7 C 0.758092 -1.992758 -4.172522 0
M  V30 8 C 0.755216 -0.722603 -3.655378 0
M  V30 9 C 0.882194 0.409517 -4.403648 0
M  V30 10 N 0.869981 1.612731 -3.826034 0
M  V30 11 C 0.732397 1.768007 -2.481936 0
M  V30 12 C 0.597902 0.671735 -1.649580 0
M  V30 13 C 0.446818 0.778089 -0.194877 0
M  V30 14 C -0.379596 1.649033 0.486037 0
M  V30 15 C -0.414038 1.632154 1.866036 0
M  V30 16 C 0.361222 0.760956 2.605143 0
M  V30 17 C 0.296190 0.773863 4.064809 0
M  V30 18 C 0.479484 -0.305498 4.924065 0
M  V30 19 N 0.329867 0.169074 6.158323 0
M  V30 20 N 0.065590 1.469200 6.138409 0
M  V30 21 C -0.180639 2.458527 7.177330 0
M  V30 22 C 0.036119 1.886301 4.840716 0
M  V30 23 C 1.187838 -0.109742 1.912708 0
M  V30 24 C 1.237640 -0.109533 0.531832 0
M  V30 25 C 0.615929 -0.567761 -2.296019 0
M  V30 26 N 0.488389 -1.667462 -1.531486 0
M  V30 27 H 1.017483 -5.191823 1.730269 0
M  V30 28 H -0.376725 -5.789239 0.743013 0
M  V30 29 H -0.679358 -4.619749 2.048597 0
M  V30 30 H 0.199056 -2.892974 0.683356 0
M  V30 31 H 0.622583 -4.135376 -3.735537 0
M  V30 32 H 0.866735 -2.133086 -5.241791 0
M  V30 33 H 0.991925 0.259635 -5.483490 0
M  V30 34 H 0.726299 2.769254 -2.038392 0
M  V30 35 H -0.966093 2.310674 -0.129786 0
M  V30 36 H -1.085896 2.344004 2.326247 0
M  V30 37 H 0.698992 -1.325204 4.653448 0
M  V30 38 H 0.713290 3.070600 7.302661 0
M  V30 39 H -0.535796 1.969273 8.101793 0
M  V30 40 H -1.018903 3.143030 6.876246 0
M  V30 41 H -0.146412 2.870571 4.419262 0
M  V30 42 H 1.770816 -0.768692 2.564225 0
M  V30 43 H 1.938227 -0.855965 0.171122 0
M  V30 END ATOM
M  V30 BEGIN BOND
M  V30 1 1 1 2
M  V30 2 1 2 3
M  V30 3 2 3 4
M  V30 4 1 3 5
M  V30 5 2 5 6
M  V30 6 1 6 7
M  V30 7 2 7 8
M  V30 8 1 8 9
M  V30 9 2 9 10
M  V30 10 1 10 11
M  V30 11 2 11 12
M  V30 12 1 12 13
M  V30 13 2 13 14
M  V30 14 1 14 15
M  V30 15 2 15 16
M  V30 16 1 16 17
M  V30 17 1 17 18
M  V30 18 2 18 19
M  V30 19 1 19 20
M  V30 20 1 20 21
M  V30 21 1 20 22
M  V30 22 1 16 23
M  V30 23 2 23 24
M  V30 24 1 12 25
M  V30 25 2 25 26
M  V30 26 1 26 5
M  V30 27 1 25 8
M  V30 28 1 24 13
M  V30 29 2 22 17
M  V30 30 1 1 27
M  V30 31 1 1 28
M  V30 32 1 1 29
M  V30 33 1 2 30
M  V30 34 1 6 31
M  V30 35 1 7 32
M  V30 36 1 9 33
M  V30 37 1 11 34
M  V30 38 1 14 35
M  V30 39 1 15 36
M  V30 40 1 18 37
M  V30 41 1 21 38
M  V30 42 1 21 39
M  V30 43 1 21 40
M  V30 44 1 22 41
M  V30 45 1 23 42
M  V30 46 1 24 43
M  V30 END BOND
M  V30 END CTAB
M  END
>  <Dataset>  (793) 
ChEMBL_Kinases

>  <Ligand_Instance>  (793) 
nan

>  <PDB_ID>  (793) 
nan

>  <Standardized_SMILES>  (793) 
CNC(=O)c1ccc2cncc(-c3ccc(-c4cnn(C)c4)cc3)c2n1

>  <Name>  (793) 
nan

>  <Pocket>  (793) 
nan

>  <ATP_Site>  (793) 
nan

>  <Peripheral>  (793) 
nan

>  <Num_H_Atoms_ProtBoundConf>  (793) 
nan

>  <Num_Resolved_Atoms>  (793) 
nan

>  <Num_Not_Resolved_Atoms>  (793) 
nan

$$$$
CHEMBL3827944
     RDKit          3D

  0  0  0  0  0  0  0  0  0  0999 V3000
M  V30 BEGIN CTAB
M  V30 COUNTS 43 46 0 0 0
M  V30 BEGIN ATOM
M  V30 1 C -0.780007 -5.370563 0.644613 0
M  V30 2 C -0.751611 -4.338433 -0.425034 0
M  V30 3 O -1.874995 -3.977705 -0.843273 0
M  V30 4 N 0.488886 -3.812766 -0.921780 0
M  V30 5 C 0.570132 -2.826386 -1.941941 0
M  V30 6 C 0.648098 -3.036227 -3.303363 0
M  V30 7 C 0.717965 -1.913346 -4.092082 0
M  V30 8 C 0.710306 -0.646590 -3.548464 0
M  V30 9 C 0.779760 0.478580 -4.329095 0
M  V30 10 N 0.773313 1.717605 -3.813773 0
M  V30 11 C 0.695762 1.910742 -2.464512 0
M  V30 12 C 0.622527 0.809689 -1.613418 0
M  V30 13 C 0.536759 0.907363 -0.158520 0
M  V30 14 C -0.292359 1.777395 0.531747 0
M  V30 15 C -0.297679 1.790555 1.912188 0
M  V30 16 C 0.508930 0.951942 2.657647 0
M  V30 17 C 0.525765 0.942490 4.128404 0
M  V30 18 C 0.793836 -0.220747 4.858336 0
M  V30 19 N 0.732670 0.109454 6.144923 0
M  V30 20 N 0.446759 1.391490 6.295392 0
M  V30 21 C 0.272508 2.221455 7.475219 0
M  V30 22 C 0.314560 1.926032 5.059822 0
M  V30 23 C 1.346155 0.073425 1.965528 0
M  V30 24 C 1.352297 0.059297 0.565367 0
M  V30 25 C 0.631313 -0.460431 -2.177630 0
M  V30 26 N 0.564552 -1.585607 -1.441256 0
M  V30 27 H 0.239618 -5.821642 0.744877 0
M  V30 28 H -1.491365 -6.183067 0.408847 0
M  V30 29 H -0.998879 -4.919529 1.646181 0
M  V30 30 H 1.384634 -4.181125 -0.504494 0
M  V30 31 H 0.646521 -4.059044 -3.613760 0
M  V30 32 H 0.779275 -2.072261 -5.159842 0
M  V30 33 H 0.842486 0.369078 -5.404202 0
M  V30 34 H 0.687545 2.899771 -2.002985 0
M  V30 35 H -0.908286 2.417591 -0.054792 0
M  V30 36 H -0.944461 2.469282 2.452294 0
M  V30 37 H 1.014788 -1.222775 4.492513 0
M  V30 38 H 0.095555 1.586805 8.342954 0
M  V30 39 H 1.126203 2.915407 7.592339 0
M  V30 40 H -0.635699 2.857848 7.332530 0
M  V30 41 H 0.086587 2.926401 4.692355 0
M  V30 42 H 1.972779 -0.577956 2.578632 0
M  V30 43 H 2.041465 -0.662876 0.180299 0
M  V30 END ATOM
M  V30 BEGIN BOND
M  V30 1 1 1 2
M  V30 2 2 2 3
M  V30 3 1 2 4
M  V30 4 1 4 5
M  V30 5 2 5 6
M  V30 6 1 6 7
M  V30 7 2 7 8
M  V30 8 1 8 9
M  V30 9 2 9 10
M  V30 10 1 10 11
M  V30 11 2 11 12
M  V30 12 1 12 13
M  V30 13 2 13 14
M  V30 14 1 14 15
M  V30 15 2 15 16
M  V30 16 1 16 17
M  V30 17 1 17 18
M  V30 18 2 18 19
M  V30 19 1 19 20
M  V30 20 1 20 21
M  V30 21 1 20 22
M  V30 22 1 16 23
M  V30 23 2 23 24
M  V30 24 1 12 25
M  V30 25 2 25 26
M  V30 26 1 26 5
M  V30 27 1 25 8
M  V30 28 1 24 13
M  V30 29 2 22 17
M  V30 30 1 1 27
M  V30 31 1 1 28
M  V30 32 1 1 29
M  V30 33 1 4 30
M  V30 34 1 6 31
M  V30 35 1 7 32
M  V30 36 1 9 33
M  V30 37 1 11 34
M  V30 38 1 14 35
M  V30 39 1 15 36
M  V30 40 1 18 37
M  V30 41 1 21 38
M  V30 42 1 21 39
M  V30 43 1 21 40
M  V30 44 1 22 41
M  V30 45 1 23 42
M  V30 46 1 24 43
M  V30 END BOND
M  V30 END CTAB
M  END
>  <Dataset>  (794) 
ChEMBL_Kinases

>  <Ligand_Instance>  (794) 
nan

>  <PDB_ID>  (794) 
nan

>  <Standardized_SMILES>  (794) 
CC(=O)Nc1ccc2cncc(-c3ccc(-c4cnn(C)c4)cc3)c2n1

>  <Name>  (794) 
nan

>  <Pocket>  (794) 
nan

>  <ATP_Site>  (794) 
nan

>  <Peripheral>  (794) 
nan

>  <Num_H_Atoms_ProtBoundConf>  (794) 
nan

>  <Num_Resolved_Atoms>  (794) 
nan

>  <Num_Not_Resolved_Atoms>  (794) 
nan

$$$$
CHEMBL3828114
     RDKit          3D

  0  0  0  0  0  0  0  0  0  0999 V3000
M  V30 BEGIN CTAB
M  V30 COUNTS 38 41 0 0 0
M  V30 BEGIN ATOM
M  V30 1 C -1.093286 -3.109387 -2.593736 0
M  V30 2 C 0.135334 -2.969067 -1.768951 0
M  V30 3 N 0.741195 -3.902973 -1.014941 0
M  V30 4 C 1.828483 -3.377395 -0.424904 0
M  V30 5 C 2.809825 -3.829803 0.431139 0
M  V30 6 C 3.844909 -3.003651 0.882428 0
M  V30 7 C 3.876453 -1.681465 0.447520 0
M  V30 8 C 2.888735 -1.258551 -0.403347 0
M  V30 9 C 1.857011 -2.049748 -0.864711 0
M  V30 10 N 0.807198 -1.802289 -1.696198 0
M  V30 11 C 0.607140 -0.493875 -2.294356 0
M  V30 12 C -0.267120 0.360066 -1.378518 0
M  V30 13 N -1.420580 0.626476 -1.231613 0
M  V30 14 N -1.924890 1.410182 -0.348536 0
M  V30 15 C -1.209912 2.000925 0.488643 0
M  V30 16 N -0.972092 2.913007 1.636313 0
M  V30 17 C -1.140342 2.256407 2.907178 0
M  V30 18 C -0.184678 2.098222 3.885237 0
M  V30 19 C -0.481155 1.446817 5.065816 0
M  V30 20 C -1.755678 0.932738 5.299647 0
M  V30 21 C -2.706387 1.109509 4.288314 0
M  V30 22 C -2.432284 1.758777 3.095256 0
M  V30 23 Br -3.873500 1.893183 1.846828 0
M  V30 24 S 0.499271 1.351250 -0.040955 0
M  V30 25 H -1.385556 -4.173131 -2.711457 0
M  V30 26 H -1.926494 -2.535388 -2.146724 0
M  V30 27 H -0.904795 -2.728791 -3.638862 0
M  V30 28 H 2.789910 -4.854675 0.777086 0
M  V30 29 H 4.628303 -3.325483 1.551096 0
M  V30 30 H 4.676625 -1.007657 0.789437 0
M  V30 31 H 2.970170 -0.221689 -0.703048 0
M  V30 32 H -0.004087 -0.560004 -3.215935 0
M  V30 33 H 1.579910 0.000499 -2.462036 0
M  V30 34 H -0.714097 3.930188 1.466677 0
M  V30 35 H 0.785688 2.513229 3.654527 0
M  V30 36 H 0.279099 1.332136 5.808914 0
M  V30 37 H -2.034223 0.419470 6.214802 0
M  V30 38 H -3.699383 0.710804 4.484153 0
M  V30 END ATOM
M  V30 BEGIN BOND
M  V30 1 1 1 2
M  V30 2 2 2 3
M  V30 3 1 3 4
M  V30 4 2 4 5
M  V30 5 1 5 6
M  V30 6 2 6 7
M  V30 7 1 7 8
M  V30 8 2 8 9
M  V30 9 1 9 10
M  V30 10 1 10 11
M  V30 11 1 11 12
M  V30 12 2 12 13
M  V30 13 1 13 14
M  V30 14 2 14 15
M  V30 15 1 15 16
M  V30 16 1 16 17
M  V30 17 2 17 18
M  V30 18 1 18 19
M  V30 19 2 19 20
M  V30 20 1 20 21
M  V30 21 2 21 22
M  V30 22 1 22 23
M  V30 23 1 15 24
M  V30 24 1 10 2
M  V30 25 1 24 12
M  V30 26 1 9 4
M  V30 27 1 22 17
M  V30 28 1 1 25
M  V30 29 1 1 26
M  V30 30 1 1 27
M  V30 31 1 5 28
M  V30 32 1 6 29
M  V30 33 1 7 30
M  V30 34 1 8 31
M  V30 35 1 11 32
M  V30 36 1 11 33
M  V30 37 1 16 34
M  V30 38 1 18 35
M  V30 39 1 19 36
M  V30 40 1 20 37
M  V30 41 1 21 38
M  V30 END BOND
M  V30 END CTAB
M  END
>  <Dataset>  (795) 
ChEMBL_Kinases

>  <Ligand_Instance>  (795) 
nan

>  <PDB_ID>  (795) 
nan

>  <Standardized_SMILES>  (795) 
Cc1nc2ccccc2n1Cc1nnc(Nc2ccccc2Br)s1

>  <Name>  (795) 
nan

>  <Pocket>  (795) 
nan

>  <ATP_Site>  (795) 
nan

>  <Peripheral>  (795) 
nan

>  <Num_H_Atoms_ProtBoundConf>  (795) 
nan

>  <Num_Resolved_Atoms>  (795) 
nan

>  <Num_Not_Resolved_Atoms>  (795) 
nan

$$$$
CHEMBL3828637
     RDKit          3D

  0  0  0  0  0  0  0  0  0  0999 V3000
M  V30 BEGIN CTAB
M  V30 COUNTS 42 45 0 0 0
M  V30 BEGIN ATOM
M  V30 1 C 0.600861 -5.039180 0.889398 0
M  V30 2 N 0.222423 -3.847943 0.151483 0
M  V30 3 C -0.446924 -3.861777 -1.110683 0
M  V30 4 O -0.758529 -4.942623 -1.676447 0
M  V30 5 C -0.763117 -2.566080 -1.733341 0
M  V30 6 C -1.403859 -2.502775 -2.942969 0
M  V30 7 C -1.688270 -1.283141 -3.504209 0
M  V30 8 C -1.330698 -0.125344 -2.853512 0
M  V30 9 C -1.594654 1.124731 -3.376853 0
M  V30 10 N -1.217062 2.214297 -2.687047 0
M  V30 11 C -0.583528 2.133583 -1.490648 0
M  V30 12 C -0.291669 0.924658 -0.915526 0
M  V30 13 C 0.388808 0.794777 0.370428 0
M  V30 14 C 1.412566 -0.141003 0.453782 0
M  V30 15 C 2.043286 -0.247479 1.680518 0
M  V30 16 C 1.728281 0.497898 2.798776 0
M  V30 17 C 0.727344 1.404521 2.696457 0
M  V30 18 C 0.070720 1.544068 1.491109 0
M  V30 19 C 0.388610 2.207241 3.900286 0
M  V30 20 S 1.216693 1.252375 5.153818 0
M  V30 21 O 0.303246 0.243748 5.793564 0
M  V30 22 O 1.926689 2.100477 6.154554 0
M  V30 23 N 2.334759 0.437634 4.084430 0
M  V30 24 C 3.592060 -0.146094 4.507094 0
M  V30 25 C -0.694223 -0.187806 -1.651937 0
M  V30 26 N -0.443828 -1.413072 -1.154730 0
M  V30 27 H 1.641649 -4.900833 1.286322 0
M  V30 28 H 0.636932 -5.937039 0.269815 0
M  V30 29 H -0.048545 -5.224008 1.761699 0
M  V30 30 H 0.474080 -2.937472 0.607668 0
M  V30 31 H -1.691376 -3.395098 -3.466964 0
M  V30 32 H -2.195590 -1.253801 -4.461544 0
M  V30 33 H -2.104521 1.182635 -4.339565 0
M  V30 34 H -0.308670 3.046133 -0.990930 0
M  V30 35 H 1.711274 -0.758980 -0.384422 0
M  V30 36 H 2.835901 -0.979802 1.724983 0
M  V30 37 H -0.738346 2.232485 1.297383 0
M  V30 38 H -0.699637 2.261120 4.063373 0
M  V30 39 H 0.859764 3.216313 3.871003 0
M  V30 40 H 4.149226 -0.465655 3.599526 0
M  V30 41 H 4.219457 0.586975 5.045378 0
M  V30 42 H 3.383309 -1.041210 5.120191 0
M  V30 END ATOM
M  V30 BEGIN BOND
M  V30 1 1 1 2
M  V30 2 1 2 3
M  V30 3 2 3 4
M  V30 4 1 3 5
M  V30 5 2 5 6
M  V30 6 1 6 7
M  V30 7 2 7 8
M  V30 8 1 8 9
M  V30 9 2 9 10
M  V30 10 1 10 11
M  V30 11 2 11 12
M  V30 12 1 12 13
M  V30 13 2 13 14
M  V30 14 1 14 15
M  V30 15 2 15 16
M  V30 16 1 16 17
M  V30 17 2 17 18
M  V30 18 1 17 19
M  V30 19 1 19 20
M  V30 20 2 20 21
M  V30 21 2 20 22
M  V30 22 1 20 23
M  V30 23 1 23 24
M  V30 24 1 12 25
M  V30 25 2 25 26
M  V30 26 1 26 5
M  V30 27 1 25 8
M  V30 28 1 18 13
M  V30 29 1 23 16
M  V30 30 1 1 27
M  V30 31 1 1 28
M  V30 32 1 1 29
M  V30 33 1 2 30
M  V30 34 1 6 31
M  V30 35 1 7 32
M  V30 36 1 9 33
M  V30 37 1 11 34
M  V30 38 1 14 35
M  V30 39 1 15 36
M  V30 40 1 18 37
M  V30 41 1 19 38
M  V30 42 1 19 39
M  V30 43 1 24 40
M  V30 44 1 24 41
M  V30 45 1 24 42
M  V30 END BOND
M  V30 END CTAB
M  END
>  <Dataset>  (796) 
ChEMBL_Kinases

>  <Ligand_Instance>  (796) 
nan

>  <PDB_ID>  (796) 
nan

>  <Standardized_SMILES>  (796) 
CNC(=O)c1ccc2cncc(-c3ccc4c(c3)CS(=O)(=O)N4C)c2n1

>  <Name>  (796) 
nan

>  <Pocket>  (796) 
nan

>  <ATP_Site>  (796) 
nan

>  <Peripheral>  (796) 
nan

>  <Num_H_Atoms_ProtBoundConf>  (796) 
nan

>  <Num_Resolved_Atoms>  (796) 
nan

>  <Num_Not_Resolved_Atoms>  (796) 
nan

$$$$
CHEMBL3828624
     RDKit          3D

  0  0  0  0  0  0  0  0  0  0999 V3000
M  V30 BEGIN CTAB
M  V30 COUNTS 37 39 0 0 0
M  V30 BEGIN ATOM
M  V30 1 C -1.680514 -1.199322 -2.880875 0
M  V30 2 C -0.286652 -1.423352 -2.380614 0
M  V30 3 N 0.314599 -2.631497 -2.329606 0
M  V30 4 C 1.543444 -2.428340 -1.829176 0
M  V30 5 C 2.648289 -3.205815 -1.521579 0
M  V30 6 C 3.808800 -2.684187 -1.000088 0
M  V30 7 C 3.922240 -1.337322 -0.757000 0
M  V30 8 C 2.817800 -0.553463 -1.063494 0
M  V30 9 C 1.655017 -1.080289 -1.586625 0
M  V30 10 N 0.529050 -0.432078 -1.921466 0
M  V30 11 C 0.162842 0.966259 -1.854276 0
M  V30 12 C -0.467331 1.351876 -0.571724 0
M  V30 13 O -0.803448 2.557533 -0.464921 0
M  V30 14 N -0.625717 0.330494 0.396212 0
M  V30 15 N -1.112813 0.109807 1.687059 0
M  V30 16 C -0.272122 0.258901 2.825638 0
M  V30 17 O 0.900356 0.598405 2.502578 0
M  V30 18 C -0.801097 0.022678 4.177722 0
M  V30 19 C -2.065700 -0.349974 4.619930 0
M  V30 20 C -1.965601 -0.418032 6.002208 0
M  V30 21 C -0.670512 -0.092545 6.365055 0
M  V30 22 N 0.012487 0.170517 5.228459 0
M  V30 23 H -1.737254 -0.217754 -3.409366 0
M  V30 24 H -2.412041 -1.261870 -2.041871 0
M  V30 25 H -1.949388 -2.031553 -3.588925 0
M  V30 26 H 2.580440 -4.273946 -1.705896 0
M  V30 27 H 4.620865 -3.359780 -0.789436 0
M  V30 28 H 4.844097 -0.969538 -0.349653 0
M  V30 29 H 2.904617 0.515577 -0.871785 0
M  V30 30 H 1.132887 1.539924 -1.902165 0
M  V30 31 H -0.436058 1.258893 -2.741309 0
M  V30 32 H -0.307291 -0.650972 0.202242 0
M  V30 33 H -2.132491 -0.172403 1.778309 0
M  V30 34 H -2.833422 -0.506198 3.871327 0
M  V30 35 H -2.846163 -0.695232 6.567581 0
M  V30 36 H -0.420756 -0.097998 7.426102 0
M  V30 37 H 1.026191 0.436168 5.354402 0
M  V30 END ATOM
M  V30 BEGIN BOND
M  V30 1 1 1 2
M  V30 2 2 2 3
M  V30 3 1 3 4
M  V30 4 2 4 5
M  V30 5 1 5 6
M  V30 6 2 6 7
M  V30 7 1 7 8
M  V30 8 2 8 9
M  V30 9 1 9 10
M  V30 10 1 10 11
M  V30 11 1 11 12
M  V30 12 2 12 13
M  V30 13 1 12 14
M  V30 14 1 14 15
M  V30 15 1 15 16
M  V30 16 2 16 17
M  V30 17 1 16 18
M  V30 18 2 18 19
M  V30 19 1 19 20
M  V30 20 2 20 21
M  V30 21 1 21 22
M  V30 22 1 10 2
M  V30 23 1 22 18
M  V30 24 1 9 4
M  V30 25 1 1 23
M  V30 26 1 1 24
M  V30 27 1 1 25
M  V30 28 1 5 26
M  V30 29 1 6 27
M  V30 30 1 7 28
M  V30 31 1 8 29
M  V30 32 1 11 30
M  V30 33 1 11 31
M  V30 34 1 14 32
M  V30 35 1 15 33
M  V30 36 1 19 34
M  V30 37 1 20 35
M  V30 38 1 21 36
M  V30 39 1 22 37
M  V30 END BOND
M  V30 END CTAB
M  END
>  <Dataset>  (797) 
ChEMBL_Kinases

>  <Ligand_Instance>  (797) 
nan

>  <PDB_ID>  (797) 
nan

>  <Standardized_SMILES>  (797) 
Cc1nc2ccccc2n1CC(=O)NNC(=O)c1ccc[nH]1

>  <Name>  (797) 
nan

>  <Pocket>  (797) 
nan

>  <ATP_Site>  (797) 
nan

>  <Peripheral>  (797) 
nan

>  <Num_H_Atoms_ProtBoundConf>  (797) 
nan

>  <Num_Resolved_Atoms>  (797) 
nan

>  <Num_Not_Resolved_Atoms>  (797) 
nan

$$$$
CHEMBL3828609
     RDKit          3D

  0  0  0  0  0  0  0  0  0  0999 V3000
M  V30 BEGIN CTAB
M  V30 COUNTS 42 44 0 0 0
M  V30 BEGIN ATOM
M  V30 1 C -1.972784 -1.773814 -1.527250 0
M  V30 2 C -0.561720 -1.897428 -1.939027 0
M  V30 3 N 0.098502 -3.065265 -2.026297 0
M  V30 4 C 1.352936 -2.734978 -2.430606 0
M  V30 5 C 2.466625 -3.531065 -2.689894 0
M  V30 6 C 3.668053 -2.979081 -3.102359 0
M  V30 7 C 3.765449 -1.616910 -3.259580 0
M  V30 8 C 2.659194 -0.842066 -2.999764 0
M  V30 9 C 1.448835 -1.367158 -2.587293 0
M  V30 10 N 0.223559 -0.861725 -2.269634 0
M  V30 11 C -0.035943 0.567730 -2.316595 0
M  V30 12 C 0.241890 1.185943 -0.994215 0
M  V30 13 O 1.435302 1.490448 -0.648672 0
M  V30 14 N -0.745029 1.489557 -0.021312 0
M  V30 15 N -0.485223 2.066407 1.224510 0
M  V30 16 C -0.314158 1.108780 2.257634 0
M  V30 17 O -0.348107 -0.148372 2.315469 0
M  V30 18 C -0.023486 1.533942 3.638243 0
M  V30 19 C 0.064841 0.447178 4.603971 0
M  V30 20 C -1.099776 0.194678 5.338495 0
M  V30 21 C -1.137791 -0.822421 6.283631 0
M  V30 22 C -0.037144 -1.613206 6.529398 0
M  V30 23 C 1.118102 -1.378899 5.815119 0
M  V30 24 C 1.164300 -0.371340 4.875395 0
M  V30 25 H -2.052938 -2.003511 -0.441923 0
M  V30 26 H -2.411305 -0.787996 -1.804168 0
M  V30 27 H -2.617747 -2.545078 -2.042186 0
M  V30 28 H 2.358255 -4.593859 -2.557140 0
M  V30 29 H 4.505777 -3.657214 -3.290679 0
M  V30 30 H 4.710903 -1.215199 -3.580323 0
M  V30 31 H 2.751412 0.227861 -3.127939 0
M  V30 32 H 0.609705 1.035301 -3.085888 0
M  V30 33 H -1.078977 0.787953 -2.593667 0
M  V30 34 H -1.752093 1.267075 -0.246556 0
M  V30 35 H -0.399428 3.069770 1.509146 0
M  V30 36 H -0.679437 2.332827 4.028947 0
M  V30 37 H 1.000678 2.013839 3.591708 0
M  V30 38 H -2.024472 0.724704 5.256274 0
M  V30 39 H -2.016035 -1.048544 6.871956 0
M  V30 40 H -0.056318 -2.406197 7.263987 0
M  V30 41 H 2.040521 -1.953146 5.939047 0
M  V30 42 H 2.029962 -0.122065 4.271749 0
M  V30 END ATOM
M  V30 BEGIN BOND
M  V30 1 1 1 2
M  V30 2 2 2 3
M  V30 3 1 3 4
M  V30 4 2 4 5
M  V30 5 1 5 6
M  V30 6 2 6 7
M  V30 7 1 7 8
M  V30 8 2 8 9
M  V30 9 1 9 10
M  V30 10 1 10 11
M  V30 11 1 11 12
M  V30 12 2 12 13
M  V30 13 1 12 14
M  V30 14 1 14 15
M  V30 15 1 15 16
M  V30 16 2 16 17
M  V30 17 1 16 18
M  V30 18 1 18 19
M  V30 19 2 19 20
M  V30 20 1 20 21
M  V30 21 2 21 22
M  V30 22 1 22 23
M  V30 23 2 23 24
M  V30 24 1 10 2
M  V30 25 1 24 19
M  V30 26 1 9 4
M  V30 27 1 1 25
M  V30 28 1 1 26
M  V30 29 1 1 27
M  V30 30 1 5 28
M  V30 31 1 6 29
M  V30 32 1 7 30
M  V30 33 1 8 31
M  V30 34 1 11 32
M  V30 35 1 11 33
M  V30 36 1 14 34
M  V30 37 1 15 35
M  V30 38 1 18 36
M  V30 39 1 18 37
M  V30 40 1 20 38
M  V30 41 1 21 39
M  V30 42 1 22 40
M  V30 43 1 23 41
M  V30 44 1 24 42
M  V30 END BOND
M  V30 END CTAB
M  END
>  <Dataset>  (798) 
ChEMBL_Kinases

>  <Ligand_Instance>  (798) 
nan

>  <PDB_ID>  (798) 
nan

>  <Standardized_SMILES>  (798) 
Cc1nc2ccccc2n1CC(=O)NNC(=O)Cc1ccccc1

>  <Name>  (798) 
nan

>  <Pocket>  (798) 
nan

>  <ATP_Site>  (798) 
nan

>  <Peripheral>  (798) 
nan

>  <Num_H_Atoms_ProtBoundConf>  (798) 
nan

>  <Num_Resolved_Atoms>  (798) 
nan

>  <Num_Not_Resolved_Atoms>  (798) 
nan

$$$$
CHEMBL3828575
     RDKit          3D

  0  0  0  0  0  0  0  0  0  0999 V3000
M  V30 BEGIN CTAB
M  V30 COUNTS 39 42 0 0 0
M  V30 BEGIN ATOM
M  V30 1 C 0.319748 -4.805870 2.877062 0
M  V30 2 N 0.404045 -3.611329 2.043729 0
M  V30 3 C 0.660357 -3.960843 0.685435 0
M  V30 4 O 0.756350 -5.212584 0.507605 0
M  V30 5 C 0.795094 -2.963735 -0.377236 0
M  V30 6 C 1.044398 -3.479970 -1.646706 0
M  V30 7 C 1.194696 -2.657512 -2.746433 0
M  V30 8 C 1.099096 -1.285272 -2.605985 0
M  V30 9 C 1.231777 -0.376842 -3.630457 0
M  V30 10 N 1.119297 0.949100 -3.379972 0
M  V30 11 C 0.876170 1.406708 -2.128435 0
M  V30 12 C 0.738331 0.511917 -1.078555 0
M  V30 13 C 0.480478 1.178277 0.195396 0
M  V30 14 C 1.217009 2.283246 0.554480 0
M  V30 15 C 0.941876 2.884266 1.767664 0
M  V30 16 C -0.031321 2.437256 2.639492 0
M  V30 17 C -0.760035 1.349269 2.291204 0
M  V30 18 C -0.495930 0.737722 1.080646 0
M  V30 19 C -1.793251 0.913980 3.269029 0
M  V30 20 S -1.924326 2.363546 4.323438 0
M  V30 21 O -3.033567 3.260115 3.866822 0
M  V30 22 O -1.996081 2.022484 5.760609 0
M  V30 23 N -0.358735 3.013909 3.899063 0
M  V30 24 C 0.850724 -0.843252 -1.319924 0
M  V30 25 N 0.699605 -1.614496 -0.230646 0
M  V30 26 H -0.606851 -5.371281 2.671955 0
M  V30 27 H 1.215597 -5.448625 2.716157 0
M  V30 28 H 0.279522 -4.514646 3.959203 0
M  V30 29 H 0.306025 -2.604790 2.305386 0
M  V30 30 H 1.137757 -4.551291 -1.863123 0
M  V30 31 H 1.391061 -3.051540 -3.750073 0
M  V30 32 H 1.427245 -0.763937 -4.631075 0
M  V30 33 H 0.806720 2.485341 -2.050425 0
M  V30 34 H 1.983376 2.646834 -0.116663 0
M  V30 35 H 1.551343 3.744574 1.992985 0
M  V30 36 H -1.036663 -0.132960 0.738014 0
M  V30 37 H -1.347073 0.088838 3.879112 0
M  V30 38 H -2.742047 0.652740 2.802817 0
M  V30 39 H 0.185144 3.679851 4.474518 0
M  V30 END ATOM
M  V30 BEGIN BOND
M  V30 1 1 1 2
M  V30 2 1 2 3
M  V30 3 2 3 4
M  V30 4 1 3 5
M  V30 5 2 5 6
M  V30 6 1 6 7
M  V30 7 2 7 8
M  V30 8 1 8 9
M  V30 9 2 9 10
M  V30 10 1 10 11
M  V30 11 2 11 12
M  V30 12 1 12 13
M  V30 13 2 13 14
M  V30 14 1 14 15
M  V30 15 2 15 16
M  V30 16 1 16 17
M  V30 17 2 17 18
M  V30 18 1 17 19
M  V30 19 1 19 20
M  V30 20 2 20 21
M  V30 21 2 20 22
M  V30 22 1 20 23
M  V30 23 1 12 24
M  V30 24 2 24 25
M  V30 25 1 25 5
M  V30 26 1 24 8
M  V30 27 1 18 13
M  V30 28 1 23 16
M  V30 29 1 1 26
M  V30 30 1 1 27
M  V30 31 1 1 28
M  V30 32 1 2 29
M  V30 33 1 6 30
M  V30 34 1 7 31
M  V30 35 1 9 32
M  V30 36 1 11 33
M  V30 37 1 14 34
M  V30 38 1 15 35
M  V30 39 1 18 36
M  V30 40 1 19 37
M  V30 41 1 19 38
M  V30 42 1 23 39
M  V30 END BOND
M  V30 END CTAB
M  END
>  <Dataset>  (799) 
ChEMBL_Kinases

>  <Ligand_Instance>  (799) 
nan

>  <PDB_ID>  (799) 
nan

>  <Standardized_SMILES>  (799) 
CNC(=O)c1ccc2cncc(-c3ccc4c(c3)CS(=O)(=O)N4)c2n1

>  <Name>  (799) 
nan

>  <Pocket>  (799) 
nan

>  <ATP_Site>  (799) 
nan

>  <Peripheral>  (799) 
nan

>  <Num_H_Atoms_ProtBoundConf>  (799) 
nan

>  <Num_Resolved_Atoms>  (799) 
nan

>  <Num_Not_Resolved_Atoms>  (799) 
nan

$$$$
CHEMBL3828572
     RDKit          3D

  0  0  0  0  0  0  0  0  0  0999 V3000
M  V30 BEGIN CTAB
M  V30 COUNTS 43 47 0 0 0
M  V30 BEGIN ATOM
M  V30 1 C -2.837652 -6.603439 1.330144 0
M  V30 2 N -1.634360 -6.033619 0.713482 0
M  V30 3 C -1.367993 -4.703880 0.720290 0
M  V30 4 C -0.165107 -4.503526 0.060099 0
M  V30 5 C 0.402647 -3.169395 -0.103935 0
M  V30 6 C -0.468226 -2.093639 -0.227707 0
M  V30 7 C -0.023265 -0.797629 -0.385981 0
M  V30 8 C 1.303722 -0.505466 -0.428691 0
M  V30 9 C 1.991003 0.769958 -0.569479 0
M  V30 10 C 2.934347 0.809466 -1.604903 0
M  V30 11 N 3.655690 1.915875 -1.904671 0
M  V30 12 C 3.505070 3.076168 -1.205842 0
M  V30 13 C 2.581421 3.055212 -0.182975 0
M  V30 14 C 2.319833 4.147150 0.618647 0
M  V30 15 C 1.411606 4.166027 1.652320 0
M  V30 16 C 0.694658 2.994669 1.918467 0
M  V30 17 C -0.287118 2.946837 3.004999 0
M  V30 18 N -0.573504 3.990606 3.812663 0
M  V30 19 C -1.508351 3.612796 4.693018 0
M  V30 20 C -1.791633 2.277795 4.393545 0
M  V30 21 O -1.038211 1.927501 3.380251 0
M  V30 22 C 0.911804 1.866994 1.150248 0
M  V30 23 C 1.839153 1.943827 0.138224 0
M  V30 24 C 2.183979 -1.589216 -0.304274 0
M  V30 25 C 1.754283 -2.890909 -0.145636 0
M  V30 26 C 0.252253 -5.761292 -0.327012 0
M  V30 27 N -0.656413 -6.665746 0.082055 0
M  V30 28 H -2.593194 -7.635855 1.644829 0
M  V30 29 H -3.724726 -6.503722 0.698966 0
M  V30 30 H -2.996733 -6.020255 2.279746 0
M  V30 31 H -1.999320 -3.947695 1.169250 0
M  V30 32 H -1.540568 -2.226005 -0.205249 0
M  V30 33 H -0.677398 0.042770 -0.493144 0
M  V30 34 H 3.202404 0.001404 -2.273592 0
M  V30 35 H 4.059405 3.978383 -1.412993 0
M  V30 36 H 2.863545 5.077490 0.436576 0
M  V30 37 H 1.253711 5.057102 2.243727 0
M  V30 38 H -2.017873 4.138763 5.512472 0
M  V30 39 H -2.494791 1.588604 4.867759 0
M  V30 40 H 0.350429 0.983369 1.386865 0
M  V30 41 H 3.278117 -1.485586 -0.323461 0
M  V30 42 H 2.443272 -3.719104 -0.050573 0
M  V30 43 H 1.179050 -5.892171 -0.869734 0
M  V30 END ATOM
M  V30 BEGIN BOND
M  V30 1 1 1 2
M  V30 2 1 2 3
M  V30 3 2 3 4
M  V30 4 1 4 5
M  V30 5 2 5 6
M  V30 6 1 6 7
M  V30 7 2 7 8
M  V30 8 1 8 9
M  V30 9 2 9 10
M  V30 10 1 10 11
M  V30 11 2 11 12
M  V30 12 1 12 13
M  V30 13 2 13 14
M  V30 14 1 14 15
M  V30 15 2 15 16
M  V30 16 1 16 17
M  V30 17 2 17 18
M  V30 18 1 18 19
M  V30 19 2 19 20
M  V30 20 1 20 21
M  V30 21 1 16 22
M  V30 22 2 22 23
M  V30 23 1 8 24
M  V30 24 2 24 25
M  V30 25 1 4 26
M  V30 26 2 26 27
M  V30 27 1 27 2
M  V30 28 1 25 5
M  V30 29 1 23 9
M  V30 30 1 23 13
M  V30 31 1 21 17
M  V30 32 1 1 28
M  V30 33 1 1 29
M  V30 34 1 1 30
M  V30 35 1 3 31
M  V30 36 1 6 32
M  V30 37 1 7 33
M  V30 38 1 10 34
M  V30 39 1 12 35
M  V30 40 1 14 36
M  V30 41 1 15 37
M  V30 42 1 19 38
M  V30 43 1 20 39
M  V30 44 1 22 40
M  V30 45 1 24 41
M  V30 46 1 25 42
M  V30 47 1 26 43
M  V30 END BOND
M  V30 END CTAB
M  END
>  <Dataset>  (800) 
ChEMBL_Kinases

>  <Ligand_Instance>  (800) 
nan

>  <PDB_ID>  (800) 
nan

>  <Standardized_SMILES>  (800) 
Cn1cc(-c2ccc(-c3cncc4ccc(-c5ncco5)cc34)cc2)cn1

>  <Name>  (800) 
nan

>  <Pocket>  (800) 
nan

>  <ATP_Site>  (800) 
nan

>  <Peripheral>  (800) 
nan

>  <Num_H_Atoms_ProtBoundConf>  (800) 
nan

>  <Num_Resolved_Atoms>  (800) 
nan

>  <Num_Not_Resolved_Atoms>  (800) 
nan

$$$$
CHEMBL3828571
     RDKit          3D

  0  0  0  0  0  0  0  0  0  0999 V3000
M  V30 BEGIN CTAB
M  V30 COUNTS 46 48 0 0 0
M  V30 BEGIN ATOM
M  V30 1 C -2.101401 -6.987661 -0.502151 0
M  V30 2 O -2.454707 -5.849806 -1.262668 0
M  V30 3 C -1.574545 -4.797945 -1.460690 0
M  V30 4 C -0.317749 -4.792155 -0.937900 0
M  V30 5 C 0.519073 -3.715610 -1.167318 0
M  V30 6 C 0.075741 -2.635786 -1.934180 0
M  V30 7 C 1.042852 -1.522849 -2.128270 0
M  V30 8 C 0.890661 -0.504539 -1.027266 0
M  V30 9 O -0.013464 -1.264334 -0.595307 0
M  V30 10 N 1.686754 0.655323 -0.967328 0
M  V30 11 N 1.315844 1.411594 0.167275 0
M  V30 12 C 0.284500 2.377560 -0.045897 0
M  V30 13 O -0.032750 2.279993 -1.280553 0
M  V30 14 C -0.100121 3.168305 1.150455 0
M  V30 15 N 0.629906 2.837512 2.334293 0
M  V30 16 C 1.791154 3.452223 2.677347 0
M  V30 17 C 2.536491 4.527917 1.978734 0
M  V30 18 N 2.225669 2.913304 3.842816 0
M  V30 19 C 1.373303 1.962685 4.264552 0
M  V30 20 C 1.243331 1.083474 5.318794 0
M  V30 21 C 0.177272 0.229683 5.393851 0
M  V30 22 C -0.819934 0.192326 4.437650 0
M  V30 23 C -0.688205 1.077173 3.377597 0
M  V30 24 C 0.382302 1.942265 3.291766 0
M  V30 25 C -1.194051 -2.608546 -2.480185 0
M  V30 26 C -1.997272 -3.722934 -2.216341 0
M  V30 27 H -1.145332 -7.428393 -0.799666 0
M  V30 28 H -2.871360 -7.757730 -0.584082 0
M  V30 29 H -1.971973 -6.659599 0.550943 0
M  V30 30 H -0.058460 -5.667299 -0.358268 0
M  V30 31 H 1.492620 -3.785978 -0.722061 0
M  V30 32 H 2.082283 -1.895527 -2.070664 0
M  V30 33 H 0.820281 -1.016390 -3.086778 0
M  V30 34 H 2.376367 0.734710 -1.745144 0
M  V30 35 H 1.839949 1.187003 1.064704 0
M  V30 36 H 0.007822 4.252042 0.949493 0
M  V30 37 H -1.185705 3.023775 1.398296 0
M  V30 38 H 3.450711 4.163716 1.478434 0
M  V30 39 H 2.840797 5.341546 2.673196 0
M  V30 40 H 1.880239 5.014780 1.220441 0
M  V30 41 H 2.018838 1.109439 6.066641 0
M  V30 42 H 0.060367 -0.470067 6.219370 0
M  V30 43 H -1.664880 -0.469706 4.477570 0
M  V30 44 H -1.460695 1.055681 2.626624 0
M  V30 45 H -1.491889 -1.765309 -3.058893 0
M  V30 46 H -3.012341 -3.722331 -2.641331 0
M  V30 END ATOM
M  V30 BEGIN BOND
M  V30 1 1 1 2
M  V30 2 1 2 3
M  V30 3 2 3 4
M  V30 4 1 4 5
M  V30 5 2 5 6
M  V30 6 1 6 7
M  V30 7 1 7 8
M  V30 8 2 8 9
M  V30 9 1 8 10
M  V30 10 1 10 11
M  V30 11 1 11 12
M  V30 12 2 12 13
M  V30 13 1 12 14
M  V30 14 1 14 15
M  V30 15 1 15 16
M  V30 16 1 16 17
M  V30 17 2 16 18
M  V30 18 1 18 19
M  V30 19 2 19 20
M  V30 20 1 20 21
M  V30 21 2 21 22
M  V30 22 1 22 23
M  V30 23 2 23 24
M  V30 24 1 6 25
M  V30 25 2 25 26
M  V30 26 1 26 3
M  V30 27 1 24 15
M  V30 28 1 24 19
M  V30 29 1 1 27
M  V30 30 1 1 28
M  V30 31 1 1 29
M  V30 32 1 4 30
M  V30 33 1 5 31
M  V30 34 1 7 32
M  V30 35 1 7 33
M  V30 36 1 10 34
M  V30 37 1 11 35
M  V30 38 1 14 36
M  V30 39 1 14 37
M  V30 40 1 17 38
M  V30 41 1 17 39
M  V30 42 1 17 40
M  V30 43 1 20 41
M  V30 44 1 21 42
M  V30 45 1 22 43
M  V30 46 1 23 44
M  V30 47 1 25 45
M  V30 48 1 26 46
M  V30 END BOND
M  V30 END CTAB
M  END
>  <Dataset>  (801) 
ChEMBL_Kinases

>  <Ligand_Instance>  (801) 
nan

>  <PDB_ID>  (801) 
nan

>  <Standardized_SMILES>  (801) 
COc1ccc(CC(=O)NNC(=O)Cn2c(C)nc3ccccc32)cc1

>  <Name>  (801) 
nan

>  <Pocket>  (801) 
nan

>  <ATP_Site>  (801) 
nan

>  <Peripheral>  (801) 
nan

>  <Num_H_Atoms_ProtBoundConf>  (801) 
nan

>  <Num_Resolved_Atoms>  (801) 
nan

>  <Num_Not_Resolved_Atoms>  (801) 
nan

$$$$
CHEMBL3828553
     RDKit          3D

  0  0  0  0  0  0  0  0  0  0999 V3000
M  V30 BEGIN CTAB
M  V30 COUNTS 53 57 0 0 0
M  V30 BEGIN ATOM
M  V30 1 C 0.792765 -4.358280 3.864314 0
M  V30 2 O 2.058771 -3.779352 3.748404 0
M  V30 3 C 1.884662 -2.438628 3.518210 0
M  V30 4 C 2.735958 -1.498048 4.383966 0
M  V30 5 N 2.658559 -0.592185 3.224414 0
M  V30 6 C 2.520790 0.814941 3.068856 0
M  V30 7 O 2.445817 1.465332 4.150670 0
M  V30 8 C 2.477479 1.384935 1.745054 0
M  V30 9 C 3.448543 2.308523 1.386800 0
M  V30 10 C 3.478541 2.900672 0.141657 0
M  V30 11 C 2.478354 2.521848 -0.743129 0
M  V30 12 C 2.409691 3.050328 -2.015182 0
M  V30 13 N 3.366517 4.006011 -2.468788 0
M  V30 14 N 1.468368 2.729442 -2.922601 0
M  V30 15 C 0.523347 1.836186 -2.585706 0
M  V30 16 C 0.564533 1.287527 -1.316507 0
M  V30 17 C -0.481647 0.321552 -0.997921 0
M  V30 18 C -1.777919 0.688307 -1.362618 0
M  V30 19 C -2.820152 -0.176553 -1.093200 0
M  V30 20 C -2.604475 -1.392303 -0.472376 0
M  V30 21 C -3.711322 -2.303555 -0.189815 0
M  V30 22 C -3.899554 -3.226228 0.840469 0
M  V30 23 N -5.095824 -3.827290 0.654570 0
M  V30 24 N -5.683615 -3.351686 -0.423176 0
M  V30 25 C -6.972160 -3.755934 -0.936893 0
M  V30 26 C -4.867006 -2.429905 -0.950512 0
M  V30 27 C -1.315092 -1.756229 -0.110059 0
M  V30 28 C -0.269957 -0.894875 -0.377421 0
M  V30 29 C 1.525758 1.603625 -0.364613 0
M  V30 30 N 1.521866 1.042587 0.857308 0
M  V30 31 C 2.789351 -1.830080 2.439378 0
M  V30 32 H 0.831632 -5.455464 4.054380 0
M  V30 33 H 0.202562 -4.195954 2.919332 0
M  V30 34 H 0.194615 -3.899119 4.670002 0
M  V30 35 H 0.849650 -2.059893 3.466495 0
M  V30 36 H 3.799208 -1.863744 4.455341 0
M  V30 37 H 2.271737 -1.144804 5.301040 0
M  V30 38 H 4.224033 2.605740 2.065717 0
M  V30 39 H 4.190112 3.619038 -0.212107 0
M  V30 40 H 4.043202 3.515944 -3.095122 0
M  V30 41 H 3.730975 4.981326 -2.481368 0
M  V30 42 H -0.249593 1.554434 -3.292012 0
M  V30 43 H -2.006173 1.625120 -1.849656 0
M  V30 44 H -3.825443 0.080268 -1.362820 0
M  V30 45 H -3.142566 -3.357188 1.612289 0
M  V30 46 H -7.077675 -4.862708 -0.842550 0
M  V30 47 H -7.778544 -3.335587 -0.303411 0
M  V30 48 H -7.099843 -3.467745 -2.003330 0
M  V30 49 H -5.092392 -1.865284 -1.853430 0
M  V30 50 H -1.070034 -2.686551 0.377264 0
M  V30 51 H 0.765785 -1.045523 -0.155675 0
M  V30 52 H 3.783110 -2.302168 2.472991 0
M  V30 53 H 2.390761 -1.804808 1.430676 0
M  V30 END ATOM
M  V30 BEGIN BOND
M  V30 1 1 1 2
M  V30 2 1 2 3
M  V30 3 1 3 4
M  V30 4 1 4 5
M  V30 5 1 5 6
M  V30 6 2 6 7
M  V30 7 1 6 8
M  V30 8 2 8 9
M  V30 9 1 9 10
M  V30 10 2 10 11
M  V30 11 1 11 12
M  V30 12 1 12 13
M  V30 13 2 12 14
M  V30 14 1 14 15
M  V30 15 2 15 16
M  V30 16 1 16 17
M  V30 17 2 17 18
M  V30 18 1 18 19
M  V30 19 2 19 20
M  V30 20 1 20 21
M  V30 21 1 21 22
M  V30 22 2 22 23
M  V30 23 1 23 24
M  V30 24 1 24 25
M  V30 25 1 24 26
M  V30 26 1 20 27
M  V30 27 2 27 28
M  V30 28 1 16 29
M  V30 29 2 29 30
M  V30 30 1 5 31
M  V30 31 1 31 3
M  V30 32 1 30 8
M  V30 33 1 29 11
M  V30 34 1 28 17
M  V30 35 2 26 21
M  V30 36 1 1 32
M  V30 37 1 1 33
M  V30 38 1 1 34
M  V30 39 1 3 35
M  V30 40 1 4 36
M  V30 41 1 4 37
M  V30 42 1 9 38
M  V30 43 1 10 39
M  V30 44 1 13 40
M  V30 45 1 13 41
M  V30 46 1 15 42
M  V30 47 1 18 43
M  V30 48 1 19 44
M  V30 49 1 22 45
M  V30 50 1 25 46
M  V30 51 1 25 47
M  V30 52 1 25 48
M  V30 53 1 26 49
M  V30 54 1 27 50
M  V30 55 1 28 51
M  V30 56 1 31 52
M  V30 57 1 31 53
M  V30 END BOND
M  V30 END CTAB
M  END
>  <Dataset>  (802) 
ChEMBL_Kinases

>  <Ligand_Instance>  (802) 
nan

>  <PDB_ID>  (802) 
nan

>  <Standardized_SMILES>  (802) 
COC1CN(C(=O)c2ccc3c(N)ncc(-c4ccc(-c5cnn(C)c5)cc4)c3n2)C1

>  <Name>  (802) 
nan

>  <Pocket>  (802) 
nan

>  <ATP_Site>  (802) 
nan

>  <Peripheral>  (802) 
nan

>  <Num_H_Atoms_ProtBoundConf>  (802) 
nan

>  <Num_Resolved_Atoms>  (802) 
nan

>  <Num_Not_Resolved_Atoms>  (802) 
nan

$$$$
CHEMBL3828523
     RDKit          3D

  0  0  0  0  0  0  0  0  0  0999 V3000
M  V30 BEGIN CTAB
M  V30 COUNTS 50 54 0 0 0
M  V30 BEGIN ATOM
M  V30 1 C -1.568844 -7.261119 1.208659 0
M  V30 2 N -0.423039 -6.364723 1.379567 0
M  V30 3 C -0.451431 -5.232597 0.600655 0
M  V30 4 C 0.694310 -4.527633 0.914832 0
M  V30 5 C 1.039745 -3.232461 0.283565 0
M  V30 6 C 1.742731 -2.257531 0.974892 0
M  V30 7 C 2.029893 -1.056618 0.321215 0
M  V30 8 C 1.638886 -0.797269 -0.998664 0
M  V30 9 C 1.995936 0.504963 -1.557870 0
M  V30 10 C 2.596474 0.705236 -2.791919 0
M  V30 11 N 2.900631 1.934734 -3.232330 0
M  V30 12 C 2.657769 3.060496 -2.536025 0
M  V30 13 C 2.053274 2.861387 -1.294372 0
M  V30 14 C 1.765147 3.970869 -0.521460 0
M  V30 15 C 1.164767 3.896392 0.715087 0
M  V30 16 C 0.852420 2.631391 1.167672 0
M  V30 17 C 0.206286 2.352140 2.460152 0
M  V30 18 O 0.653265 2.697789 3.582262 0
M  V30 19 N -1.033587 1.625813 2.406254 0
M  V30 20 C -1.976328 1.155619 3.397610 0
M  V30 21 C -3.359908 1.467628 2.845141 0
M  V30 22 C -3.095129 1.733379 1.381022 0
M  V30 23 C -1.719461 1.131671 1.212041 0
M  V30 24 N 1.119593 1.522342 0.439863 0
M  V30 25 C 1.711335 1.609883 -0.777437 0
M  V30 26 C 0.932594 -1.797869 -1.668729 0
M  V30 27 C 0.646317 -2.985810 -1.028062 0
M  V30 28 C 1.390717 -5.237121 1.869536 0
M  V30 29 N 0.669364 -6.339581 2.113340 0
M  V30 30 H -2.522337 -6.691256 1.403473 0
M  V30 31 H -1.606517 -7.693744 0.190679 0
M  V30 32 H -1.548975 -8.106546 1.922831 0
M  V30 33 H -1.187217 -4.879052 -0.142074 0
M  V30 34 H 2.053026 -2.442025 1.996202 0
M  V30 35 H 2.582964 -0.354927 0.945276 0
M  V30 36 H 2.779662 -0.195954 -3.323650 0
M  V30 37 H 2.895474 4.058632 -2.872709 0
M  V30 38 H 2.015472 4.972385 -0.885814 0
M  V30 39 H 0.923487 4.734661 1.346060 0
M  V30 40 H -1.791654 1.698706 4.336504 0
M  V30 41 H -1.893274 0.089085 3.617097 0
M  V30 42 H -3.748812 2.397761 3.309645 0
M  V30 43 H -4.073768 0.652531 2.948815 0
M  V30 44 H -3.851289 1.236146 0.738539 0
M  V30 45 H -3.011737 2.808119 1.200334 0
M  V30 46 H -1.760045 0.014546 1.222465 0
M  V30 47 H -1.265434 1.530541 0.280937 0
M  V30 48 H 0.648968 -1.551370 -2.686591 0
M  V30 49 H 0.101058 -3.742689 -1.564591 0
M  V30 50 H 2.328747 -4.948387 2.319339 0
M  V30 END ATOM
M  V30 BEGIN BOND
M  V30 1 1 1 2
M  V30 2 1 2 3
M  V30 3 2 3 4
M  V30 4 1 4 5
M  V30 5 2 5 6
M  V30 6 1 6 7
M  V30 7 2 7 8
M  V30 8 1 8 9
M  V30 9 2 9 10
M  V30 10 1 10 11
M  V30 11 2 11 12
M  V30 12 1 12 13
M  V30 13 2 13 14
M  V30 14 1 14 15
M  V30 15 2 15 16
M  V30 16 1 16 17
M  V30 17 2 17 18
M  V30 18 1 17 19
M  V30 19 1 19 20
M  V30 20 1 20 21
M  V30 21 1 21 22
M  V30 22 1 22 23
M  V30 23 1 16 24
M  V30 24 2 24 25
M  V30 25 1 8 26
M  V30 26 2 26 27
M  V30 27 1 4 28
M  V30 28 2 28 29
M  V30 29 1 29 2
M  V30 30 1 27 5
M  V30 31 1 25 9
M  V30 32 1 25 13
M  V30 33 1 23 19
M  V30 34 1 1 30
M  V30 35 1 1 31
M  V30 36 1 1 32
M  V30 37 1 3 33
M  V30 38 1 6 34
M  V30 39 1 7 35
M  V30 40 1 10 36
M  V30 41 1 12 37
M  V30 42 1 14 38
M  V30 43 1 15 39
M  V30 44 1 20 40
M  V30 45 1 20 41
M  V30 46 1 21 42
M  V30 47 1 21 43
M  V30 48 1 22 44
M  V30 49 1 22 45
M  V30 50 1 23 46
M  V30 51 1 23 47
M  V30 52 1 26 48
M  V30 53 1 27 49
M  V30 54 1 28 50
M  V30 END BOND
M  V30 END CTAB
M  END
>  <Dataset>  (803) 
ChEMBL_Kinases

>  <Ligand_Instance>  (803) 
nan

>  <PDB_ID>  (803) 
nan

>  <Standardized_SMILES>  (803) 
Cn1cc(-c2ccc(-c3cncc4ccc(C(=O)N5CCCC5)nc34)cc2)cn1

>  <Name>  (803) 
nan

>  <Pocket>  (803) 
nan

>  <ATP_Site>  (803) 
nan

>  <Peripheral>  (803) 
nan

>  <Num_H_Atoms_ProtBoundConf>  (803) 
nan

>  <Num_Resolved_Atoms>  (803) 
nan

>  <Num_Not_Resolved_Atoms>  (803) 
nan

$$$$
CHEMBL3828503
     RDKit          3D

  0  0  0  0  0  0  0  0  0  0999 V3000
M  V30 BEGIN CTAB
M  V30 COUNTS 46 50 0 0 0
M  V30 BEGIN ATOM
M  V30 1 C 0.514410 -7.309813 3.012447 0
M  V30 2 N 0.552764 -6.558148 1.771033 0
M  V30 3 C 0.611501 -5.218304 1.789425 0
M  V30 4 C 0.638930 -4.711404 0.505353 0
M  V30 5 C 0.702009 -3.325130 0.043960 0
M  V30 6 C 1.368275 -2.349122 0.771106 0
M  V30 7 C 1.364128 -1.080656 0.246986 0
M  V30 8 C 0.754747 -0.709193 -0.932391 0
M  V30 9 C 0.730346 0.634511 -1.488222 0
M  V30 10 C 1.199591 0.647090 -2.803950 0
M  V30 11 N 1.263487 1.846521 -3.451224 0
M  V30 12 C 0.885519 2.975684 -2.837192 0
M  V30 13 C 0.415373 3.022781 -1.544095 0
M  V30 14 C 0.008710 4.157005 -0.871291 0
M  V30 15 C -0.452630 4.069213 0.429487 0
M  V30 16 C -0.508631 2.825158 1.069159 0
M  V30 17 N -0.995630 2.828411 2.405357 0
M  V30 18 C -0.040033 2.995322 3.510836 0
M  V30 19 C -0.888965 2.927933 4.774612 0
M  V30 20 O -2.172281 3.261205 4.274628 0
M  V30 21 C -2.302469 2.696890 2.990203 0
M  V30 22 O -3.158698 2.138008 2.221990 0
M  V30 23 C -0.109390 1.674072 0.423973 0
M  V30 24 C 0.345143 1.798567 -0.869907 0
M  V30 25 C 0.083145 -1.694615 -1.665301 0
M  V30 26 C 0.083600 -2.983616 -1.139602 0
M  V30 27 C 0.592356 -5.849146 -0.308025 0
M  V30 28 N 0.542206 -6.915515 0.514127 0
M  V30 29 H 1.473218 -7.177281 3.586176 0
M  V30 30 H -0.293384 -6.942989 3.703526 0
M  V30 31 H 0.314432 -8.370737 2.852307 0
M  V30 32 H 0.637396 -4.546510 2.636256 0
M  V30 33 H 1.862664 -2.585685 1.702832 0
M  V30 34 H 1.898455 -0.339459 0.821424 0
M  V30 35 H 1.527370 -0.210323 -3.384077 0
M  V30 36 H 0.915948 3.963057 -3.307000 0
M  V30 37 H 0.072504 5.100142 -1.414958 0
M  V30 38 H -0.773560 4.974420 0.957233 0
M  V30 39 H 0.504404 3.946595 3.407162 0
M  V30 40 H 0.634065 2.133347 3.510430 0
M  V30 41 H -0.600686 3.661232 5.533609 0
M  V30 42 H -0.873596 1.895326 5.205158 0
M  V30 43 H -0.172217 0.731945 0.937196 0
M  V30 44 H -0.416688 -1.492472 -2.592019 0
M  V30 45 H -0.446657 -3.736865 -1.728206 0
M  V30 46 H 0.597117 -5.843924 -1.382630 0
M  V30 END ATOM
M  V30 BEGIN BOND
M  V30 1 1 1 2
M  V30 2 1 2 3
M  V30 3 2 3 4
M  V30 4 1 4 5
M  V30 5 2 5 6
M  V30 6 1 6 7
M  V30 7 2 7 8
M  V30 8 1 8 9
M  V30 9 2 9 10
M  V30 10 1 10 11
M  V30 11 2 11 12
M  V30 12 1 12 13
M  V30 13 2 13 14
M  V30 14 1 14 15
M  V30 15 2 15 16
M  V30 16 1 16 17
M  V30 17 1 17 18
M  V30 18 1 18 19
M  V30 19 1 19 20
M  V30 20 1 20 21
M  V30 21 2 21 22
M  V30 22 1 16 23
M  V30 23 2 23 24
M  V30 24 1 8 25
M  V30 25 2 25 26
M  V30 26 1 4 27
M  V30 27 2 27 28
M  V30 28 1 28 2
M  V30 29 1 26 5
M  V30 30 1 24 9
M  V30 31 1 24 13
M  V30 32 1 21 17
M  V30 33 1 1 29
M  V30 34 1 1 30
M  V30 35 1 1 31
M  V30 36 1 3 32
M  V30 37 1 6 33
M  V30 38 1 7 34
M  V30 39 1 10 35
M  V30 40 1 12 36
M  V30 41 1 14 37
M  V30 42 1 15 38
M  V30 43 1 18 39
M  V30 44 1 18 40
M  V30 45 1 19 41
M  V30 46 1 19 42
M  V30 47 1 23 43
M  V30 48 1 25 44
M  V30 49 1 26 45
M  V30 50 1 27 46
M  V30 END BOND
M  V30 END CTAB
M  END
>  <Dataset>  (804) 
ChEMBL_Kinases

>  <Ligand_Instance>  (804) 
nan

>  <PDB_ID>  (804) 
nan

>  <Standardized_SMILES>  (804) 
Cn1cc(-c2ccc(-c3cncc4ccc(N5CCOC5=O)cc34)cc2)cn1

>  <Name>  (804) 
nan

>  <Pocket>  (804) 
nan

>  <ATP_Site>  (804) 
nan

>  <Peripheral>  (804) 
nan

>  <Num_H_Atoms_ProtBoundConf>  (804) 
nan

>  <Num_Resolved_Atoms>  (804) 
nan

>  <Num_Not_Resolved_Atoms>  (804) 
nan

$$$$
CHEMBL3828491
     RDKit          3D

  0  0  0  0  0  0  0  0  0  0999 V3000
M  V30 BEGIN CTAB
M  V30 COUNTS 44 46 0 0 0
M  V30 BEGIN ATOM
M  V30 1 C 4.493821 -1.174559 0.843810 0
M  V30 2 C 4.519692 0.091734 0.081183 0
M  V30 3 N 5.340383 0.244004 -0.952483 0
M  V30 4 C 5.199080 1.464155 -1.490267 0
M  V30 5 C 5.711613 2.230580 -2.522905 0
M  V30 6 C 5.302481 3.520207 -2.793136 0
M  V30 7 C 4.320075 4.092831 -1.989521 0
M  V30 8 C 3.819220 3.316081 -0.965046 0
M  V30 9 C 4.208512 2.024174 -0.670411 0
M  V30 10 N 3.782523 1.188918 0.299595 0
M  V30 11 C 2.774655 1.487811 1.290220 0
M  V30 12 C 1.453782 1.095719 0.732224 0
M  V30 13 O 0.744325 1.793654 -0.034952 0
M  V30 14 N 0.979213 -0.168608 1.111775 0
M  V30 15 N -0.112247 -0.969299 0.899510 0
M  V30 16 C -1.355901 -1.413898 1.232420 0
M  V30 17 O -1.950120 -0.923661 2.263255 0
M  V30 18 C -2.217135 -2.426830 0.589582 0
M  V30 19 C -3.488305 -2.604557 1.332847 0
M  V30 20 C -3.467136 -3.553369 2.362568 0
M  V30 21 C -4.534915 -3.874208 3.171458 0
M  V30 22 C -5.712924 -3.179936 2.916655 0
M  V30 23 N -6.819236 -3.505337 3.743742 0 CHG=1 VAL=4
M  V30 24 O -7.961821 -3.007814 3.680067 0
M  V30 25 O -6.883702 -4.415852 4.773610 0 CHG=-1 VAL=1
M  V30 26 C -5.805730 -2.231085 1.917521 0
M  V30 27 C -4.694498 -1.964181 1.148660 0
M  V30 28 H 5.552343 -1.418656 1.092869 0
M  V30 29 H 3.866774 -1.173048 1.727205 0
M  V30 30 H 4.060788 -1.944147 0.150310 0
M  V30 31 H 6.474224 1.681942 -3.086417 0
M  V30 32 H 5.756370 4.046767 -3.621038 0
M  V30 33 H 3.979168 5.100813 -2.173350 0
M  V30 34 H 3.063059 3.795396 -0.367316 0
M  V30 35 H 2.776082 2.582110 1.546225 0
M  V30 36 H 2.985664 0.979512 2.246434 0
M  V30 37 H 1.541903 -0.790182 1.773602 0
M  V30 38 H 0.164948 -1.508302 0.012916 0
M  V30 39 H -1.694546 -3.416419 0.454539 0
M  V30 40 H -2.390616 -2.070321 -0.455385 0
M  V30 41 H -2.537739 -4.100919 2.564399 0
M  V30 42 H -4.417822 -4.627475 3.944122 0
M  V30 43 H -6.727474 -1.708939 1.742219 0
M  V30 44 H -4.700946 -1.235627 0.354273 0
M  V30 END ATOM
M  V30 BEGIN BOND
M  V30 1 1 1 2
M  V30 2 2 2 3
M  V30 3 1 3 4
M  V30 4 2 4 5
M  V30 5 1 5 6
M  V30 6 2 6 7
M  V30 7 1 7 8
M  V30 8 2 8 9
M  V30 9 1 9 10
M  V30 10 1 10 11
M  V30 11 1 11 12
M  V30 12 2 12 13
M  V30 13 1 12 14
M  V30 14 1 14 15
M  V30 15 1 15 16
M  V30 16 2 16 17
M  V30 17 1 16 18
M  V30 18 1 18 19
M  V30 19 2 19 20
M  V30 20 1 20 21
M  V30 21 2 21 22
M  V30 22 1 22 23
M  V30 23 2 23 24
M  V30 24 1 23 25
M  V30 25 1 22 26
M  V30 26 2 26 27
M  V30 27 1 10 2
M  V30 28 1 27 19
M  V30 29 1 9 4
M  V30 30 1 1 28
M  V30 31 1 1 29
M  V30 32 1 1 30
M  V30 33 1 5 31
M  V30 34 1 6 32
M  V30 35 1 7 33
M  V30 36 1 8 34
M  V30 37 1 11 35
M  V30 38 1 11 36
M  V30 39 1 14 37
M  V30 40 1 15 38
M  V30 41 1 18 39
M  V30 42 1 18 40
M  V30 43 1 20 41
M  V30 44 1 21 42
M  V30 45 1 26 43
M  V30 46 1 27 44
M  V30 END BOND
M  V30 END CTAB
M  END
>  <Dataset>  (805) 
ChEMBL_Kinases

>  <Ligand_Instance>  (805) 
nan

>  <PDB_ID>  (805) 
nan

>  <Standardized_SMILES>  (805) 
Cc1nc2ccccc2n1CC(=O)NNC(=O)Cc1ccc([N+](=O)[O-])cc1

>  <Name>  (805) 
nan

>  <Pocket>  (805) 
nan

>  <ATP_Site>  (805) 
nan

>  <Peripheral>  (805) 
nan

>  <Num_H_Atoms_ProtBoundConf>  (805) 
nan

>  <Num_Resolved_Atoms>  (805) 
nan

>  <Num_Not_Resolved_Atoms>  (805) 
nan

$$$$
CHEMBL3828286
     RDKit          3D

  0  0  0  0  0  0  0  0  0  0999 V3000
M  V30 BEGIN CTAB
M  V30 COUNTS 52 56 0 0 0
M  V30 BEGIN ATOM
M  V30 1 C 0.181717 -4.474011 6.337750 0
M  V30 2 N 0.920036 -4.279007 5.090863 0
M  V30 3 C 1.122753 -3.075160 4.474678 0
M  V30 4 C 1.850617 -3.276349 3.304135 0
M  V30 5 C 2.178868 -2.110248 2.501669 0
M  V30 6 C 2.195489 -2.396272 1.150592 0
M  V30 7 C 2.472483 -1.372020 0.251327 0
M  V30 8 C 2.718191 -0.105201 0.800542 0
M  V30 9 C 2.903285 1.076484 -0.043455 0
M  V30 10 C 3.952534 1.968866 -0.227607 0
M  V30 11 N 3.822411 3.002506 -1.112241 0
M  V30 12 C 2.682830 3.151461 -1.799276 0
M  V30 13 N 2.667825 4.274673 -2.692748 0
M  V30 14 C 1.566358 2.345293 -1.718380 0
M  V30 15 C 0.403389 2.538251 -2.426473 0
M  V30 16 C -0.615906 1.641220 -2.195402 0
M  V30 17 C -0.512370 0.594769 -1.311862 0
M  V30 18 C -1.459053 -0.424472 -0.911835 0
M  V30 19 O -0.949887 -1.405552 -0.224522 0
M  V30 20 N -2.892929 -0.603234 -1.108016 0
M  V30 21 C -4.138611 -0.090690 -1.692803 0
M  V30 22 C -4.886528 -0.780096 -0.582409 0
M  V30 23 C -6.106060 -1.586594 -0.965704 0
M  V30 24 F -5.047510 -0.012063 0.557803 0
M  V30 25 C -3.696763 -1.695529 -0.587274 0
M  V30 26 N 0.677120 0.545040 -0.707541 0
M  V30 27 C 1.737697 1.307021 -0.810201 0
M  V30 28 C 2.701725 0.166361 2.151060 0
M  V30 29 C 2.423213 -0.862868 3.035310 0
M  V30 30 C 2.072400 -4.632041 3.247882 0
M  V30 31 N 1.502209 -5.174803 4.325322 0
M  V30 32 H 0.073443 -3.488210 6.856748 0
M  V30 33 H -0.877210 -4.756609 6.073103 0
M  V30 34 H 0.657679 -5.211936 6.992724 0
M  V30 35 H 0.719395 -2.172056 4.925934 0
M  V30 36 H 2.010127 -3.366644 0.695988 0
M  V30 37 H 2.512283 -1.480847 -0.824733 0
M  V30 38 H 4.785829 1.682585 0.418666 0
M  V30 39 H 2.981157 4.539995 -3.653231 0
M  V30 40 H 2.225009 5.176077 -2.377024 0
M  V30 41 H 0.338334 3.360664 -3.115386 0
M  V30 42 H -1.583255 1.702992 -2.708545 0
M  V30 43 H -4.226379 1.005835 -1.720255 0
M  V30 44 H -4.369632 -0.567255 -2.673167 0
M  V30 45 H -6.071464 -2.526251 -0.331590 0
M  V30 46 H -5.957096 -1.860019 -2.030592 0
M  V30 47 H -7.056393 -1.099621 -0.751793 0
M  V30 48 H -3.783256 -2.468506 -1.370852 0
M  V30 49 H -3.377879 -2.048383 0.418796 0
M  V30 50 H 2.899648 1.139092 2.563399 0
M  V30 51 H 2.382671 -0.772458 4.097988 0
M  V30 52 H 2.633798 -4.940725 2.386324 0
M  V30 END ATOM
M  V30 BEGIN BOND
M  V30 1 1 1 2
M  V30 2 1 2 3
M  V30 3 2 3 4
M  V30 4 1 4 5
M  V30 5 2 5 6
M  V30 6 1 6 7
M  V30 7 2 7 8
M  V30 8 1 8 9
M  V30 9 2 9 10
M  V30 10 1 10 11
M  V30 11 2 11 12
M  V30 12 1 12 13
M  V30 13 1 12 14
M  V30 14 2 14 15
M  V30 15 1 15 16
M  V30 16 2 16 17
M  V30 17 1 17 18
M  V30 18 2 18 19
M  V30 19 1 18 20
M  V30 20 1 20 21
M  V30 21 1 21 22
M  V30 22 1 22 23
M  V30 23 1 22 24
M  V30 24 1 22 25
M  V30 25 1 17 26
M  V30 26 2 26 27
M  V30 27 1 8 28
M  V30 28 2 28 29
M  V30 29 1 4 30
M  V30 30 2 30 31
M  V30 31 1 31 2
M  V30 32 1 29 5
M  V30 33 1 27 9
M  V30 34 1 27 14
M  V30 35 1 25 20
M  V30 36 1 1 32
M  V30 37 1 1 33
M  V30 38 1 1 34
M  V30 39 1 3 35
M  V30 40 1 6 36
M  V30 41 1 7 37
M  V30 42 1 10 38
M  V30 43 1 13 39
M  V30 44 1 13 40
M  V30 45 1 15 41
M  V30 46 1 16 42
M  V30 47 1 21 43
M  V30 48 1 21 44
M  V30 49 1 23 45
M  V30 50 1 23 46
M  V30 51 1 23 47
M  V30 52 1 25 48
M  V30 53 1 25 49
M  V30 54 1 28 50
M  V30 55 1 29 51
M  V30 56 1 30 52
M  V30 END BOND
M  V30 END CTAB
M  END
>  <Dataset>  (806) 
ChEMBL_Kinases

>  <Ligand_Instance>  (806) 
nan

>  <PDB_ID>  (806) 
nan

>  <Standardized_SMILES>  (806) 
Cn1cc(-c2ccc(-c3cnc(N)c4ccc(C(=O)N5CC(C)(F)C5)nc34)cc2)cn1

>  <Name>  (806) 
nan

>  <Pocket>  (806) 
nan

>  <ATP_Site>  (806) 
nan

>  <Peripheral>  (806) 
nan

>  <Num_H_Atoms_ProtBoundConf>  (806) 
nan

>  <Num_Resolved_Atoms>  (806) 
nan

>  <Num_Not_Resolved_Atoms>  (806) 
nan

$$$$
CHEMBL3828470
     RDKit          3D

  0  0  0  0  0  0  0  0  0  0999 V3000
M  V30 BEGIN CTAB
M  V30 COUNTS 50 54 0 0 0
M  V30 BEGIN ATOM
M  V30 1 C -0.989564 -7.728976 0.082121 0
M  V30 2 N 0.037575 -6.749213 -0.248106 0
M  V30 3 C -0.026978 -5.414091 -0.058246 0
M  V30 4 C 1.146399 -4.797279 -0.497187 0
M  V30 5 C 1.416018 -3.362702 -0.441535 0
M  V30 6 C 2.681080 -2.836492 -0.276277 0
M  V30 7 C 2.776107 -1.458707 -0.245321 0
M  V30 8 C 1.742553 -0.552338 -0.362034 0
M  V30 9 C 1.956645 0.880837 -0.331853 0
M  V30 10 C 2.888755 1.335815 -1.266408 0
M  V30 11 N 3.154355 2.665340 -1.358727 0
M  V30 12 C 2.540370 3.563996 -0.569411 0
M  V30 13 N 2.753740 4.968898 -0.594579 0
M  V30 14 C 1.622864 3.106767 0.349965 0
M  V30 15 C 0.951668 3.984456 1.209705 0
M  V30 16 C 0.031123 3.531667 2.144327 0
M  V30 17 C -0.239095 2.173530 2.238692 0
M  V30 18 C -1.200372 1.604817 3.202640 0
M  V30 19 O -0.692840 1.569039 4.363834 0
M  V30 20 N -2.477951 1.203625 2.721390 0
M  V30 21 C -3.155863 1.201821 1.422983 0
M  V30 22 C -4.484599 1.210459 2.156495 0
M  V30 23 C -3.672331 0.619988 3.292996 0
M  V30 24 C 0.394141 1.260856 1.414614 0
M  V30 25 C 1.294426 1.780772 0.510612 0
M  V30 26 C 0.490470 -1.159004 -0.527034 0
M  V30 27 C 0.326953 -2.522834 -0.566009 0
M  V30 28 C 1.910345 -5.855296 -0.960196 0
M  V30 29 N 1.229108 -7.020968 -0.802965 0
M  V30 30 H -1.579829 -7.438028 0.973961 0
M  V30 31 H -1.702413 -7.782519 -0.779896 0
M  V30 32 H -0.558288 -8.730210 0.275935 0
M  V30 33 H -0.846512 -4.846721 0.365934 0
M  V30 34 H 3.530344 -3.487890 -0.178393 0
M  V30 35 H 3.802630 -1.082171 -0.109976 0
M  V30 36 H 3.422955 0.671009 -1.933392 0
M  V30 37 H 3.195563 5.682313 0.033648 0
M  V30 38 H 2.339364 5.322970 -1.499120 0
M  V30 39 H 1.140487 5.061603 1.165906 0
M  V30 40 H -0.483610 4.205529 2.804143 0
M  V30 41 H -2.996025 2.145905 0.839443 0
M  V30 42 H -2.973899 0.271961 0.841648 0
M  V30 43 H -4.906576 2.203094 2.331049 0
M  V30 44 H -5.245630 0.495695 1.751642 0
M  V30 45 H -3.706182 -0.502656 3.219638 0
M  V30 46 H -3.972240 0.979804 4.288000 0
M  V30 47 H 0.194417 0.212335 1.490892 0
M  V30 48 H -0.386769 -0.551422 -0.637674 0
M  V30 49 H -0.671465 -2.934474 -0.697173 0
M  V30 50 H 2.900099 -5.742346 -1.381433 0
M  V30 END ATOM
M  V30 BEGIN BOND
M  V30 1 1 1 2
M  V30 2 1 2 3
M  V30 3 2 3 4
M  V30 4 1 4 5
M  V30 5 2 5 6
M  V30 6 1 6 7
M  V30 7 2 7 8
M  V30 8 1 8 9
M  V30 9 2 9 10
M  V30 10 1 10 11
M  V30 11 2 11 12
M  V30 12 1 12 13
M  V30 13 1 12 14
M  V30 14 2 14 15
M  V30 15 1 15 16
M  V30 16 2 16 17
M  V30 17 1 17 18
M  V30 18 2 18 19
M  V30 19 1 18 20
M  V30 20 1 20 21
M  V30 21 1 21 22
M  V30 22 1 22 23
M  V30 23 1 17 24
M  V30 24 2 24 25
M  V30 25 1 8 26
M  V30 26 2 26 27
M  V30 27 1 4 28
M  V30 28 2 28 29
M  V30 29 1 29 2
M  V30 30 1 27 5
M  V30 31 1 25 9
M  V30 32 1 25 14
M  V30 33 1 23 20
M  V30 34 1 1 30
M  V30 35 1 1 31
M  V30 36 1 1 32
M  V30 37 1 3 33
M  V30 38 1 6 34
M  V30 39 1 7 35
M  V30 40 1 10 36
M  V30 41 1 13 37
M  V30 42 1 13 38
M  V30 43 1 15 39
M  V30 44 1 16 40
M  V30 45 1 21 41
M  V30 46 1 21 42
M  V30 47 1 22 43
M  V30 48 1 22 44
M  V30 49 1 23 45
M  V30 50 1 23 46
M  V30 51 1 24 47
M  V30 52 1 26 48
M  V30 53 1 27 49
M  V30 54 1 28 50
M  V30 END BOND
M  V30 END CTAB
M  END
>  <Dataset>  (807) 
ChEMBL_Kinases

>  <Ligand_Instance>  (807) 
nan

>  <PDB_ID>  (807) 
nan

>  <Standardized_SMILES>  (807) 
Cn1cc(-c2ccc(-c3cnc(N)c4ccc(C(=O)N5CCC5)cc34)cc2)cn1

>  <Name>  (807) 
nan

>  <Pocket>  (807) 
nan

>  <ATP_Site>  (807) 
nan

>  <Peripheral>  (807) 
nan

>  <Num_H_Atoms_ProtBoundConf>  (807) 
nan

>  <Num_Resolved_Atoms>  (807) 
nan

>  <Num_Not_Resolved_Atoms>  (807) 
nan

$$$$
CHEMBL3828458
     RDKit          3D

  0  0  0  0  0  0  0  0  0  0999 V3000
M  V30 BEGIN CTAB
M  V30 COUNTS 46 50 0 0 0
M  V30 BEGIN ATOM
M  V30 1 C -3.179093 -5.653494 2.481677 0
M  V30 2 N -2.157787 -5.332866 1.499744 0
M  V30 3 C -1.671300 -4.082851 1.281550 0
M  V30 4 C -0.711037 -4.177816 0.267441 0
M  V30 5 C 0.012289 -2.996250 -0.211931 0
M  V30 6 C 1.324145 -3.048708 -0.695471 0
M  V30 7 C 1.961031 -1.902772 -1.136718 0
M  V30 8 C 1.332888 -0.675253 -1.117233 0
M  V30 9 C 1.927742 0.586505 -1.563952 0
M  V30 10 C 2.641429 0.793332 -2.732745 0
M  V30 11 N 3.130081 2.017915 -3.014111 0
M  V30 12 C 2.967450 3.085880 -2.213312 0
M  V30 13 C 2.265920 2.934474 -1.039287 0
M  V30 14 C 2.079773 4.007780 -0.192528 0
M  V30 15 C 1.380674 3.875576 0.988221 0
M  V30 16 C 0.878196 2.625197 1.282045 0
M  V30 17 N 0.122791 2.212091 2.428238 0
M  V30 18 C 0.653134 1.689489 3.697818 0
M  V30 19 C -0.325399 0.526622 3.891242 0
M  V30 20 N -1.582571 1.261563 3.677312 0
M  V30 21 C -1.306944 2.205245 2.618490 0
M  V30 22 O -2.096167 2.915262 1.949422 0
M  V30 23 N 1.088870 1.615232 0.421962 0
M  V30 24 C 1.750244 1.683482 -0.722563 0
M  V30 25 C 0.038048 -0.613904 -0.641787 0
M  V30 26 C -0.617938 -1.749043 -0.195205 0
M  V30 27 C -0.653339 -5.506268 -0.094588 0
M  V30 28 N -1.550098 -6.181098 0.678551 0
M  V30 29 H -2.736320 -5.999102 3.437691 0
M  V30 30 H -3.855945 -6.466197 2.115024 0
M  V30 31 H -3.768729 -4.731592 2.706944 0
M  V30 32 H -1.987403 -3.189263 1.811595 0
M  V30 33 H 1.829634 -4.007957 -0.716431 0
M  V30 34 H 2.977838 -1.932221 -1.513751 0
M  V30 35 H 2.763011 -0.064117 -3.360164 0
M  V30 36 H 3.377099 4.056079 -2.475927 0
M  V30 37 H 2.461864 4.998559 -0.396536 0
M  V30 38 H 1.161883 4.617559 1.733859 0
M  V30 39 H 0.430167 2.384543 4.531950 0
M  V30 40 H 1.689361 1.376822 3.599887 0
M  V30 41 H -0.260506 0.074081 4.888995 0
M  V30 42 H -0.135653 -0.161233 3.050697 0
M  V30 43 H -2.542592 1.214435 4.122843 0
M  V30 44 H -0.591623 0.263321 -0.562045 0
M  V30 45 H -1.649408 -1.749479 0.191797 0
M  V30 46 H 0.022583 -5.846030 -0.870810 0
M  V30 END ATOM
M  V30 BEGIN BOND
M  V30 1 1 1 2
M  V30 2 1 2 3
M  V30 3 2 3 4
M  V30 4 1 4 5
M  V30 5 2 5 6
M  V30 6 1 6 7
M  V30 7 2 7 8
M  V30 8 1 8 9
M  V30 9 2 9 10
M  V30 10 1 10 11
M  V30 11 2 11 12
M  V30 12 1 12 13
M  V30 13 2 13 14
M  V30 14 1 14 15
M  V30 15 2 15 16
M  V30 16 1 16 17
M  V30 17 1 17 18
M  V30 18 1 18 19
M  V30 19 1 19 20
M  V30 20 1 20 21
M  V30 21 2 21 22
M  V30 22 1 16 23
M  V30 23 2 23 24
M  V30 24 1 8 25
M  V30 25 2 25 26
M  V30 26 1 4 27
M  V30 27 2 27 28
M  V30 28 1 28 2
M  V30 29 1 26 5
M  V30 30 1 24 9
M  V30 31 1 24 13
M  V30 32 1 21 17
M  V30 33 1 1 29
M  V30 34 1 1 30
M  V30 35 1 1 31
M  V30 36 1 3 32
M  V30 37 1 6 33
M  V30 38 1 7 34
M  V30 39 1 10 35
M  V30 40 1 12 36
M  V30 41 1 14 37
M  V30 42 1 15 38
M  V30 43 1 18 39
M  V30 44 1 18 40
M  V30 45 1 19 41
M  V30 46 1 19 42
M  V30 47 1 20 43
M  V30 48 1 25 44
M  V30 49 1 26 45
M  V30 50 1 27 46
M  V30 END BOND
M  V30 END CTAB
M  END
>  <Dataset>  (808) 
ChEMBL_Kinases

>  <Ligand_Instance>  (808) 
nan

>  <PDB_ID>  (808) 
nan

>  <Standardized_SMILES>  (808) 
Cn1cc(-c2ccc(-c3cncc4ccc(N5CCNC5=O)nc34)cc2)cn1

>  <Name>  (808) 
nan

>  <Pocket>  (808) 
nan

>  <ATP_Site>  (808) 
nan

>  <Peripheral>  (808) 
nan

>  <Num_H_Atoms_ProtBoundConf>  (808) 
nan

>  <Num_Resolved_Atoms>  (808) 
nan

>  <Num_Not_Resolved_Atoms>  (808) 
nan

$$$$
CHEMBL3828430
     RDKit          3D

  0  0  0  0  0  0  0  0  0  0999 V3000
M  V30 BEGIN CTAB
M  V30 COUNTS 46 50 0 0 0
M  V30 BEGIN ATOM
M  V30 1 C -3.419571 -6.844422 -1.714775 0
M  V30 2 N -2.731554 -5.779954 -1.041597 0
M  V30 3 C -2.050869 -4.774295 -1.632088 0
M  V30 4 C -1.583175 -4.026681 -0.545903 0
M  V30 5 C -0.768316 -2.798679 -0.624655 0
M  V30 6 C -0.970447 -1.958733 -1.724110 0
M  V30 7 C -0.194412 -0.793426 -1.797119 0
M  V30 8 C 0.745480 -0.476026 -0.815459 0
M  V30 9 C 1.528674 0.747093 -0.938031 0
M  V30 10 C 2.048393 0.985295 -2.193796 0
M  V30 11 N 2.785265 2.100573 -2.378337 0
M  V30 12 C 3.036107 2.984689 -1.405812 0
M  V30 13 C 2.523162 2.758142 -0.148904 0
M  V30 14 C 2.712397 3.588764 0.919602 0
M  V30 15 C 2.143879 3.247554 2.126682 0
M  V30 16 C 1.384196 2.133939 2.391066 0
M  V30 17 C 0.786309 1.772195 3.649030 0
M  V30 18 C 0.042668 0.599960 3.730878 0
M  V30 19 C -0.436306 0.437007 4.997772 0
M  V30 20 N 0.008961 1.488878 5.665971 0
M  V30 21 N 0.736664 2.284580 4.865545 0
M  V30 22 C 1.373750 3.506873 5.243647 0
M  V30 23 N 1.240086 1.366256 1.300236 0
M  V30 24 C 1.764658 1.635108 0.092335 0
M  V30 25 C 0.876809 -1.361065 0.230841 0
M  V30 26 C 0.154418 -2.527450 0.378598 0
M  V30 27 C -2.004050 -4.616839 0.651363 0
M  V30 28 N -2.716828 -5.707875 0.272319 0
M  V30 29 H -3.130381 -7.826639 -1.293576 0
M  V30 30 H -3.197263 -6.824142 -2.800126 0
M  V30 31 H -4.514875 -6.684027 -1.567741 0
M  V30 32 H -1.892624 -4.575116 -2.674034 0
M  V30 33 H -1.701422 -2.216539 -2.476561 0
M  V30 34 H -0.377540 -0.161060 -2.667582 0
M  V30 35 H 1.928480 0.368957 -3.056325 0
M  V30 36 H 3.613001 3.886488 -1.491373 0
M  V30 37 H 3.297858 4.478212 0.780060 0
M  V30 38 H 2.343815 3.956570 2.908951 0
M  V30 39 H -0.200480 -0.158245 2.989434 0
M  V30 40 H -1.029911 -0.265722 5.542526 0
M  V30 41 H 2.483064 3.487419 5.196055 0
M  V30 42 H 0.979548 4.416812 4.753190 0
M  V30 43 H 1.162092 3.643291 6.352026 0
M  V30 44 H 1.601247 -1.104463 0.976137 0
M  V30 45 H 0.290923 -3.193616 1.217389 0
M  V30 46 H -1.783582 -4.246109 1.644153 0
M  V30 END ATOM
M  V30 BEGIN BOND
M  V30 1 1 1 2
M  V30 2 1 2 3
M  V30 3 2 3 4
M  V30 4 1 4 5
M  V30 5 2 5 6
M  V30 6 1 6 7
M  V30 7 2 7 8
M  V30 8 1 8 9
M  V30 9 2 9 10
M  V30 10 1 10 11
M  V30 11 2 11 12
M  V30 12 1 12 13
M  V30 13 2 13 14
M  V30 14 1 14 15
M  V30 15 2 15 16
M  V30 16 1 16 17
M  V30 17 2 17 18
M  V30 18 1 18 19
M  V30 19 2 19 20
M  V30 20 1 20 21
M  V30 21 1 21 22
M  V30 22 1 16 23
M  V30 23 2 23 24
M  V30 24 1 8 25
M  V30 25 2 25 26
M  V30 26 1 4 27
M  V30 27 2 27 28
M  V30 28 1 28 2
M  V30 29 1 26 5
M  V30 30 1 24 9
M  V30 31 1 24 13
M  V30 32 1 21 17
M  V30 33 1 1 29
M  V30 34 1 1 30
M  V30 35 1 1 31
M  V30 36 1 3 32
M  V30 37 1 6 33
M  V30 38 1 7 34
M  V30 39 1 10 35
M  V30 40 1 12 36
M  V30 41 1 14 37
M  V30 42 1 15 38
M  V30 43 1 18 39
M  V30 44 1 19 40
M  V30 45 1 22 41
M  V30 46 1 22 42
M  V30 47 1 22 43
M  V30 48 1 25 44
M  V30 49 1 26 45
M  V30 50 1 27 46
M  V30 END BOND
M  V30 END CTAB
M  END
>  <Dataset>  (809) 
ChEMBL_Kinases

>  <Ligand_Instance>  (809) 
nan

>  <PDB_ID>  (809) 
nan

>  <Standardized_SMILES>  (809) 
Cn1cc(-c2ccc(-c3cncc4ccc(-c5ccnn5C)nc34)cc2)cn1

>  <Name>  (809) 
nan

>  <Pocket>  (809) 
nan

>  <ATP_Site>  (809) 
nan

>  <Peripheral>  (809) 
nan

>  <Num_H_Atoms_ProtBoundConf>  (809) 
nan

>  <Num_Resolved_Atoms>  (809) 
nan

>  <Num_Not_Resolved_Atoms>  (809) 
nan

$$$$
CHEMBL3828407
     RDKit          3D

  0  0  0  0  0  0  0  0  0  0999 V3000
M  V30 BEGIN CTAB
M  V30 COUNTS 38 41 0 0 0
M  V30 BEGIN ATOM
M  V30 1 C -0.572397 -3.384229 -2.737903 0
M  V30 2 C 0.567094 -3.049509 -1.858604 0
M  V30 3 N 1.276680 -3.906232 -1.085368 0
M  V30 4 C 2.227708 -3.173109 -0.446426 0
M  V30 5 C 3.182072 -3.642585 0.447300 0
M  V30 6 C 4.036006 -2.649097 0.948409 0
M  V30 7 C 3.928244 -1.327323 0.578392 0
M  V30 8 C 2.961701 -0.917865 -0.313314 0
M  V30 9 C 2.087325 -1.868148 -0.839769 0
M  V30 10 N 1.045108 -1.805892 -1.722192 0
M  V30 11 C 0.673438 -0.551317 -2.293959 0
M  V30 12 C -0.379515 0.179474 -1.461586 0
M  V30 13 N -1.529149 0.338046 -1.356771 0
M  V30 14 N -2.128457 1.067269 -0.484025 0
M  V30 15 C -1.636878 1.699947 0.358945 0
M  V30 16 N -1.518499 2.619721 1.519032 0
M  V30 17 C -1.665402 2.098921 2.859277 0
M  V30 18 C -1.417582 2.945058 3.946562 0
M  V30 19 C -1.580148 2.410441 5.210590 0
M  V30 20 C -1.972942 1.088221 5.360512 0
M  V30 21 C -2.216106 0.258495 4.266013 0
M  V30 22 C -2.061624 0.764191 2.992488 0
M  V30 23 S 0.179101 1.275901 -0.025830 0
M  V30 24 H -1.438060 -2.719307 -2.541625 0
M  V30 25 H -0.276656 -3.380006 -3.815771 0
M  V30 26 H -0.915164 -4.420542 -2.543550 0
M  V30 27 H 3.302059 -4.666882 0.762875 0
M  V30 28 H 4.811132 -2.870112 1.642761 0
M  V30 29 H 4.590469 -0.541498 0.966186 0
M  V30 30 H 2.878793 0.116820 -0.603881 0
M  V30 31 H 1.562358 0.136990 -2.408651 0
M  V30 32 H 0.176202 -0.638682 -3.274329 0
M  V30 33 H -1.329022 3.638072 1.392467 0
M  V30 34 H -1.113941 3.967319 3.722891 0
M  V30 35 H -1.390539 3.061276 6.063005 0
M  V30 36 H -2.104721 0.652965 6.338065 0
M  V30 37 H -2.527755 -0.784833 4.416990 0
M  V30 38 H -2.236214 0.156907 2.102972 0
M  V30 END ATOM
M  V30 BEGIN BOND
M  V30 1 1 1 2
M  V30 2 2 2 3
M  V30 3 1 3 4
M  V30 4 2 4 5
M  V30 5 1 5 6
M  V30 6 2 6 7
M  V30 7 1 7 8
M  V30 8 2 8 9
M  V30 9 1 9 10
M  V30 10 1 10 11
M  V30 11 1 11 12
M  V30 12 2 12 13
M  V30 13 1 13 14
M  V30 14 2 14 15
M  V30 15 1 15 16
M  V30 16 1 16 17
M  V30 17 2 17 18
M  V30 18 1 18 19
M  V30 19 2 19 20
M  V30 20 1 20 21
M  V30 21 2 21 22
M  V30 22 1 15 23
M  V30 23 1 10 2
M  V30 24 1 23 12
M  V30 25 1 9 4
M  V30 26 1 22 17
M  V30 27 1 1 24
M  V30 28 1 1 25
M  V30 29 1 1 26
M  V30 30 1 5 27
M  V30 31 1 6 28
M  V30 32 1 7 29
M  V30 33 1 8 30
M  V30 34 1 11 31
M  V30 35 1 11 32
M  V30 36 1 16 33
M  V30 37 1 18 34
M  V30 38 1 19 35
M  V30 39 1 20 36
M  V30 40 1 21 37
M  V30 41 1 22 38
M  V30 END BOND
M  V30 END CTAB
M  END
>  <Dataset>  (810) 
ChEMBL_Kinases

>  <Ligand_Instance>  (810) 
nan

>  <PDB_ID>  (810) 
nan

>  <Standardized_SMILES>  (810) 
Cc1nc2ccccc2n1Cc1nnc(Nc2ccccc2)s1

>  <Name>  (810) 
nan

>  <Pocket>  (810) 
nan

>  <ATP_Site>  (810) 
nan

>  <Peripheral>  (810) 
nan

>  <Num_H_Atoms_ProtBoundConf>  (810) 
nan

>  <Num_Resolved_Atoms>  (810) 
nan

>  <Num_Not_Resolved_Atoms>  (810) 
nan

$$$$
CHEMBL3828397
     RDKit          3D

  0  0  0  0  0  0  0  0  0  0999 V3000
M  V30 BEGIN CTAB
M  V30 COUNTS 40 42 0 0 0
M  V30 BEGIN ATOM
M  V30 1 C -1.498795 -6.072268 2.220299 0
M  V30 2 C -0.114880 -6.514558 1.794406 0
M  V30 3 C 0.877458 -5.369710 1.872373 0
M  V30 4 C 0.410164 -4.277760 0.957075 0
M  V30 5 N 1.300712 -3.106390 0.976783 0
M  V30 6 C 1.049309 -1.967567 0.124966 0
M  V30 7 N 1.396044 -1.557294 -0.917437 0
M  V30 8 N 0.956769 -0.451778 -1.439928 0
M  V30 9 C 0.183621 0.286142 -0.989833 0
M  V30 10 C -0.541291 1.578660 -1.237753 0
M  V30 11 N 0.226787 2.686327 -0.645404 0
M  V30 12 C 1.200171 3.460920 -1.176168 0
M  V30 13 C 1.709966 3.320392 -2.564836 0
M  V30 14 N 1.607122 4.350980 -0.242500 0
M  V30 15 C 0.896827 4.160049 0.908488 0
M  V30 16 C 0.923647 4.790872 2.134715 0
M  V30 17 C 0.060524 4.377333 3.157521 0
M  V30 18 C -0.815875 3.326871 2.914196 0
M  V30 19 C -0.774622 2.755048 1.660970 0
M  V30 20 C 0.041058 3.108707 0.618603 0
M  V30 21 S -0.184162 -0.614319 0.643428 0
M  V30 22 H -2.018278 -6.986830 2.617767 0
M  V30 23 H -2.122269 -5.690401 1.390964 0
M  V30 24 H -1.453188 -5.318739 3.021971 0
M  V30 25 H 0.198029 -7.338230 2.468987 0
M  V30 26 H -0.209224 -6.816507 0.728852 0
M  V30 27 H 1.831370 -5.767321 1.412619 0
M  V30 28 H 1.052978 -5.058925 2.907996 0
M  V30 29 H 0.463426 -4.682937 -0.087456 0
M  V30 30 H -0.641404 -3.983805 1.131175 0
M  V30 31 H 2.175140 -2.884499 1.531345 0
M  V30 32 H -0.567052 1.690330 -2.320712 0
M  V30 33 H -1.546205 1.551752 -0.768401 0
M  V30 34 H 2.262744 2.363530 -2.704551 0
M  V30 35 H 2.374197 4.166041 -2.839038 0
M  V30 36 H 0.823722 3.255130 -3.257253 0
M  V30 37 H 1.613735 5.625150 2.342102 0
M  V30 38 H 0.037947 4.834505 4.136849 0
M  V30 39 H -1.494141 2.987137 3.689346 0
M  V30 40 H -1.488601 1.935519 1.533301 0
M  V30 END ATOM
M  V30 BEGIN BOND
M  V30 1 1 1 2
M  V30 2 1 2 3
M  V30 3 1 3 4
M  V30 4 1 4 5
M  V30 5 1 5 6
M  V30 6 2 6 7
M  V30 7 1 7 8
M  V30 8 2 8 9
M  V30 9 1 9 10
M  V30 10 1 10 11
M  V30 11 1 11 12
M  V30 12 1 12 13
M  V30 13 2 12 14
M  V30 14 1 14 15
M  V30 15 2 15 16
M  V30 16 1 16 17
M  V30 17 2 17 18
M  V30 18 1 18 19
M  V30 19 2 19 20
M  V30 20 1 9 21
M  V30 21 1 21 6
M  V30 22 1 20 11
M  V30 23 1 20 15
M  V30 24 1 1 22
M  V30 25 1 1 23
M  V30 26 1 1 24
M  V30 27 1 2 25
M  V30 28 1 2 26
M  V30 29 1 3 27
M  V30 30 1 3 28
M  V30 31 1 4 29
M  V30 32 1 4 30
M  V30 33 1 5 31
M  V30 34 1 10 32
M  V30 35 1 10 33
M  V30 36 1 13 34
M  V30 37 1 13 35
M  V30 38 1 13 36
M  V30 39 1 16 37
M  V30 40 1 17 38
M  V30 41 1 18 39
M  V30 42 1 19 40
M  V30 END BOND
M  V30 END CTAB
M  END
>  <Dataset>  (811) 
ChEMBL_Kinases

>  <Ligand_Instance>  (811) 
nan

>  <PDB_ID>  (811) 
nan

>  <Standardized_SMILES>  (811) 
CCCCNc1nnc(Cn2c(C)nc3ccccc32)s1

>  <Name>  (811) 
nan

>  <Pocket>  (811) 
nan

>  <ATP_Site>  (811) 
nan

>  <Peripheral>  (811) 
nan

>  <Num_H_Atoms_ProtBoundConf>  (811) 
nan

>  <Num_Resolved_Atoms>  (811) 
nan

>  <Num_Not_Resolved_Atoms>  (811) 
nan

$$$$
CHEMBL382838
     RDKit          3D

  0  0  0  0  0  0  0  0  0  0999 V3000
M  V30 BEGIN CTAB
M  V30 COUNTS 41 45 0 0 0
M  V30 BEGIN ATOM
M  V30 1 C -0.867884 -5.078036 0.836643 0
M  V30 2 C 0.380772 -4.269589 0.863347 0
M  V30 3 C 1.584371 -4.814660 0.400097 0
M  V30 4 C 2.677736 -3.978024 0.471198 0
M  V30 5 C 2.550500 -2.690706 0.974377 0
M  V30 6 C 1.325272 -2.187953 1.426750 0
M  V30 7 C 1.445130 -0.841167 1.898361 0
M  V30 8 N 2.210064 -0.424386 2.899482 0
M  V30 9 N 2.072489 0.877993 3.054627 0
M  V30 10 C 1.205666 1.348923 2.149789 0
M  V30 11 C 0.805593 0.252494 1.412451 0
M  V30 12 C -0.148618 0.377389 0.322052 0
M  V30 13 C 0.200734 1.175367 -0.758244 0
M  V30 14 C -0.697540 1.303019 -1.799171 0
M  V30 15 C -1.905049 0.622010 -1.704654 0
M  V30 16 N -2.880434 0.647272 -2.636278 0
M  V30 17 C -3.840705 -0.149068 -2.114700 0
M  V30 18 N -3.475682 -0.646261 -0.911557 0
M  V30 19 C -2.233225 -0.162710 -0.628468 0
M  V30 20 C -1.349475 -0.308927 0.431766 0
M  V30 21 C 1.055650 2.830986 2.333642 0
M  V30 22 C 2.145073 3.201573 3.286567 0
M  V30 23 C 2.586921 1.902448 3.908352 0
M  V30 24 N 0.265786 -3.021621 1.349320 0
M  V30 25 H -1.227546 -5.380717 1.821397 0
M  V30 26 H -1.682646 -4.559401 0.279700 0
M  V30 27 H -0.663560 -6.005006 0.259450 0
M  V30 28 H 1.600340 -5.827544 0.022318 0
M  V30 29 H 3.612163 -4.387206 0.116720 0
M  V30 30 H 3.500537 -2.147546 0.968165 0
M  V30 31 H 1.161470 1.682908 -0.773357 0
M  V30 32 H -0.385083 1.933822 -2.619936 0
M  V30 33 H -2.917118 1.149836 -3.549816 0
M  V30 34 H -4.794939 -0.359903 -2.613403 0
M  V30 35 H -1.628570 -0.919880 1.247982 0
M  V30 36 H 0.060107 3.061198 2.797417 0
M  V30 37 H 1.128180 3.361056 1.358761 0
M  V30 38 H 1.763554 3.923634 4.038528 0
M  V30 39 H 3.016983 3.682494 2.790087 0
M  V30 40 H 2.191766 1.866677 4.940410 0
M  V30 41 H 3.704051 1.863163 4.004906 0
M  V30 END ATOM
M  V30 BEGIN BOND
M  V30 1 1 1 2
M  V30 2 2 2 3
M  V30 3 1 3 4
M  V30 4 2 4 5
M  V30 5 1 5 6
M  V30 6 1 6 7
M  V30 7 2 7 8
M  V30 8 1 8 9
M  V30 9 1 9 10
M  V30 10 2 10 11
M  V30 11 1 11 12
M  V30 12 2 12 13
M  V30 13 1 13 14
M  V30 14 2 14 15
M  V30 15 1 15 16
M  V30 16 1 16 17
M  V30 17 2 17 18
M  V30 18 1 18 19
M  V30 19 2 19 20
M  V30 20 1 10 21
M  V30 21 1 21 22
M  V30 22 1 22 23
M  V30 23 2 6 24
M  V30 24 1 24 2
M  V30 25 1 11 7
M  V30 26 1 20 12
M  V30 27 1 23 9
M  V30 28 1 19 15
M  V30 29 1 1 25
M  V30 30 1 1 26
M  V30 31 1 1 27
M  V30 32 1 3 28
M  V30 33 1 4 29
M  V30 34 1 5 30
M  V30 35 1 13 31
M  V30 36 1 14 32
M  V30 37 1 16 33
M  V30 38 1 17 34
M  V30 39 1 20 35
M  V30 40 1 21 36
M  V30 41 1 21 37
M  V30 42 1 22 38
M  V30 43 1 22 39
M  V30 44 1 23 40
M  V30 45 1 23 41
M  V30 END BOND
M  V30 END CTAB
M  END
>  <Dataset>  (812) 
ChEMBL_Kinases

>  <Ligand_Instance>  (812) 
nan

>  <PDB_ID>  (812) 
nan

>  <Standardized_SMILES>  (812) 
Cc1cccc(-c2nn3c(c2-c2ccc4[nH]cnc4c2)CCC3)n1

>  <Name>  (812) 
nan

>  <Pocket>  (812) 
nan

>  <ATP_Site>  (812) 
nan

>  <Peripheral>  (812) 
nan

>  <Num_H_Atoms_ProtBoundConf>  (812) 
nan

>  <Num_Resolved_Atoms>  (812) 
nan

>  <Num_Not_Resolved_Atoms>  (812) 
nan

$$$$
CHEMBL3828370
     RDKit          3D

  0  0  0  0  0  0  0  0  0  0999 V3000
M  V30 BEGIN CTAB
M  V30 COUNTS 52 56 0 0 0
M  V30 BEGIN ATOM
M  V30 1 C 0.226580 -2.137931 5.365756 0
M  V30 2 O 1.061157 -1.896961 4.292796 0
M  V30 3 C 1.087239 -2.912835 3.353753 0
M  V30 4 C 0.931157 -2.364176 1.922284 0
M  V30 5 N 2.348314 -1.981411 2.044778 0
M  V30 6 C 3.444822 -1.071484 1.788423 0
M  V30 7 O 4.642428 -1.286910 2.185580 0
M  V30 8 C 3.306147 0.180764 1.057217 0
M  V30 9 C 4.356190 1.049379 1.000016 0
M  V30 10 C 4.322932 2.282457 0.333213 0
M  V30 11 C 3.149488 2.631470 -0.301645 0
M  V30 12 C 3.002906 3.814093 -0.991047 0
M  V30 13 N 1.866517 4.161768 -1.618255 0
M  V30 14 C 0.767667 3.366610 -1.619692 0
M  V30 15 C 0.878108 2.166088 -0.933681 0
M  V30 16 C -0.265869 1.271850 -0.856720 0
M  V30 17 C -0.888494 0.759542 0.262145 0
M  V30 18 C -1.943714 -0.119942 0.184834 0
M  V30 19 C -2.375129 -0.485577 -1.067371 0
M  V30 20 C -3.490745 -1.432422 -1.230883 0
M  V30 21 C -4.404607 -1.467233 -2.257362 0
M  V30 22 N -5.270784 -2.481288 -2.043236 0
M  V30 23 N -4.941322 -3.100050 -0.908507 0
M  V30 24 C -5.499056 -4.233718 -0.194975 0
M  V30 25 C -3.863249 -2.484752 -0.392451 0
M  V30 26 C -1.796316 -0.009153 -2.238164 0
M  V30 27 C -0.730845 0.878913 -2.111288 0
M  V30 28 C 2.056556 1.788426 -0.274478 0
M  V30 29 C 2.156361 0.600314 0.392011 0
M  V30 30 C 2.469988 -3.253017 2.798449 0
M  V30 31 H 0.296004 -1.219616 6.027801 0
M  V30 32 H 0.528340 -2.999061 6.001108 0
M  V30 33 H -0.816209 -2.207869 5.026782 0
M  V30 34 H 0.466297 -3.783355 3.556738 0
M  V30 35 H 0.765656 -3.217105 1.249087 0
M  V30 36 H 0.208583 -1.544585 1.874581 0
M  V30 37 H 5.304400 0.853474 1.469079 0
M  V30 38 H 5.177769 2.943246 0.313333 0
M  V30 39 H 3.861817 4.491121 -1.022673 0
M  V30 40 H -0.164300 3.579469 -2.094321 0
M  V30 41 H -0.485771 1.113876 1.204580 0
M  V30 42 H -2.389080 -0.488206 1.096516 0
M  V30 43 H -4.397465 -0.777725 -3.085337 0
M  V30 44 H -6.371422 -4.682840 -0.719054 0
M  V30 45 H -5.775149 -3.888032 0.822079 0
M  V30 46 H -4.680256 -4.986120 -0.030613 0
M  V30 47 H -3.295238 -2.676089 0.509364 0
M  V30 48 H -2.181946 -0.333747 -3.191324 0
M  V30 49 H -0.315130 1.222072 -3.059644 0
M  V30 50 H 1.363689 -0.105756 0.439126 0
M  V30 51 H 3.275150 -3.283345 3.535656 0
M  V30 52 H 2.384174 -4.139163 2.119324 0
M  V30 END ATOM
M  V30 BEGIN BOND
M  V30 1 1 1 2
M  V30 2 1 2 3
M  V30 3 1 3 4
M  V30 4 1 4 5
M  V30 5 1 5 6
M  V30 6 2 6 7
M  V30 7 1 6 8
M  V30 8 2 8 9
M  V30 9 1 9 10
M  V30 10 2 10 11
M  V30 11 1 11 12
M  V30 12 2 12 13
M  V30 13 1 13 14
M  V30 14 2 14 15
M  V30 15 1 15 16
M  V30 16 2 16 17
M  V30 17 1 17 18
M  V30 18 2 18 19
M  V30 19 1 19 20
M  V30 20 1 20 21
M  V30 21 2 21 22
M  V30 22 1 22 23
M  V30 23 1 23 24
M  V30 24 1 23 25
M  V30 25 1 19 26
M  V30 26 2 26 27
M  V30 27 1 15 28
M  V30 28 2 28 29
M  V30 29 1 5 30
M  V30 30 1 30 3
M  V30 31 1 29 8
M  V30 32 1 28 11
M  V30 33 1 27 16
M  V30 34 2 25 20
M  V30 35 1 1 31
M  V30 36 1 1 32
M  V30 37 1 1 33
M  V30 38 1 3 34
M  V30 39 1 4 35
M  V30 40 1 4 36
M  V30 41 1 9 37
M  V30 42 1 10 38
M  V30 43 1 12 39
M  V30 44 1 14 40
M  V30 45 1 17 41
M  V30 46 1 18 42
M  V30 47 1 21 43
M  V30 48 1 24 44
M  V30 49 1 24 45
M  V30 50 1 24 46
M  V30 51 1 25 47
M  V30 52 1 26 48
M  V30 53 1 27 49
M  V30 54 1 29 50
M  V30 55 1 30 51
M  V30 56 1 30 52
M  V30 END BOND
M  V30 END CTAB
M  END
>  <Dataset>  (813) 
ChEMBL_Kinases

>  <Ligand_Instance>  (813) 
nan

>  <PDB_ID>  (813) 
nan

>  <Standardized_SMILES>  (813) 
COC1CN(C(=O)c2ccc3cncc(-c4ccc(-c5cnn(C)c5)cc4)c3c2)C1

>  <Name>  (813) 
nan

>  <Pocket>  (813) 
nan

>  <ATP_Site>  (813) 
nan

>  <Peripheral>  (813) 
nan

>  <Num_H_Atoms_ProtBoundConf>  (813) 
nan

>  <Num_Resolved_Atoms>  (813) 
nan

>  <Num_Not_Resolved_Atoms>  (813) 
nan

$$$$
CHEMBL3828352
     RDKit          3D

  0  0  0  0  0  0  0  0  0  0999 V3000
M  V30 BEGIN CTAB
M  V30 COUNTS 44 47 0 0 0
M  V30 BEGIN ATOM
M  V30 1 C -1.146978 -3.602415 -2.304877 0
M  V30 2 C 0.297353 -3.493067 -2.055730 0
M  V30 3 N 1.008030 -4.544488 -1.612513 0
M  V30 4 C 2.309809 -4.179503 -1.465225 0
M  V30 5 C 3.449611 -4.821544 -1.057342 0
M  V30 6 C 4.615368 -4.080547 -1.045604 0
M  V30 7 C 4.679792 -2.754695 -1.417680 0
M  V30 8 C 3.513675 -2.131102 -1.825333 0
M  V30 9 C 2.313733 -2.839878 -1.853065 0
M  V30 10 N 1.089290 -2.422082 -2.212394 0
M  V30 11 C 0.709567 -1.111687 -2.666288 0
M  V30 12 C 0.307911 -0.250352 -1.451779 0
M  V30 13 N 0.988864 0.467732 -0.740638 0
M  V30 14 N 0.524071 1.143929 0.256032 0
M  V30 15 C -0.600974 1.154292 0.601848 0
M  V30 16 N -1.578908 1.678564 1.557212 0
M  V30 17 C -0.905573 2.560315 2.480393 0
M  V30 18 C 0.175765 1.922212 3.281883 0
M  V30 19 C -0.307693 1.063889 4.403544 0
M  V30 20 C -1.667673 1.464209 4.919128 0
M  V30 21 C -1.787766 2.965561 4.764488 0
M  V30 22 C -1.947102 3.254246 3.301081 0
M  V30 23 S -1.314987 -0.035821 -0.699324 0
M  V30 24 H -1.618622 -2.637314 -2.577048 0
M  V30 25 H -1.416579 -4.347588 -3.076793 0
M  V30 26 H -1.610228 -3.872575 -1.317852 0
M  V30 27 H 3.425990 -5.858831 -0.761044 0
M  V30 28 H 5.541116 -4.536103 -0.733437 0
M  V30 29 H 5.596357 -2.170553 -1.408887 0
M  V30 30 H 3.521490 -1.086411 -2.126882 0
M  V30 31 H -0.175893 -1.157610 -3.332504 0
M  V30 32 H 1.511029 -0.538660 -3.123954 0
M  V30 33 H -2.590888 1.440468 1.552715 0
M  V30 34 H -0.426844 3.358440 1.842885 0
M  V30 35 H 0.866177 2.698235 3.664458 0
M  V30 36 H 0.779801 1.276098 2.613356 0
M  V30 37 H 0.393953 1.187641 5.269943 0
M  V30 38 H -0.326388 -0.027352 4.181660 0
M  V30 39 H -1.792424 1.227316 5.995627 0
M  V30 40 H -2.481963 0.934888 4.382209 0
M  V30 41 H -0.865598 3.403255 5.205920 0
M  V30 42 H -2.709120 3.360729 5.276688 0
M  V30 43 H -1.962347 4.348955 3.157298 0
M  V30 44 H -2.986319 2.918384 3.035413 0
M  V30 END ATOM
M  V30 BEGIN BOND
M  V30 1 1 1 2
M  V30 2 2 2 3
M  V30 3 1 3 4
M  V30 4 2 4 5
M  V30 5 1 5 6
M  V30 6 2 6 7
M  V30 7 1 7 8
M  V30 8 2 8 9
M  V30 9 1 9 10
M  V30 10 1 10 11
M  V30 11 1 11 12
M  V30 12 2 12 13
M  V30 13 1 13 14
M  V30 14 2 14 15
M  V30 15 1 15 16
M  V30 16 1 16 17
M  V30 17 1 17 18
M  V30 18 1 18 19
M  V30 19 1 19 20
M  V30 20 1 20 21
M  V30 21 1 21 22
M  V30 22 1 15 23
M  V30 23 1 10 2
M  V30 24 1 23 12
M  V30 25 1 9 4
M  V30 26 1 22 17
M  V30 27 1 1 24
M  V30 28 1 1 25
M  V30 29 1 1 26
M  V30 30 1 5 27
M  V30 31 1 6 28
M  V30 32 1 7 29
M  V30 33 1 8 30
M  V30 34 1 11 31
M  V30 35 1 11 32
M  V30 36 1 16 33
M  V30 37 1 17 34
M  V30 38 1 18 35
M  V30 39 1 18 36
M  V30 40 1 19 37
M  V30 41 1 19 38
M  V30 42 1 20 39
M  V30 43 1 20 40
M  V30 44 1 21 41
M  V30 45 1 21 42
M  V30 46 1 22 43
M  V30 47 1 22 44
M  V30 END BOND
M  V30 END CTAB
M  END
>  <Dataset>  (814) 
ChEMBL_Kinases

>  <Ligand_Instance>  (814) 
nan

>  <PDB_ID>  (814) 
nan

>  <Standardized_SMILES>  (814) 
Cc1nc2ccccc2n1Cc1nnc(NC2CCCCC2)s1

>  <Name>  (814) 
nan

>  <Pocket>  (814) 
nan

>  <ATP_Site>  (814) 
nan

>  <Peripheral>  (814) 
nan

>  <Num_H_Atoms_ProtBoundConf>  (814) 
nan

>  <Num_Resolved_Atoms>  (814) 
nan

>  <Num_Not_Resolved_Atoms>  (814) 
nan

$$$$
CHEMBL3828350
     RDKit          3D

  0  0  0  0  0  0  0  0  0  0999 V3000
M  V30 BEGIN CTAB
M  V30 COUNTS 38 41 0 0 0
M  V30 BEGIN ATOM
M  V30 1 C -0.473208 -2.946775 -2.882452 0
M  V30 2 C 0.635894 -2.831748 -1.918932 0
M  V30 3 N 1.115465 -3.853145 -1.185510 0
M  V30 4 C 2.114322 -3.405672 -0.420213 0
M  V30 5 C 2.973779 -3.941189 0.510959 0
M  V30 6 C 3.945034 -3.170161 1.155189 0
M  V30 7 C 4.071729 -1.821045 0.869160 0
M  V30 8 C 3.188027 -1.329070 -0.070702 0
M  V30 9 C 2.222142 -2.065210 -0.720338 0
M  V30 10 N 1.302323 -1.695910 -1.656253 0
M  V30 11 C 1.142663 -0.350940 -2.193814 0
M  V30 12 C 0.172986 0.451219 -1.390305 0
M  V30 13 N -0.936608 0.739808 -1.305267 0
M  V30 14 N -1.582004 1.481816 -0.490087 0
M  V30 15 C -0.884792 2.066475 0.478574 0
M  V30 16 N -1.371631 2.974722 1.553216 0
M  V30 17 C -1.817116 2.285195 2.713881 0
M  V30 18 C -1.813663 0.906948 2.774127 0
M  V30 19 C -2.246827 0.199991 3.901948 0
M  V30 20 C -2.697492 0.897095 5.003875 0
M  V30 21 Br -3.290816 -0.077770 6.546989 0
M  V30 22 C -2.699605 2.274528 4.940753 0
M  V30 23 C -2.270548 2.970314 3.823944 0
M  V30 24 S 0.868882 1.421865 0.092360 0
M  V30 25 H -1.318351 -3.515151 -2.431894 0
M  V30 26 H -0.897199 -1.958098 -3.172050 0
M  V30 27 H -0.129853 -3.522184 -3.753553 0
M  V30 28 H 2.909045 -4.987594 0.763469 0
M  V30 29 H 4.613994 -3.599598 1.882872 0
M  V30 30 H 4.809606 -1.193482 1.346538 0
M  V30 31 H 3.314991 -0.260654 -0.275891 0
M  V30 32 H 0.768897 -0.342767 -3.216078 0
M  V30 33 H 2.166397 0.119625 -2.146683 0
M  V30 34 H -1.407153 4.011056 1.519944 0
M  V30 35 H -1.474571 0.297254 1.949583 0
M  V30 36 H -2.222548 -0.900634 3.894765 0
M  V30 37 H -3.056438 2.803282 5.817051 0
M  V30 38 H -2.271031 4.046473 3.773006 0
M  V30 END ATOM
M  V30 BEGIN BOND
M  V30 1 1 1 2
M  V30 2 2 2 3
M  V30 3 1 3 4
M  V30 4 2 4 5
M  V30 5 1 5 6
M  V30 6 2 6 7
M  V30 7 1 7 8
M  V30 8 2 8 9
M  V30 9 1 9 10
M  V30 10 1 10 11
M  V30 11 1 11 12
M  V30 12 2 12 13
M  V30 13 1 13 14
M  V30 14 2 14 15
M  V30 15 1 15 16
M  V30 16 1 16 17
M  V30 17 2 17 18
M  V30 18 1 18 19
M  V30 19 2 19 20
M  V30 20 1 20 21
M  V30 21 1 20 22
M  V30 22 2 22 23
M  V30 23 1 15 24
M  V30 24 1 10 2
M  V30 25 1 24 12
M  V30 26 1 9 4
M  V30 27 1 23 17
M  V30 28 1 1 25
M  V30 29 1 1 26
M  V30 30 1 1 27
M  V30 31 1 5 28
M  V30 32 1 6 29
M  V30 33 1 7 30
M  V30 34 1 8 31
M  V30 35 1 11 32
M  V30 36 1 11 33
M  V30 37 1 16 34
M  V30 38 1 18 35
M  V30 39 1 19 36
M  V30 40 1 22 37
M  V30 41 1 23 38
M  V30 END BOND
M  V30 END CTAB
M  END
>  <Dataset>  (815) 
ChEMBL_Kinases

>  <Ligand_Instance>  (815) 
nan

>  <PDB_ID>  (815) 
nan

>  <Standardized_SMILES>  (815) 
Cc1nc2ccccc2n1Cc1nnc(Nc2ccc(Br)cc2)s1

>  <Name>  (815) 
nan

>  <Pocket>  (815) 
nan

>  <ATP_Site>  (815) 
nan

>  <Peripheral>  (815) 
nan

>  <Num_H_Atoms_ProtBoundConf>  (815) 
nan

>  <Num_Resolved_Atoms>  (815) 
nan

>  <Num_Not_Resolved_Atoms>  (815) 
nan

$$$$
CHEMBL3828321
     RDKit          3D

  0  0  0  0  0  0  0  0  0  0999 V3000
M  V30 BEGIN CTAB
M  V30 COUNTS 45 48 0 0 0
M  V30 BEGIN ATOM
M  V30 1 C 3.591530 -1.031336 2.055078 0
M  V30 2 C 3.976123 0.200333 1.317269 0
M  V30 3 N 4.898898 0.180914 0.313422 0
M  V30 4 C 5.033687 1.453076 -0.159020 0
M  V30 5 C 5.858122 1.928999 -1.185217 0
M  V30 6 C 5.759088 3.301292 -1.431021 0
M  V30 7 C 4.929002 4.163657 -0.743415 0
M  V30 8 C 4.169781 3.571676 0.241416 0
M  V30 9 C 4.173309 2.241584 0.580253 0
M  V30 10 N 3.540797 1.462606 1.470524 0
M  V30 11 C 2.543895 1.902679 2.445311 0
M  V30 12 C 1.241817 1.807483 1.755539 0
M  V30 13 O 1.193006 2.397405 0.601791 0
M  V30 14 N -0.035244 1.269991 1.922899 0
M  V30 15 N -1.310172 0.779113 2.004494 0
M  V30 16 C -1.497543 -0.499746 1.402036 0
M  V30 17 O -0.371298 -0.882278 0.930268 0
M  V30 18 C -2.803154 -1.150128 1.388924 0
M  V30 19 O -3.834927 -0.633099 1.935778 0
M  V30 20 C -2.963140 -2.438631 0.731427 0
M  V30 21 C -1.944113 -3.150995 0.086350 0
M  V30 22 N -2.536960 -4.278741 -0.381151 0
M  V30 23 C -3.843031 -4.329931 -0.081703 0
M  V30 24 C -4.769412 -5.304229 -0.385980 0
M  V30 25 C -6.071876 -5.088518 0.054524 0
M  V30 26 C -6.412441 -3.946689 0.764374 0
M  V30 27 C -5.418612 -3.010587 1.030868 0
M  V30 28 C -4.122395 -3.178133 0.618055 0
M  V30 29 H 2.846865 -0.830425 2.841188 0
M  V30 30 H 4.488880 -1.561193 2.456019 0
M  V30 31 H 3.054444 -1.708903 1.329663 0
M  V30 32 H 6.512829 1.267134 -1.734016 0
M  V30 33 H 6.418198 3.645226 -2.244342 0
M  V30 34 H 4.900893 5.216771 -0.984539 0
M  V30 35 H 3.502446 4.225337 0.804729 0
M  V30 36 H 2.580963 1.340599 3.376889 0
M  V30 37 H 2.722513 2.987761 2.615210 0
M  V30 38 H 0.197597 0.846458 2.902128 0
M  V30 39 H -2.077266 1.315098 2.465790 0
M  V30 40 H -0.909874 -2.918566 -0.046401 0
M  V30 41 H -2.008725 -5.020241 -0.920598 0
M  V30 42 H -4.526411 -6.200668 -0.937860 0
M  V30 43 H -6.820954 -5.832782 -0.168168 0
M  V30 44 H -7.408640 -3.791237 1.096136 0
M  V30 45 H -5.619658 -2.091140 1.585225 0
M  V30 END ATOM
M  V30 BEGIN BOND
M  V30 1 1 1 2
M  V30 2 2 2 3
M  V30 3 1 3 4
M  V30 4 2 4 5
M  V30 5 1 5 6
M  V30 6 2 6 7
M  V30 7 1 7 8
M  V30 8 2 8 9
M  V30 9 1 9 10
M  V30 10 1 10 11
M  V30 11 1 11 12
M  V30 12 2 12 13
M  V30 13 1 12 14
M  V30 14 1 14 15
M  V30 15 1 15 16
M  V30 16 2 16 17
M  V30 17 1 16 18
M  V30 18 2 18 19
M  V30 19 1 18 20
M  V30 20 2 20 21
M  V30 21 1 21 22
M  V30 22 1 22 23
M  V30 23 2 23 24
M  V30 24 1 24 25
M  V30 25 2 25 26
M  V30 26 1 26 27
M  V30 27 2 27 28
M  V30 28 1 10 2
M  V30 29 1 28 20
M  V30 30 1 9 4
M  V30 31 1 28 23
M  V30 32 1 1 29
M  V30 33 1 1 30
M  V30 34 1 1 31
M  V30 35 1 5 32
M  V30 36 1 6 33
M  V30 37 1 7 34
M  V30 38 1 8 35
M  V30 39 1 11 36
M  V30 40 1 11 37
M  V30 41 1 14 38
M  V30 42 1 15 39
M  V30 43 1 21 40
M  V30 44 1 22 41
M  V30 45 1 24 42
M  V30 46 1 25 43
M  V30 47 1 26 44
M  V30 48 1 27 45
M  V30 END BOND
M  V30 END CTAB
M  END
>  <Dataset>  (816) 
ChEMBL_Kinases

>  <Ligand_Instance>  (816) 
nan

>  <PDB_ID>  (816) 
nan

>  <Standardized_SMILES>  (816) 
Cc1nc2ccccc2n1CC(=O)NNC(=O)C(=O)c1c[nH]c2ccccc12

>  <Name>  (816) 
nan

>  <Pocket>  (816) 
nan

>  <ATP_Site>  (816) 
nan

>  <Peripheral>  (816) 
nan

>  <Num_H_Atoms_ProtBoundConf>  (816) 
nan

>  <Num_Resolved_Atoms>  (816) 
nan

>  <Num_Not_Resolved_Atoms>  (816) 
nan

$$$$
CHEMBL3828310
     RDKit          3D

  0  0  0  0  0  0  0  0  0  0999 V3000
M  V30 BEGIN CTAB
M  V30 COUNTS 46 49 0 0 0
M  V30 BEGIN ATOM
M  V30 1 C 3.304251 -5.402746 -0.417014 0
M  V30 2 C 3.279891 -4.099878 -1.123254 0
M  V30 3 O 4.001879 -4.000242 -2.143318 0
M  V30 4 N 2.514347 -2.977388 -0.737878 0
M  V30 5 C 2.403299 -1.692352 -1.318075 0
M  V30 6 C 3.062276 -1.255118 -2.439331 0
M  V30 7 C 2.931523 0.004632 -2.980626 0
M  V30 8 C 2.092082 0.896280 -2.374395 0
M  V30 9 C 1.921228 2.185982 -2.865817 0
M  V30 10 N 2.652070 2.538104 -4.033735 0
M  V30 11 N 1.087513 2.994166 -2.207632 0
M  V30 12 C 0.411846 2.603993 -1.092914 0
M  V30 13 C 0.560542 1.329774 -0.581791 0
M  V30 14 C -0.238880 1.031871 0.587173 0
M  V30 15 C -0.160711 1.872924 1.706499 0
M  V30 16 C -0.912928 1.648961 2.843522 0
M  V30 17 C -1.779293 0.574216 2.916652 0
M  V30 18 C -2.614710 0.258489 4.075247 0
M  V30 19 C -3.216722 1.099917 5.020658 0
M  V30 20 N -3.890592 0.308271 5.901303 0
M  V30 21 N -3.746799 -0.962342 5.565543 0
M  V30 22 C -4.328067 -2.105142 6.278554 0
M  V30 23 C -2.982595 -1.032532 4.467629 0
M  V30 24 C -1.880745 -0.274702 1.830547 0
M  V30 25 C -1.116250 -0.027460 0.704174 0
M  V30 26 C 1.418235 0.479756 -1.246254 0
M  V30 27 C 1.576561 -0.780462 -0.740143 0
M  V30 28 H 4.176307 -5.430130 0.292969 0
M  V30 29 H 3.483939 -6.225097 -1.128310 0
M  V30 30 H 2.334756 -5.608908 0.092624 0
M  V30 31 H 1.963790 -3.204785 0.125562 0
M  V30 32 H 3.735718 -1.906776 -2.962248 0
M  V30 33 H 3.465687 0.317394 -3.865381 0
M  V30 34 H 2.240826 2.564556 -5.000552 0
M  V30 35 H 3.662338 2.816399 -4.138980 0
M  V30 36 H -0.205825 3.420741 -0.726875 0
M  V30 37 H 0.513552 2.743772 1.703378 0
M  V30 38 H -0.854221 2.299920 3.713336 0
M  V30 39 H -3.120363 2.167686 4.992577 0
M  V30 40 H -4.019029 -2.117418 7.346805 0
M  V30 41 H -5.425309 -2.156179 6.127492 0
M  V30 42 H -3.929501 -3.047897 5.831490 0
M  V30 43 H -2.722441 -1.974244 3.999980 0
M  V30 44 H -2.556876 -1.136440 1.853089 0
M  V30 45 H -1.246818 -0.716006 -0.115923 0
M  V30 46 H 1.042513 -1.070027 0.151542 0
M  V30 END ATOM
M  V30 BEGIN BOND
M  V30 1 1 1 2
M  V30 2 2 2 3
M  V30 3 1 2 4
M  V30 4 1 4 5
M  V30 5 2 5 6
M  V30 6 1 6 7
M  V30 7 2 7 8
M  V30 8 1 8 9
M  V30 9 1 9 10
M  V30 10 2 9 11
M  V30 11 1 11 12
M  V30 12 2 12 13
M  V30 13 1 13 14
M  V30 14 2 14 15
M  V30 15 1 15 16
M  V30 16 2 16 17
M  V30 17 1 17 18
M  V30 18 1 18 19
M  V30 19 2 19 20
M  V30 20 1 20 21
M  V30 21 1 21 22
M  V30 22 1 21 23
M  V30 23 1 17 24
M  V30 24 2 24 25
M  V30 25 1 13 26
M  V30 26 2 26 27
M  V30 27 1 27 5
M  V30 28 1 26 8
M  V30 29 1 25 14
M  V30 30 2 23 18
M  V30 31 1 1 28
M  V30 32 1 1 29
M  V30 33 1 1 30
M  V30 34 1 4 31
M  V30 35 1 6 32
M  V30 36 1 7 33
M  V30 37 1 10 34
M  V30 38 1 10 35
M  V30 39 1 12 36
M  V30 40 1 15 37
M  V30 41 1 16 38
M  V30 42 1 19 39
M  V30 43 1 22 40
M  V30 44 1 22 41
M  V30 45 1 22 42
M  V30 46 1 23 43
M  V30 47 1 24 44
M  V30 48 1 25 45
M  V30 49 1 27 46
M  V30 END BOND
M  V30 END CTAB
M  END
>  <Dataset>  (817) 
ChEMBL_Kinases

>  <Ligand_Instance>  (817) 
nan

>  <PDB_ID>  (817) 
nan

>  <Standardized_SMILES>  (817) 
CC(=O)Nc1ccc2c(N)ncc(-c3ccc(-c4cnn(C)c4)cc3)c2c1

>  <Name>  (817) 
nan

>  <Pocket>  (817) 
nan

>  <ATP_Site>  (817) 
nan

>  <Peripheral>  (817) 
nan

>  <Num_H_Atoms_ProtBoundConf>  (817) 
nan

>  <Num_Resolved_Atoms>  (817) 
nan

>  <Num_Not_Resolved_Atoms>  (817) 
nan

$$$$
CHEMBL3828472
     RDKit          3D

  0  0  0  0  0  0  0  0  0  0999 V3000
M  V30 BEGIN CTAB
M  V30 COUNTS 54 58 0 0 0
M  V30 BEGIN ATOM
M  V30 1 C -0.307349 -7.226375 -0.207088 0
M  V30 2 N 0.792563 -6.377773 0.210621 0
M  V30 3 C 0.654827 -5.032498 0.274607 0
M  V30 4 C 1.863875 -4.480677 0.704620 0
M  V30 5 C 2.066236 -3.025004 0.884804 0
M  V30 6 C 3.275599 -2.386669 0.701526 0
M  V30 7 C 3.338137 -1.023624 0.898409 0
M  V30 8 C 2.260124 -0.251199 1.269781 0
M  V30 9 C 2.315918 1.196029 1.486000 0
M  V30 10 C 3.243658 1.897768 2.227022 0
M  V30 11 N 3.152199 3.228996 2.332940 0
M  V30 12 C 2.153695 3.887599 1.715968 0
M  V30 13 N 2.123200 5.292740 1.875018 0
M  V30 14 C 1.198774 3.243980 0.963021 0
M  V30 15 C 0.210067 3.988749 0.360645 0
M  V30 16 C -0.739911 3.337207 -0.393213 0
M  V30 17 C -0.649035 1.967240 -0.504545 0
M  V30 18 C -1.522096 1.030853 -1.242373 0
M  V30 19 O -1.061962 0.952993 -2.421194 0
M  V30 20 N -2.646931 0.366056 -0.706971 0
M  V30 21 C -3.029828 0.575327 0.662370 0
M  V30 22 C -3.777481 -0.565517 1.274077 0
M  V30 23 N -4.530337 -1.342498 0.303089 0
M  V30 24 C -3.662214 -1.771035 -0.791916 0
M  V30 25 C -3.367093 -0.511213 -1.584827 0
M  V30 26 N 0.328848 1.269089 0.096120 0
M  V30 27 C 1.275752 1.863549 0.840580 0
M  V30 28 C 1.033397 -0.890895 1.456919 0
M  V30 29 C 0.964702 -2.258234 1.260942 0
M  V30 30 C 2.709409 -5.555870 0.887828 0
M  V30 31 N 2.027879 -6.673566 0.580732 0
M  V30 32 H -0.011018 -8.275116 -0.327758 0
M  V30 33 H -1.123613 -7.086654 0.554280 0
M  V30 34 H -0.739620 -6.803372 -1.155616 0
M  V30 35 H -0.227044 -4.444607 0.040512 0
M  V30 36 H 4.124166 -2.978093 0.411745 0
M  V30 37 H 4.254970 -0.484603 0.768141 0
M  V30 38 H 3.969209 1.203349 2.647103 0
M  V30 39 H 2.695905 5.725014 1.092998 0
M  V30 40 H 1.757961 6.065056 2.459771 0
M  V30 41 H 0.106524 5.059732 0.425043 0
M  V30 42 H -1.579110 3.749747 -0.932662 0
M  V30 43 H -2.153015 0.817469 1.314424 0
M  V30 44 H -3.705077 1.471309 0.657401 0
M  V30 45 H -4.524647 -0.153452 1.983365 0
M  V30 46 H -3.118329 -1.292637 1.793759 0
M  V30 47 H -5.362759 -0.806696 -0.048097 0
M  V30 48 H -2.728680 -2.112746 -0.318128 0
M  V30 49 H -4.153591 -2.559258 -1.359702 0
M  V30 50 H -2.820164 -0.732820 -2.520539 0
M  V30 51 H -4.324336 -0.034126 -1.867276 0
M  V30 52 H 0.112405 -0.403897 1.750079 0
M  V30 53 H 0.022361 -2.773167 1.400433 0
M  V30 54 H 3.723837 -5.399416 1.223911 0
M  V30 END ATOM
M  V30 BEGIN BOND
M  V30 1 1 1 2
M  V30 2 1 2 3
M  V30 3 2 3 4
M  V30 4 1 4 5
M  V30 5 2 5 6
M  V30 6 1 6 7
M  V30 7 2 7 8
M  V30 8 1 8 9
M  V30 9 2 9 10
M  V30 10 1 10 11
M  V30 11 2 11 12
M  V30 12 1 12 13
M  V30 13 1 12 14
M  V30 14 2 14 15
M  V30 15 1 15 16
M  V30 16 2 16 17
M  V30 17 1 17 18
M  V30 18 2 18 19
M  V30 19 1 18 20
M  V30 20 1 20 21
M  V30 21 1 21 22
M  V30 22 1 22 23
M  V30 23 1 23 24
M  V30 24 1 24 25
M  V30 25 1 17 26
M  V30 26 2 26 27
M  V30 27 1 8 28
M  V30 28 2 28 29
M  V30 29 1 4 30
M  V30 30 2 30 31
M  V30 31 1 31 2
M  V30 32 1 29 5
M  V30 33 1 27 9
M  V30 34 1 27 14
M  V30 35 1 25 20
M  V30 36 1 1 32
M  V30 37 1 1 33
M  V30 38 1 1 34
M  V30 39 1 3 35
M  V30 40 1 6 36
M  V30 41 1 7 37
M  V30 42 1 10 38
M  V30 43 1 13 39
M  V30 44 1 13 40
M  V30 45 1 15 41
M  V30 46 1 16 42
M  V30 47 1 21 43
M  V30 48 1 21 44
M  V30 49 1 22 45
M  V30 50 1 22 46
M  V30 51 1 23 47
M  V30 52 1 24 48
M  V30 53 1 24 49
M  V30 54 1 25 50
M  V30 55 1 25 51
M  V30 56 1 28 52
M  V30 57 1 29 53
M  V30 58 1 30 54
M  V30 END BOND
M  V30 END CTAB
M  END
>  <Dataset>  (818) 
ChEMBL_Kinases

>  <Ligand_Instance>  (818) 
nan

>  <PDB_ID>  (818) 
nan

>  <Standardized_SMILES>  (818) 
Cn1cc(-c2ccc(-c3cnc(N)c4ccc(C(=O)N5CCNCC5)nc34)cc2)cn1

>  <Name>  (818) 
nan

>  <Pocket>  (818) 
nan

>  <ATP_Site>  (818) 
nan

>  <Peripheral>  (818) 
nan

>  <Num_H_Atoms_ProtBoundConf>  (818) 
nan

>  <Num_Resolved_Atoms>  (818) 
nan

>  <Num_Not_Resolved_Atoms>  (818) 
nan

$$$$
CHEMBL386310
     RDKit          3D

  0  0  0  0  0  0  0  0  0  0999 V3000
M  V30 BEGIN CTAB
M  V30 COUNTS 77 81 0 0 0
M  V30 BEGIN ATOM
M  V30 1 C -4.119550 -2.612595 1.350375 0
M  V30 2 O -3.049052 -2.208992 2.145235 0
M  V30 3 C -1.769339 -2.739448 1.996818 0
M  V30 4 C -1.681869 -3.698853 0.988011 0
M  V30 5 C -0.450299 -4.272081 0.775268 0
M  V30 6 C -0.276479 -5.218481 -0.209961 0
M  V30 7 N -1.330611 -5.624555 -1.090131 0
M  V30 8 C -1.354398 -4.614842 -2.132016 0
M  V30 9 C -0.686570 -3.408122 -2.248474 0
M  V30 10 C -0.961961 -2.720493 -3.446310 0
M  V30 11 C -0.339230 -1.402952 -3.713137 0
M  V30 12 C -1.405602 -0.349853 -3.501339 0
M  V30 13 O -2.361548 0.438957 -3.617765 0
M  V30 14 N -1.251768 0.175843 -2.137588 0
M  V30 15 C -2.275050 1.191511 -1.957738 0
M  V30 16 C -3.594613 0.963728 -1.671422 0
M  V30 17 C -4.426091 2.046798 -1.520684 0
M  V30 18 C -3.862235 3.274427 -1.670224 0
M  V30 19 C -2.526485 3.521601 -1.959568 0
M  V30 20 F -2.140858 4.820878 -2.069460 0
M  V30 21 C -1.661752 2.416294 -2.115973 0
M  V30 22 F -0.375807 2.712019 -2.393152 0
M  V30 23 N -1.818314 -3.575044 -4.025124 0
M  V30 24 N -2.039668 -4.643411 -3.282230 0
M  V30 25 N 0.943917 -5.751849 -0.390955 0
M  V30 26 C 2.035391 -5.431238 0.324294 0
M  V30 27 N 1.881848 -4.494816 1.300736 0
M  V30 28 C 0.663545 -3.958887 1.485157 0
M  V30 29 C 0.501077 -3.005708 2.461899 0
M  V30 30 C -0.666015 -2.351748 2.780900 0
M  V30 31 O -1.033558 -1.418398 3.650285 0
M  V30 32 C -0.511784 -0.601460 4.596699 0
M  V30 33 C 0.443160 0.465995 4.209654 0
M  V30 34 C 1.722638 0.104841 3.564448 0
M  V30 35 N 2.426932 1.378800 3.318791 0
M  V30 36 C 3.691434 1.068636 2.735987 0
M  V30 37 C 3.554454 0.866785 1.264107 0
M  V30 38 N 3.232504 2.076251 0.552229 0
M  V30 39 C 2.393485 1.865472 -0.591074 0
M  V30 40 C 3.057302 1.107585 -1.710676 0
M  V30 41 O 4.178983 1.700747 -2.228189 0
M  V30 42 C 2.522926 2.940613 1.479225 0
M  V30 43 C 1.649021 2.209997 2.436162 0
M  V30 44 H -5.017470 -1.983952 1.501461 0
M  V30 45 H -3.786854 -2.513729 0.278531 0
M  V30 46 H -4.344067 -3.692183 1.517638 0
M  V30 47 H -2.470495 -4.042554 0.359498 0
M  V30 48 H -2.015645 -6.377528 -1.170705 0
M  V30 49 H -0.002156 -3.018729 -1.472434 0
M  V30 50 H 0.527067 -1.246649 -3.071456 0
M  V30 51 H -0.057563 -1.324743 -4.799651 0
M  V30 52 H -0.592790 -0.008249 -1.295220 0
M  V30 53 H -3.890300 -0.091025 -1.584438 0
M  V30 54 H -5.459486 1.857076 -1.295284 0
M  V30 55 H -4.546364 4.115973 -1.546199 0
M  V30 56 H -2.198215 -3.298309 -4.969561 0
M  V30 57 H 2.994224 -5.898393 0.132468 0
M  V30 58 H 1.320139 -2.697869 3.082643 0
M  V30 59 H -0.039715 -1.245838 5.422914 0
M  V30 60 H -1.363389 -0.073773 5.129349 0
M  V30 61 H -0.120371 1.227631 3.590073 0
M  V30 62 H 0.708480 1.014159 5.166211 0
M  V30 63 H 2.421877 -0.498972 4.144242 0
M  V30 64 H 1.573041 -0.402069 2.568239 0
M  V30 65 H 4.117640 0.171311 3.243319 0
M  V30 66 H 4.397022 1.902262 3.001312 0
M  V30 67 H 4.582941 0.578684 0.895353 0
M  V30 68 H 2.916882 0.009890 1.067122 0
M  V30 69 H 1.476199 1.348880 -0.311764 0
M  V30 70 H 2.127617 2.860131 -1.016858 0
M  V30 71 H 3.274038 0.061439 -1.502201 0
M  V30 72 H 2.288121 1.089440 -2.534699 0
M  V30 73 H 5.028272 1.358790 -1.853618 0
M  V30 74 H 1.896290 3.630439 0.840663 0
M  V30 75 H 3.237258 3.588277 2.022099 0
M  V30 76 H 0.983994 2.904728 2.976605 0
M  V30 77 H 0.967405 1.538513 1.856933 0
M  V30 END ATOM
M  V30 BEGIN BOND
M  V30 1 1 1 2
M  V30 2 1 2 3
M  V30 3 2 3 4
M  V30 4 1 4 5
M  V30 5 2 5 6
M  V30 6 1 6 7
M  V30 7 1 7 8
M  V30 8 1 8 9
M  V30 9 2 9 10
M  V30 10 1 10 11
M  V30 11 1 11 12
M  V30 12 2 12 13
M  V30 13 1 12 14
M  V30 14 1 14 15
M  V30 15 2 15 16
M  V30 16 1 16 17
M  V30 17 2 17 18
M  V30 18 1 18 19
M  V30 19 1 19 20
M  V30 20 2 19 21
M  V30 21 1 21 22
M  V30 22 1 10 23
M  V30 23 1 23 24
M  V30 24 1 6 25
M  V30 25 2 25 26
M  V30 26 1 26 27
M  V30 27 2 27 28
M  V30 28 1 28 29
M  V30 29 2 29 30
M  V30 30 1 30 31
M  V30 31 1 31 32
M  V30 32 1 32 33
M  V30 33 1 33 34
M  V30 34 1 34 35
M  V30 35 1 35 36
M  V30 36 1 36 37
M  V30 37 1 37 38
M  V30 38 1 38 39
M  V30 39 1 39 40
M  V30 40 1 40 41
M  V30 41 1 38 42
M  V30 42 1 42 43
M  V30 43 1 30 3
M  V30 44 1 43 35
M  V30 45 1 28 5
M  V30 46 2 24 8
M  V30 47 1 21 15
M  V30 48 1 1 44
M  V30 49 1 1 45
M  V30 50 1 1 46
M  V30 51 1 4 47
M  V30 52 1 7 48
M  V30 53 1 9 49
M  V30 54 1 11 50
M  V30 55 1 11 51
M  V30 56 1 14 52
M  V30 57 1 16 53
M  V30 58 1 17 54
M  V30 59 1 18 55
M  V30 60 1 23 56
M  V30 61 1 26 57
M  V30 62 1 29 58
M  V30 63 1 32 59
M  V30 64 1 32 60
M  V30 65 1 33 61
M  V30 66 1 33 62
M  V30 67 1 34 63
M  V30 68 1 34 64
M  V30 69 1 36 65
M  V30 70 1 36 66
M  V30 71 1 37 67
M  V30 72 1 37 68
M  V30 73 1 39 69
M  V30 74 1 39 70
M  V30 75 1 40 71
M  V30 76 1 40 72
M  V30 77 1 41 73
M  V30 78 1 42 74
M  V30 79 1 42 75
M  V30 80 1 43 76
M  V30 81 1 43 77
M  V30 END BOND
M  V30 END CTAB
M  END
>  <Dataset>  (819) 
ChEMBL_Kinases

>  <Ligand_Instance>  (819) 
nan

>  <PDB_ID>  (819) 
nan

>  <Standardized_SMILES>  (819) 
COc1cc2c(Nc3cc(CC(=O)Nc4cccc(F)c4F)[nH]n3)ncnc2cc1OCCCN1CCN(CCO)CC1

>  <Name>  (819) 
nan

>  <Pocket>  (819) 
nan

>  <ATP_Site>  (819) 
nan

>  <Peripheral>  (819) 
nan

>  <Num_H_Atoms_ProtBoundConf>  (819) 
nan

>  <Num_Resolved_Atoms>  (819) 
nan

>  <Num_Not_Resolved_Atoms>  (819) 
nan

$$$$
CHEMBL595953
     RDKit          3D

  0  0  0  0  0  0  0  0  0  0999 V3000
M  V30 BEGIN CTAB
M  V30 COUNTS 15 16 0 0 0
M  V30 BEGIN ATOM
M  V30 1 Cl -1.809222 -2.072183 -0.087124 0
M  V30 2 C -0.446109 -1.082581 0.448731 0
M  V30 3 C 0.814475 -1.626347 0.185736 0
M  V30 4 Cl 1.017491 -3.161815 -0.609478 0
M  V30 5 C 1.919157 -0.880445 0.590860 0
M  V30 6 I 3.820846 -1.682468 0.203618 0
M  V30 7 C 1.834384 0.351420 1.230038 0
M  V30 8 N 2.747455 1.213766 1.692705 0
M  V30 9 C 2.030924 2.218387 2.203829 0
M  V30 10 N 0.699770 2.003484 2.071251 0
M  V30 11 C 0.558554 0.800585 1.443603 0
M  V30 12 C -0.600233 0.146244 1.085240 0
M  V30 13 I -2.527058 0.860068 1.426242 0
M  V30 14 H 3.782497 1.090746 1.644943 0
M  V30 15 H 2.447830 3.119977 2.679126 0
M  V30 END ATOM
M  V30 BEGIN BOND
M  V30 1 1 1 2
M  V30 2 2 2 3
M  V30 3 1 3 4
M  V30 4 1 3 5
M  V30 5 1 5 6
M  V30 6 2 5 7
M  V30 7 1 7 8
M  V30 8 1 8 9
M  V30 9 2 9 10
M  V30 10 1 10 11
M  V30 11 2 11 12
M  V30 12 1 12 13
M  V30 13 1 12 2
M  V30 14 1 11 7
M  V30 15 1 8 14
M  V30 16 1 9 15
M  V30 END BOND
M  V30 END CTAB
M  END
>  <Dataset>  (820) 
ChEMBL_Kinases

>  <Ligand_Instance>  (820) 
nan

>  <PDB_ID>  (820) 
nan

>  <Standardized_SMILES>  (820) 
Clc1c(Cl)c(I)c2[nH]cnc2c1I

>  <Name>  (820) 
nan

>  <Pocket>  (820) 
nan

>  <ATP_Site>  (820) 
nan

>  <Peripheral>  (820) 
nan

>  <Num_H_Atoms_ProtBoundConf>  (820) 
nan

>  <Num_Resolved_Atoms>  (820) 
nan

>  <Num_Not_Resolved_Atoms>  (820) 
nan

$$$$
CHEMBL595939
     RDKit          3D

  0  0  0  0  0  0  0  0  0  0999 V3000
M  V30 BEGIN CTAB
M  V30 COUNTS 63 68 0 0 0
M  V30 BEGIN ATOM
M  V30 1 C 1.876006 -1.926402 3.417468 0
M  V30 2 C 2.717436 -2.798507 2.556450 0
M  V30 3 O 3.789440 -3.489583 2.861423 0
M  V30 4 C 4.246527 -4.142804 1.795786 0
M  V30 5 C 3.394377 -3.832448 0.756298 0
M  V30 6 C 2.403837 -2.969264 1.223335 0
M  V30 7 C 1.370179 -2.480297 0.320643 0
M  V30 8 N 0.417205 -3.226477 -0.283934 0
M  V30 9 C -0.497125 -2.641606 -1.111530 0
M  V30 10 C -0.527264 -1.270544 -1.395725 0
M  V30 11 O -1.576193 -1.102403 -2.251338 0
M  V30 12 C -2.013756 0.096630 -2.804696 0
M  V30 13 C -2.505955 1.137676 -1.858733 0 CFG=1
M  V30 14 N -2.859534 2.350933 -2.663574 0
M  V30 15 C -3.764391 0.834579 -1.119675 0
M  V30 16 C -3.806793 -0.342107 -0.276880 0
M  V30 17 C -3.554175 -0.393295 1.097607 0
M  V30 18 N -3.649056 -1.647797 1.576078 0
M  V30 19 C -3.963673 -2.488658 0.574734 0
M  V30 20 C -4.195097 -3.839415 0.477321 0
M  V30 21 C -4.526993 -4.439415 -0.726390 0
M  V30 22 C -4.630254 -3.672418 -1.860368 0
M  V30 23 C -4.391977 -2.343430 -1.714301 0
M  V30 24 C -4.055314 -1.678489 -0.541154 0
M  V30 25 C 0.450685 -0.531793 -0.770523 0
M  V30 26 C 1.371960 -1.124487 0.064189 0
M  V30 27 C 2.313939 -0.128695 0.610123 0
M  V30 28 C 3.661847 -0.188879 0.333194 0
M  V30 29 C 4.548737 0.757116 0.852512 0
M  V30 30 C 4.016863 1.759646 1.658644 0
M  V30 31 N 4.673984 2.781817 2.272751 0
M  V30 32 N 3.774535 3.500712 2.941036 0
M  V30 33 C 2.554103 2.937018 2.751324 0
M  V30 34 C 1.249963 3.413030 3.317282 0
M  V30 35 C 2.670487 1.822086 1.936874 0
M  V30 36 C 1.786175 0.884862 1.423125 0
M  V30 37 H 1.826063 -2.370725 4.455810 0
M  V30 38 H 0.839068 -1.874958 3.085395 0
M  V30 39 H 2.370987 -0.941393 3.585601 0
M  V30 40 H 5.132691 -4.746600 1.939038 0
M  V30 41 H 3.626526 -4.292873 -0.215160 0
M  V30 42 H -1.130527 -3.480701 -1.447935 0
M  V30 43 H -2.811728 -0.106802 -3.563797 0
M  V30 44 H -1.186702 0.604810 -3.400381 0
M  V30 45 H -1.709083 1.462168 -1.193589 0
M  V30 46 H -3.194470 3.089257 -2.024246 0
M  V30 47 H -3.697913 2.098941 -3.263658 0
M  V30 48 H -3.954360 1.725970 -0.443769 0
M  V30 49 H -4.626662 0.890976 -1.840546 0
M  V30 50 H -3.307163 0.448496 1.744101 0
M  V30 51 H -3.506753 -1.952944 2.561808 0
M  V30 52 H -4.112777 -4.453550 1.382468 0
M  V30 53 H -4.713068 -5.519335 -0.809784 0
M  V30 54 H -4.885678 -4.114418 -2.799048 0
M  V30 55 H -4.471328 -1.723012 -2.615428 0
M  V30 56 H 0.368479 0.484768 -1.041535 0
M  V30 57 H 3.952822 -1.012236 -0.303586 0
M  V30 58 H 5.591782 0.651576 0.596324 0
M  V30 59 H 5.707858 2.993903 2.244577 0
M  V30 60 H 1.284635 4.527630 3.355697 0
M  V30 61 H 1.017314 2.963864 4.293957 0
M  V30 62 H 0.426391 3.158968 2.626335 0
M  V30 63 H 0.737399 0.978764 1.672269 0
M  V30 END ATOM
M  V30 BEGIN BOND
M  V30 1 1 1 2
M  V30 2 1 2 3
M  V30 3 1 3 4
M  V30 4 2 4 5
M  V30 5 1 5 6
M  V30 6 1 6 7
M  V30 7 2 7 8
M  V30 8 1 8 9
M  V30 9 2 9 10
M  V30 10 1 10 11
M  V30 11 1 11 12
M  V30 12 1 12 13
M  V30 13 1 13 14
M  V30 14 1 13 15
M  V30 15 1 15 16
M  V30 16 2 16 17
M  V30 17 1 17 18
M  V30 18 1 18 19
M  V30 19 2 19 20
M  V30 20 1 20 21
M  V30 21 2 21 22
M  V30 22 1 22 23
M  V30 23 2 23 24
M  V30 24 1 10 25
M  V30 25 2 25 26
M  V30 26 1 26 27
M  V30 27 2 27 28
M  V30 28 1 28 29
M  V30 29 2 29 30
M  V30 30 1 30 31
M  V30 31 1 31 32
M  V30 32 2 32 33
M  V30 33 1 33 34
M  V30 34 1 33 35
M  V30 35 2 35 36
M  V30 36 2 6 2
M  V30 37 1 26 7
M  V30 38 1 36 27
M  V30 39 1 24 16
M  V30 40 1 35 30
M  V30 41 1 24 19
M  V30 42 1 1 37
M  V30 43 1 1 38
M  V30 44 1 1 39
M  V30 45 1 4 40
M  V30 46 1 5 41
M  V30 47 1 9 42
M  V30 48 1 12 43
M  V30 49 1 12 44
M  V30 50 1 13 45 CFG=1
M  V30 51 1 14 46
M  V30 52 1 14 47
M  V30 53 1 15 48
M  V30 54 1 15 49
M  V30 55 1 17 50
M  V30 56 1 18 51
M  V30 57 1 20 52
M  V30 58 1 21 53
M  V30 59 1 22 54
M  V30 60 1 23 55
M  V30 61 1 25 56
M  V30 62 1 28 57
M  V30 63 1 29 58
M  V30 64 1 31 59
M  V30 65 1 34 60
M  V30 66 1 34 61
M  V30 67 1 34 62
M  V30 68 1 36 63
M  V30 END BOND
M  V30 END CTAB
M  END
>  <Dataset>  (821) 
ChEMBL_Kinases

>  <Ligand_Instance>  (821) 
nan

>  <PDB_ID>  (821) 
nan

>  <Standardized_SMILES>  (821) 
Cc1occc1-c1ncc(OC[C@@H](N)Cc2c[nH]c3ccccc23)cc1-c1ccc2[nH]nc(C)c2c1

>  <Name>  (821) 
nan

>  <Pocket>  (821) 
nan

>  <ATP_Site>  (821) 
nan

>  <Peripheral>  (821) 
nan

>  <Num_H_Atoms_ProtBoundConf>  (821) 
nan

>  <Num_Resolved_Atoms>  (821) 
nan

>  <Num_Not_Resolved_Atoms>  (821) 
nan

$$$$
CHEMBL386230
     RDKit          3D

  0  0  0  0  0  0  0  0  0  0999 V3000
M  V30 BEGIN CTAB
M  V30 COUNTS 47 49 0 0 0
M  V30 BEGIN ATOM
M  V30 1 C 1.610737 -1.423386 2.080747 0
M  V30 2 C 2.258956 -0.974435 0.779691 0
M  V30 3 C 1.344455 -1.483087 -0.339486 0
M  V30 4 O 1.331063 -2.874255 -0.388254 0
M  V30 5 N 2.188327 0.445522 0.745044 0
M  V30 6 C 2.825586 1.254125 0.026098 0
M  V30 7 N 3.722758 0.670679 -0.854470 0
M  V30 8 C 2.503862 2.636349 0.242013 0
M  V30 9 C 3.165690 3.516702 -0.504266 0
M  V30 10 O 4.152121 3.497654 -1.514684 0
M  V30 11 N 2.988021 4.968020 -0.440812 0
M  V30 12 S 1.687715 4.978572 0.881812 0
M  V30 13 C 1.631663 3.240046 1.080667 0
M  V30 14 N 0.856453 2.427731 1.955517 0
M  V30 15 C -0.305098 1.671729 1.786123 0
M  V30 16 C -0.952527 1.424282 0.592869 0
M  V30 17 C -2.114183 0.660904 0.414094 0
M  V30 18 C -2.588590 0.138342 1.630988 0
M  V30 19 S -4.069044 -0.858469 1.516899 0
M  V30 20 C -3.563114 -2.565927 1.269812 0
M  V30 21 C -3.377865 -3.317882 2.419135 0
M  V30 22 C -2.991612 -4.611718 2.224734 0
M  V30 23 C -2.763229 -5.264503 1.045638 0
M  V30 24 C -2.966451 -4.453588 -0.078898 0
M  V30 25 C -3.352501 -3.150793 0.025575 0
M  V30 26 C -2.008528 0.337873 2.846269 0
M  V30 27 C -0.873192 1.104729 2.897588 0
M  V30 28 H 2.045175 -2.362564 2.461784 0
M  V30 29 H 1.749797 -0.647632 2.885051 0
M  V30 30 H 0.495674 -1.485734 1.932495 0
M  V30 31 H 3.271191 -1.384965 0.629895 0
M  V30 32 H 1.680345 -1.087016 -1.329387 0
M  V30 33 H 0.318326 -1.117277 -0.180110 0
M  V30 34 H 1.133487 -3.131830 -1.338558 0
M  V30 35 H 4.652135 0.161711 -0.834970 0
M  V30 36 H 4.252423 0.297322 -1.653534 0
M  V30 37 H 4.392113 2.651477 -2.012218 0
M  V30 38 H 1.340566 2.480756 2.864403 0
M  V30 39 H -0.519783 1.863543 -0.300263 0
M  V30 40 H -2.551787 0.519274 -0.551342 0
M  V30 41 H -3.525274 -2.924274 3.415440 0
M  V30 42 H -2.844779 -5.207006 3.137083 0
M  V30 43 H -2.457274 -6.299134 0.982353 0
M  V30 44 H -2.802480 -4.904319 -1.067232 0
M  V30 45 H -3.512389 -2.513949 -0.845519 0
M  V30 46 H -2.455658 -0.107664 3.702748 0
M  V30 47 H -0.413196 1.259793 3.883034 0
M  V30 END ATOM
M  V30 BEGIN BOND
M  V30 1 1 1 2
M  V30 2 1 2 3
M  V30 3 1 3 4
M  V30 4 1 2 5
M  V30 5 2 5 6
M  V30 6 1 6 7
M  V30 7 1 6 8
M  V30 8 1 8 9
M  V30 9 1 9 10
M  V30 10 2 9 11
M  V30 11 1 11 12
M  V30 12 1 12 13
M  V30 13 1 13 14
M  V30 14 1 14 15
M  V30 15 2 15 16
M  V30 16 1 16 17
M  V30 17 2 17 18
M  V30 18 1 18 19
M  V30 19 1 19 20
M  V30 20 2 20 21
M  V30 21 1 21 22
M  V30 22 2 22 23
M  V30 23 1 23 24
M  V30 24 2 24 25
M  V30 25 1 18 26
M  V30 26 2 26 27
M  V30 27 2 13 8
M  V30 28 1 27 15
M  V30 29 1 25 20
M  V30 30 1 1 28
M  V30 31 1 1 29
M  V30 32 1 1 30
M  V30 33 1 2 31
M  V30 34 1 3 32
M  V30 35 1 3 33
M  V30 36 1 4 34
M  V30 37 1 7 35
M  V30 38 1 7 36
M  V30 39 1 10 37
M  V30 40 1 14 38
M  V30 41 1 16 39
M  V30 42 1 17 40
M  V30 43 1 21 41
M  V30 44 1 22 42
M  V30 45 1 23 43
M  V30 46 1 24 44
M  V30 47 1 25 45
M  V30 48 1 26 46
M  V30 49 1 27 47
M  V30 END BOND
M  V30 END CTAB
M  END
>  <Dataset>  (822) 
ChEMBL_Kinases

>  <Ligand_Instance>  (822) 
nan

>  <PDB_ID>  (822) 
nan

>  <Standardized_SMILES>  (822) 
CC(CO)/N=C(\N)c1c(O)nsc1Nc1ccc(Sc2ccccc2)cc1

>  <Name>  (822) 
nan

>  <Pocket>  (822) 
nan

>  <ATP_Site>  (822) 
nan

>  <Peripheral>  (822) 
nan

>  <Num_H_Atoms_ProtBoundConf>  (822) 
nan

>  <Num_Resolved_Atoms>  (822) 
nan

>  <Num_Not_Resolved_Atoms>  (822) 
nan

$$$$
CHEMBL595582
     RDKit          3D

  0  0  0  0  0  0  0  0  0  0999 V3000
M  V30 BEGIN CTAB
M  V30 COUNTS 53 54 0 0 0
M  V30 BEGIN ATOM
M  V30 1 C 2.058738 -0.563368 6.554573 0
M  V30 2 C 1.512360 -1.657853 5.690171 0
M  V30 3 C 0.695985 -1.229389 4.528070 0
M  V30 4 C 1.357164 -0.433273 3.465959 0
M  V30 5 C 1.959237 0.878524 3.812003 0
M  V30 6 C 2.556188 1.567271 2.559090 0
M  V30 7 C 1.533572 1.836639 1.503601 0
M  V30 8 C 2.134937 2.529565 0.287447 0
M  V30 9 C 1.106978 2.795420 -0.760689 0
M  V30 10 C 0.503651 1.519944 -1.222676 0
M  V30 11 O 0.545145 0.273060 -1.066712 0
M  V30 12 N -0.519730 1.710125 -2.224968 0
M  V30 13 C -1.140507 0.525147 -2.711318 0
M  V30 14 C -0.764610 -0.257884 -3.781947 0
M  V30 15 C -1.501657 -1.380960 -4.094387 0
M  V30 16 C -2.631018 -1.764724 -3.360480 0
M  V30 17 S -3.381546 -3.224129 -3.968199 0
M  V30 18 O -3.346244 -3.215903 -5.464173 0
M  V30 19 O -4.859102 -3.180197 -3.598045 0
M  V30 20 N -2.680503 -4.647912 -3.323097 0
M  V30 21 C -2.661561 -4.979965 -2.031912 0
M  V30 22 N -2.155098 -6.045132 -1.388931 0
M  V30 23 N -2.197410 -6.248599 -0.189288 0
M  V30 24 C -2.827117 -5.309681 0.662802 0
M  V30 25 S -3.362201 -4.037620 -0.645403 0
M  V30 26 C -2.999027 -0.974763 -2.291956 0
M  V30 27 C -2.255283 0.146359 -1.987279 0
M  V30 28 H 1.872845 -0.856251 7.641900 0
M  V30 29 H 1.519861 0.380944 6.435280 0
M  V30 30 H 3.153891 -0.468035 6.438694 0
M  V30 31 H 0.884998 -2.346496 6.343859 0
M  V30 32 H 2.371173 -2.330137 5.348068 0
M  V30 33 H 0.314500 -2.202102 4.061927 0
M  V30 34 H -0.235855 -0.728392 4.919139 0
M  V30 35 H 0.645687 -0.296648 2.583812 0
M  V30 36 H 2.158750 -1.090227 3.015326 0
M  V30 37 H 2.781367 0.801572 4.565084 0
M  V30 38 H 1.159171 1.568624 4.146860 0
M  V30 39 H 3.285323 0.804813 2.179580 0
M  V30 40 H 3.023634 2.507094 2.867183 0
M  V30 41 H 0.768729 2.494326 1.966445 0
M  V30 42 H 1.086275 0.907855 1.093858 0
M  V30 43 H 2.530320 3.512830 0.665197 0
M  V30 44 H 2.958148 1.951878 -0.148066 0
M  V30 45 H 1.567438 3.362091 -1.590067 0
M  V30 46 H 0.352908 3.466323 -0.296143 0
M  V30 47 H -0.898138 2.602100 -2.671741 0
M  V30 48 H 0.105633 0.086624 -4.303480 0
M  V30 49 H -1.118305 -1.919219 -4.949622 0
M  V30 50 H -2.232988 -5.305378 -3.997319 0
M  V30 51 H -2.631673 -5.906121 1.705534 0
M  V30 52 H -3.869988 -1.333758 -1.789401 0
M  V30 53 H -2.648980 0.691007 -1.116560 0
M  V30 END ATOM
M  V30 BEGIN BOND
M  V30 1 1 1 2
M  V30 2 1 2 3
M  V30 3 1 3 4
M  V30 4 1 4 5
M  V30 5 1 5 6
M  V30 6 1 6 7
M  V30 7 1 7 8
M  V30 8 1 8 9
M  V30 9 1 9 10
M  V30 10 2 10 11
M  V30 11 1 10 12
M  V30 12 1 12 13
M  V30 13 2 13 14
M  V30 14 1 14 15
M  V30 15 2 15 16
M  V30 16 1 16 17
M  V30 17 2 17 18
M  V30 18 2 17 19
M  V30 19 1 17 20
M  V30 20 1 20 21
M  V30 21 2 21 22
M  V30 22 1 22 23
M  V30 23 2 23 24
M  V30 24 1 24 25
M  V30 25 1 16 26
M  V30 26 2 26 27
M  V30 27 1 27 13
M  V30 28 1 25 21
M  V30 29 1 1 28
M  V30 30 1 1 29
M  V30 31 1 1 30
M  V30 32 1 2 31
M  V30 33 1 2 32
M  V30 34 1 3 33
M  V30 35 1 3 34
M  V30 36 1 4 35
M  V30 37 1 4 36
M  V30 38 1 5 37
M  V30 39 1 5 38
M  V30 40 1 6 39
M  V30 41 1 6 40
M  V30 42 1 7 41
M  V30 43 1 7 42
M  V30 44 1 8 43
M  V30 45 1 8 44
M  V30 46 1 9 45
M  V30 47 1 9 46
M  V30 48 1 12 47
M  V30 49 1 14 48
M  V30 50 1 15 49
M  V30 51 1 20 50
M  V30 52 1 24 51
M  V30 53 1 26 52
M  V30 54 1 27 53
M  V30 END BOND
M  V30 END CTAB
M  END
>  <Dataset>  (823) 
ChEMBL_Kinases

>  <Ligand_Instance>  (823) 
nan

>  <PDB_ID>  (823) 
nan

>  <Standardized_SMILES>  (823) 
CCCCCCCCCC(=O)Nc1ccc(S(=O)(=O)Nc2nncs2)cc1

>  <Name>  (823) 
nan

>  <Pocket>  (823) 
nan

>  <ATP_Site>  (823) 
nan

>  <Peripheral>  (823) 
nan

>  <Num_H_Atoms_ProtBoundConf>  (823) 
nan

>  <Num_Resolved_Atoms>  (823) 
nan

>  <Num_Not_Resolved_Atoms>  (823) 
nan

$$$$
CHEMBL493391
     RDKit          3D

  0  0  0  0  0  0  0  0  0  0999 V3000
M  V30 BEGIN CTAB
M  V30 COUNTS 36 41 0 0 0
M  V30 BEGIN ATOM
M  V30 1 O 4.452232 -0.731683 1.364635 0
M  V30 2 C 3.273776 -1.119450 1.466689 0
M  V30 3 N 3.005037 -2.240785 2.299236 0
M  V30 4 C 1.604982 -2.482812 2.249163 0
M  V30 5 O 1.153536 -3.431644 2.915273 0
M  V30 6 C 1.009325 -1.498450 1.375945 0
M  V30 7 C 2.010484 -0.686640 0.911305 0
M  V30 8 C 1.672222 0.323322 0.062098 0
M  V30 9 C 2.410933 1.281983 -0.562523 0
M  V30 10 C 3.705706 1.683253 -0.655230 0
M  V30 11 N 4.171043 2.711146 -1.380891 0
M  V30 12 C 3.330258 3.482659 -2.129308 0
M  V30 13 C 2.000268 3.146009 -2.093262 0
M  V30 14 C 1.569641 2.063846 -1.319139 0
M  V30 15 N 0.304261 1.633283 -1.198444 0
M  V30 16 C 0.382930 0.568650 -0.350851 0
M  V30 17 C -0.627538 -0.247095 0.115279 0
M  V30 18 N -1.958995 -0.213755 -0.138794 0
M  V30 19 C -2.452589 -1.236602 0.578090 0
M  V30 20 C -3.802349 -1.602739 0.633867 0
M  V30 21 C -4.181702 -2.677033 1.410618 0
M  V30 22 C -3.196852 -3.370742 2.122746 0
M  V30 23 O -3.582166 -4.453220 2.904889 0
M  V30 24 C -1.904920 -2.934724 2.002316 0
M  V30 25 C -1.452016 -1.888638 1.260258 0
M  V30 26 C -0.272504 -1.263337 0.972278 0
M  V30 27 H 3.727193 -2.797927 2.859384 0
M  V30 28 H 4.446147 1.152758 -0.112825 0
M  V30 29 H 3.760849 4.293644 -2.690972 0
M  V30 30 H 1.335097 3.740595 -2.672995 0
M  V30 31 H -0.549936 2.024230 -1.650991 0
M  V30 32 H -2.467404 0.458444 -0.752498 0
M  V30 33 H -4.570530 -1.076770 0.090254 0
M  V30 34 H -5.226964 -2.947353 1.443460 0
M  V30 35 H -3.654100 -4.287515 3.900643 0
M  V30 36 H -1.211692 -3.501776 2.565281 0
M  V30 END ATOM
M  V30 BEGIN BOND
M  V30 1 2 1 2
M  V30 2 1 2 3
M  V30 3 1 3 4
M  V30 4 2 4 5
M  V30 5 1 4 6
M  V30 6 2 6 7
M  V30 7 1 7 8
M  V30 8 1 8 9
M  V30 9 2 9 10
M  V30 10 1 10 11
M  V30 11 2 11 12
M  V30 12 1 12 13
M  V30 13 2 13 14
M  V30 14 1 14 15
M  V30 15 1 15 16
M  V30 16 1 16 17
M  V30 17 1 17 18
M  V30 18 1 18 19
M  V30 19 2 19 20
M  V30 20 1 20 21
M  V30 21 2 21 22
M  V30 22 1 22 23
M  V30 23 1 22 24
M  V30 24 2 24 25
M  V30 25 1 25 26
M  V30 26 1 7 2
M  V30 27 2 16 8
M  V30 28 2 26 17
M  V30 29 1 26 6
M  V30 30 1 14 9
M  V30 31 1 25 19
M  V30 32 1 3 27
M  V30 33 1 10 28
M  V30 34 1 12 29
M  V30 35 1 13 30
M  V30 36 1 15 31
M  V30 37 1 18 32
M  V30 38 1 20 33
M  V30 39 1 21 34
M  V30 40 1 23 35
M  V30 41 1 24 36
M  V30 END BOND
M  V30 END CTAB
M  END
>  <Dataset>  (824) 
ChEMBL_Kinases

>  <Ligand_Instance>  (824) 
nan

>  <PDB_ID>  (824) 
nan

>  <Standardized_SMILES>  (824) 
O=C1NC(=O)c2c1c1c3cnccc3[nH]c1c1[nH]c3ccc(O)cc3c21

>  <Name>  (824) 
nan

>  <Pocket>  (824) 
nan

>  <ATP_Site>  (824) 
nan

>  <Peripheral>  (824) 
nan

>  <Num_H_Atoms_ProtBoundConf>  (824) 
nan

>  <Num_Resolved_Atoms>  (824) 
nan

>  <Num_Not_Resolved_Atoms>  (824) 
nan

$$$$
CHEMBL386033
     RDKit          3D

  0  0  0  0  0  0  0  0  0  0999 V3000
M  V30 BEGIN CTAB
M  V30 COUNTS 39 42 0 0 0
M  V30 BEGIN ATOM
M  V30 1 C 0.927532 -4.069098 2.904302 0
M  V30 2 C 0.240153 -3.044549 2.033783 0
M  V30 3 C -1.147226 -3.620357 1.722313 0
M  V30 4 C 0.998695 -2.815414 0.775181 0
M  V30 5 N 1.363173 -3.757349 -0.112730 0
M  V30 6 N 2.019406 -3.195187 -1.105176 0
M  V30 7 C 2.080404 -1.889204 -0.860913 0
M  V30 8 C 2.667252 -0.881312 -1.613404 0
M  V30 9 C 2.597555 0.406285 -1.146830 0
M  V30 10 C 1.951325 0.696566 0.057462 0
M  V30 11 C 1.814062 2.022128 0.649745 0
M  V30 12 C 2.628819 3.020565 1.109128 0
M  V30 13 N 1.841526 4.013278 1.541298 0
M  V30 14 O 0.584022 3.676186 1.371240 0
M  V30 15 C 0.506154 2.484523 0.836766 0
M  V30 16 C -0.814355 1.890798 0.551291 0
M  V30 17 C -1.327083 1.528303 -0.673965 0
M  V30 18 C -2.590788 0.984844 -0.742859 0
M  V30 19 F -3.017765 0.655540 -1.990647 0
M  V30 20 C -3.383979 0.781030 0.370436 0
M  V30 21 C -2.830007 1.160354 1.590163 0
M  V30 22 C -1.557531 1.714927 1.721901 0
M  V30 23 F -1.160461 2.031622 2.975428 0
M  V30 24 C 1.390161 -0.372568 0.748800 0
M  V30 25 N 1.450486 -1.653279 0.300146 0
M  V30 26 H 0.258071 -4.870317 3.266125 0
M  V30 27 H 1.739535 -4.571633 2.335399 0
M  V30 28 H 1.323362 -3.556753 3.821369 0
M  V30 29 H 0.104156 -2.073900 2.552742 0
M  V30 30 H -1.602352 -2.933307 0.994782 0
M  V30 31 H -1.034970 -4.649181 1.327785 0
M  V30 32 H -1.713568 -3.628375 2.672202 0
M  V30 33 H 3.167169 -1.092080 -2.540789 0
M  V30 34 H 3.021667 1.252519 -1.658267 0
M  V30 35 H 3.696367 2.850307 1.049546 0
M  V30 36 H -0.666033 1.709456 -1.504217 0
M  V30 37 H -4.358221 0.357833 0.284719 0
M  V30 38 H -3.463500 0.994634 2.453565 0
M  V30 39 H 0.883753 -0.198641 1.678294 0
M  V30 END ATOM
M  V30 BEGIN BOND
M  V30 1 1 1 2
M  V30 2 1 2 3
M  V30 3 1 2 4
M  V30 4 2 4 5
M  V30 5 1 5 6
M  V30 6 2 6 7
M  V30 7 1 7 8
M  V30 8 2 8 9
M  V30 9 1 9 10
M  V30 10 1 10 11
M  V30 11 1 11 12
M  V30 12 2 12 13
M  V30 13 1 13 14
M  V30 14 1 14 15
M  V30 15 1 15 16
M  V30 16 2 16 17
M  V30 17 1 17 18
M  V30 18 1 18 19
M  V30 19 2 18 20
M  V30 20 1 20 21
M  V30 21 2 21 22
M  V30 22 1 22 23
M  V30 23 2 10 24
M  V30 24 1 24 25
M  V30 25 1 25 4
M  V30 26 1 25 7
M  V30 27 2 15 11
M  V30 28 1 22 16
M  V30 29 1 1 26
M  V30 30 1 1 27
M  V30 31 1 1 28
M  V30 32 1 2 29
M  V30 33 1 3 30
M  V30 34 1 3 31
M  V30 35 1 3 32
M  V30 36 1 8 33
M  V30 37 1 9 34
M  V30 38 1 12 35
M  V30 39 1 17 36
M  V30 40 1 20 37
M  V30 41 1 21 38
M  V30 42 1 24 39
M  V30 END BOND
M  V30 END CTAB
M  END
>  <Dataset>  (825) 
ChEMBL_Kinases

>  <Ligand_Instance>  (825) 
nan

>  <PDB_ID>  (825) 
nan

>  <Standardized_SMILES>  (825) 
CC(C)c1nnc2ccc(-c3cnoc3-c3cc(F)ccc3F)cn12

>  <Name>  (825) 
nan

>  <Pocket>  (825) 
nan

>  <ATP_Site>  (825) 
nan

>  <Peripheral>  (825) 
nan

>  <Num_H_Atoms_ProtBoundConf>  (825) 
nan

>  <Num_Resolved_Atoms>  (825) 
nan

>  <Num_Not_Resolved_Atoms>  (825) 
nan

$$$$
CHEMBL493496
     RDKit          3D

  0  0  0  0  0  0  0  0  0  0999 V3000
M  V30 BEGIN CTAB
M  V30 COUNTS 52 56 0 0 0
M  V30 BEGIN ATOM
M  V30 1 C -2.928875 -6.548686 4.923652 0
M  V30 2 N -2.579319 -6.393635 3.510640 0
M  V30 3 C -2.097041 -5.152428 3.007526 0
M  V30 4 N -1.896543 -3.996325 3.699611 0
M  V30 5 O -1.445770 -3.067186 2.904115 0
M  V30 6 C -1.321098 -3.517083 1.688826 0
M  V30 7 C -0.889385 -2.913429 0.524010 0
M  V30 8 C -0.455400 -1.511599 0.472527 0
M  V30 9 C 0.807260 -1.015695 0.660340 0
M  V30 10 C 1.038856 0.341146 0.575533 0
M  V30 11 C -0.028100 1.167288 0.299527 0
M  V30 12 C 0.279128 2.509344 0.230149 0
M  V30 13 N 1.533787 3.132971 0.404657 0
M  V30 14 C 2.455522 3.163029 1.540263 0
M  V30 15 C 3.842919 2.948991 1.094548 0
M  V30 16 O 4.110020 2.772122 -0.213487 0
M  V30 17 C 3.298446 3.241357 -1.164804 0
M  V30 18 C 2.022458 3.890183 -0.737481 0 CFG=1
M  V30 19 C 1.031464 4.016058 -1.846350 0
M  V30 20 N -0.740717 3.369945 -0.040379 0
M  V30 21 N -1.976175 2.960739 -0.231312 0
M  V30 22 C -2.288342 1.644873 -0.165311 0
M  V30 23 C -1.313587 0.711314 0.103712 0
M  V30 24 C -1.518187 -0.646944 0.193663 0
M  V30 25 C -0.882569 -3.702353 -0.618596 0
M  V30 26 C -0.424442 -3.077887 -1.877263 0
M  V30 27 C -1.283495 -5.032400 -0.620212 0
M  V30 28 C -1.713074 -5.605359 0.577866 0
M  V30 29 C -1.724634 -4.840528 1.708689 0
M  V30 30 H -2.143942 -6.037154 5.509452 0
M  V30 31 H -3.871221 -5.961013 5.071597 0
M  V30 32 H -3.053628 -7.610717 5.159788 0
M  V30 33 H -2.672092 -7.175567 2.842687 0
M  V30 34 H 1.558345 -1.757400 0.869715 0
M  V30 35 H 2.035916 0.711560 0.725796 0
M  V30 36 H 2.336073 4.194987 1.961187 0
M  V30 37 H 2.101255 2.473634 2.353680 0
M  V30 38 H 4.205252 2.019167 1.626843 0
M  V30 39 H 4.497423 3.745241 1.507426 0
M  V30 40 H 2.989219 2.388423 -1.836486 0
M  V30 41 H 3.839185 3.947398 -1.829524 0
M  V30 42 H 2.265092 4.914952 -0.371366 0
M  V30 43 H 0.349854 4.866257 -1.586881 0
M  V30 44 H 1.588597 4.293524 -2.769890 0
M  V30 45 H 0.483800 3.075000 -2.060796 0
M  V30 46 H -3.302572 1.265378 -0.317944 0
M  V30 47 H -2.557935 -0.966588 0.030658 0
M  V30 48 H -0.644650 -1.996689 -1.847099 0
M  V30 49 H -0.915819 -3.555116 -2.760985 0
M  V30 50 H 0.664613 -3.298429 -1.965784 0
M  V30 51 H -1.269787 -5.632042 -1.528451 0
M  V30 52 H -2.031744 -6.649171 0.595411 0
M  V30 END ATOM
M  V30 BEGIN BOND
M  V30 1 1 1 2
M  V30 2 1 2 3
M  V30 3 2 3 4
M  V30 4 1 4 5
M  V30 5 1 5 6
M  V30 6 2 6 7
M  V30 7 1 7 8
M  V30 8 2 8 9
M  V30 9 1 9 10
M  V30 10 2 10 11
M  V30 11 1 11 12
M  V30 12 1 12 13
M  V30 13 1 13 14
M  V30 14 1 14 15
M  V30 15 1 15 16
M  V30 16 1 16 17
M  V30 17 1 17 18
M  V30 18 1 18 19
M  V30 19 2 12 20
M  V30 20 1 20 21
M  V30 21 2 21 22
M  V30 22 1 22 23
M  V30 23 2 23 24
M  V30 24 1 7 25
M  V30 25 1 25 26
M  V30 26 2 25 27
M  V30 27 1 27 28
M  V30 28 2 28 29
M  V30 29 1 29 3
M  V30 30 1 29 6
M  V30 31 1 24 8
M  V30 32 1 23 11
M  V30 33 1 18 13
M  V30 34 1 1 30
M  V30 35 1 1 31
M  V30 36 1 1 32
M  V30 37 1 2 33
M  V30 38 1 9 34
M  V30 39 1 10 35
M  V30 40 1 14 36
M  V30 41 1 14 37
M  V30 42 1 15 38
M  V30 43 1 15 39
M  V30 44 1 17 40
M  V30 45 1 17 41
M  V30 46 1 18 42 CFG=1
M  V30 47 1 19 43
M  V30 48 1 19 44
M  V30 49 1 19 45
M  V30 50 1 22 46
M  V30 51 1 24 47
M  V30 52 1 26 48
M  V30 53 1 26 49
M  V30 54 1 26 50
M  V30 55 1 27 51
M  V30 56 1 28 52
M  V30 END BOND
M  V30 END CTAB
M  END
>  <Dataset>  (826) 
ChEMBL_Kinases

>  <Ligand_Instance>  (826) 
nan

>  <PDB_ID>  (826) 
nan

>  <Standardized_SMILES>  (826) 
CNc1noc2c(-c3ccc4c(N5CCOC[C@H]5C)nncc4c3)c(C)ccc12

>  <Name>  (826) 
nan

>  <Pocket>  (826) 
nan

>  <ATP_Site>  (826) 
nan

>  <Peripheral>  (826) 
nan

>  <Num_H_Atoms_ProtBoundConf>  (826) 
nan

>  <Num_Resolved_Atoms>  (826) 
nan

>  <Num_Not_Resolved_Atoms>  (826) 
nan

$$$$
CHEMBL595578
     RDKit          3D

  0  0  0  0  0  0  0  0  0  0999 V3000
M  V30 BEGIN CTAB
M  V30 COUNTS 44 47 0 0 0
M  V30 BEGIN ATOM
M  V30 1 C 2.458477 -5.341856 1.974441 0
M  V30 2 S 2.491333 -5.209052 0.155539 0
M  V30 3 C 1.413766 -3.885213 -0.378009 0
M  V30 4 C 1.323883 -3.652925 -1.753077 0
M  V30 5 C 0.494459 -2.630900 -2.209414 0
M  V30 6 C -0.228138 -1.859443 -1.311286 0
M  V30 7 C -0.123858 -2.107061 0.044838 0
M  V30 8 C -0.840746 -1.357189 1.077833 0
M  V30 9 C -0.709844 -0.004663 1.328421 0
M  V30 10 C 0.139858 0.967214 0.649395 0
M  V30 11 C -0.583520 1.982734 0.040373 0
M  V30 12 C 0.019043 3.008673 -0.658292 0
M  V30 13 C 1.400256 3.032290 -0.759995 0
M  V30 14 N 2.077963 4.005145 -1.429446 0
M  V30 15 C 3.435280 3.968989 -1.491268 0
M  V30 16 C 4.156626 2.955118 -0.883152 0
M  V30 17 N 3.487717 1.988531 -0.218321 0
M  V30 18 C 2.125473 2.020796 -0.153712 0
M  V30 19 C 1.514780 0.999040 0.542825 0
M  V30 20 N -1.543692 0.301232 2.364848 0
M  V30 21 C -1.698601 1.637693 2.934895 0
M  V30 22 N -2.159289 -0.784342 2.743145 0
M  V30 23 C -3.131564 -0.805612 3.840420 0
M  V30 24 C -1.764942 -1.829622 1.987126 0
M  V30 25 O -2.159968 -3.000367 2.089981 0
M  V30 26 C 0.696239 -3.118589 0.507935 0
M  V30 27 H 1.647451 -6.028058 2.320346 0
M  V30 28 H 3.406505 -5.770569 2.382266 0
M  V30 29 H 2.328487 -4.351076 2.466553 0
M  V30 30 H 1.846165 -4.199545 -2.517536 0
M  V30 31 H 0.382498 -2.400774 -3.275199 0
M  V30 32 H -0.888991 -1.048732 -1.630961 0
M  V30 33 H -1.678268 2.059722 0.059324 0
M  V30 34 H -0.555477 3.810612 -1.139051 0
M  V30 35 H 3.861259 4.789312 -2.046863 0
M  V30 36 H 5.240487 2.977923 -0.965619 0
M  V30 37 H 1.999444 0.175642 1.042904 0
M  V30 38 H -2.473676 2.152879 2.328436 0
M  V30 39 H -1.940438 1.604476 4.019565 0
M  V30 40 H -0.743218 2.191135 2.743537 0
M  V30 41 H -3.147030 -1.840261 4.283031 0
M  V30 42 H -2.819050 -0.152874 4.687298 0
M  V30 43 H -4.155276 -0.586985 3.510902 0
M  V30 44 H 0.796023 -3.334270 1.572612 0
M  V30 END ATOM
M  V30 BEGIN BOND
M  V30 1 1 1 2
M  V30 2 1 2 3
M  V30 3 2 3 4
M  V30 4 1 4 5
M  V30 5 2 5 6
M  V30 6 1 6 7
M  V30 7 1 7 8
M  V30 8 2 8 9
M  V30 9 1 9 10
M  V30 10 2 10 11
M  V30 11 1 11 12
M  V30 12 2 12 13
M  V30 13 1 13 14
M  V30 14 2 14 15
M  V30 15 1 15 16
M  V30 16 2 16 17
M  V30 17 1 17 18
M  V30 18 2 18 19
M  V30 19 1 9 20
M  V30 20 1 20 21
M  V30 21 1 20 22
M  V30 22 1 22 23
M  V30 23 1 22 24
M  V30 24 2 24 25
M  V30 25 2 7 26
M  V30 26 1 26 3
M  V30 27 1 24 8
M  V30 28 1 19 10
M  V30 29 1 18 13
M  V30 30 1 1 27
M  V30 31 1 1 28
M  V30 32 1 1 29
M  V30 33 1 4 30
M  V30 34 1 5 31
M  V30 35 1 6 32
M  V30 36 1 11 33
M  V30 37 1 12 34
M  V30 38 1 15 35
M  V30 39 1 16 36
M  V30 40 1 19 37
M  V30 41 1 21 38
M  V30 42 1 21 39
M  V30 43 1 21 40
M  V30 44 1 23 41
M  V30 45 1 23 42
M  V30 46 1 23 43
M  V30 47 1 26 44
M  V30 END BOND
M  V30 END CTAB
M  END
>  <Dataset>  (827) 
ChEMBL_Kinases

>  <Ligand_Instance>  (827) 
nan

>  <PDB_ID>  (827) 
nan

>  <Standardized_SMILES>  (827) 
CSc1cccc(-c2c(-c3ccc4nccnc4c3)n(C)n(C)c2=O)c1

>  <Name>  (827) 
nan

>  <Pocket>  (827) 
nan

>  <ATP_Site>  (827) 
nan

>  <Peripheral>  (827) 
nan

>  <Num_H_Atoms_ProtBoundConf>  (827) 
nan

>  <Num_Resolved_Atoms>  (827) 
nan

>  <Num_Not_Resolved_Atoms>  (827) 
nan

$$$$
CHEMBL595556
     RDKit          3D

  0  0  0  0  0  0  0  0  0  0999 V3000
M  V30 BEGIN CTAB
M  V30 COUNTS 40 43 0 0 0
M  V30 BEGIN ATOM
M  V30 1 C 1.060094 -3.528816 2.406433 0
M  V30 2 N 0.192553 -2.365492 2.493874 0
M  V30 3 C 0.272990 -1.290696 1.684883 0
M  V30 4 C 1.183113 -1.020598 0.581559 0
M  V30 5 C 2.552801 -0.888608 0.586375 0
M  V30 6 C 3.227913 -0.631507 -0.590209 0
M  V30 7 C 2.512196 -0.507998 -1.772022 0
M  V30 8 N 3.200862 -0.256572 -2.905218 0
M  V30 9 C 2.558160 -0.124893 -4.094104 0
M  V30 10 C 1.176035 -0.255894 -4.110569 0
M  V30 11 N 0.517947 -0.503092 -2.985790 0
M  V30 12 C 1.141251 -0.634050 -1.812542 0
M  V30 13 C 0.474981 -0.894566 -0.611217 0
M  V30 14 C -0.728705 -0.439900 2.119953 0
M  V30 15 C -1.045154 0.874389 1.551315 0
M  V30 16 C 0.015394 1.754248 1.684505 0
M  V30 17 C -0.092317 3.049086 1.208103 0
M  V30 18 C -1.253277 3.488194 0.593615 0
M  V30 19 C -2.294877 2.587175 0.474947 0
M  V30 20 Br -3.944801 3.102785 -0.361284 0
M  V30 21 C -2.210471 1.290487 0.942439 0
M  V30 22 C -1.393792 -1.026699 3.188732 0
M  V30 23 O -2.360609 -0.487738 3.799748 0
M  V30 24 N -0.786141 -2.215531 3.380498 0
M  V30 25 C -1.215666 -3.126682 4.431741 0
M  V30 26 H 0.550010 -4.239270 1.726142 0
M  V30 27 H 2.020423 -3.240805 1.926403 0
M  V30 28 H 1.206809 -3.987175 3.397209 0
M  V30 29 H 2.982708 -1.007734 1.572607 0
M  V30 30 H 4.304786 -0.538606 -0.518167 0
M  V30 31 H 3.085761 0.073435 -4.996916 0
M  V30 32 H 0.593535 -0.160082 -5.039789 0
M  V30 33 H -0.602747 -0.975735 -0.752948 0
M  V30 34 H 0.990737 1.593460 2.131852 0
M  V30 35 H 0.686120 3.821889 1.263079 0
M  V30 36 H -1.359686 4.507543 0.210438 0
M  V30 37 H -2.965806 0.530834 0.892231 0
M  V30 38 H -1.277347 -2.635182 5.415086 0
M  V30 39 H -2.230865 -3.520685 4.146549 0
M  V30 40 H -0.541442 -4.017366 4.446288 0
M  V30 END ATOM
M  V30 BEGIN BOND
M  V30 1 1 1 2
M  V30 2 1 2 3
M  V30 3 1 3 4
M  V30 4 2 4 5
M  V30 5 1 5 6
M  V30 6 2 6 7
M  V30 7 1 7 8
M  V30 8 2 8 9
M  V30 9 1 9 10
M  V30 10 2 10 11
M  V30 11 1 11 12
M  V30 12 2 12 13
M  V30 13 2 3 14
M  V30 14 1 14 15
M  V30 15 2 15 16
M  V30 16 1 16 17
M  V30 17 2 17 18
M  V30 18 1 18 19
M  V30 19 1 19 20
M  V30 20 2 19 21
M  V30 21 1 14 22
M  V30 22 2 22 23
M  V30 23 1 22 24
M  V30 24 1 24 25
M  V30 25 1 24 2
M  V30 26 1 13 4
M  V30 27 1 21 15
M  V30 28 1 12 7
M  V30 29 1 1 26
M  V30 30 1 1 27
M  V30 31 1 1 28
M  V30 32 1 5 29
M  V30 33 1 6 30
M  V30 34 1 9 31
M  V30 35 1 10 32
M  V30 36 1 13 33
M  V30 37 1 16 34
M  V30 38 1 17 35
M  V30 39 1 18 36
M  V30 40 1 21 37
M  V30 41 1 25 38
M  V30 42 1 25 39
M  V30 43 1 25 40
M  V30 END BOND
M  V30 END CTAB
M  END
>  <Dataset>  (828) 
ChEMBL_Kinases

>  <Ligand_Instance>  (828) 
nan

>  <PDB_ID>  (828) 
nan

>  <Standardized_SMILES>  (828) 
Cn1c(-c2ccc3nccnc3c2)c(-c2cccc(Br)c2)c(=O)n1C

>  <Name>  (828) 
nan

>  <Pocket>  (828) 
nan

>  <ATP_Site>  (828) 
nan

>  <Peripheral>  (828) 
nan

>  <Num_H_Atoms_ProtBoundConf>  (828) 
nan

>  <Num_Resolved_Atoms>  (828) 
nan

>  <Num_Not_Resolved_Atoms>  (828) 
nan

$$$$
CHEMBL494072
     RDKit          3D

  0  0  0  0  0  0  0  0  0  0999 V3000
M  V30 BEGIN CTAB
M  V30 COUNTS 61 65 0 0 0
M  V30 BEGIN ATOM
M  V30 1 C 1.796538 0.039560 -2.263626 0
M  V30 2 C 2.450604 0.984233 -1.313974 0
M  V30 3 C 3.602607 1.596548 -1.776101 0
M  V30 4 C 4.321751 2.478939 -1.035551 0
M  V30 5 C 3.917743 2.809192 0.247033 0
M  V30 6 C 4.605511 3.728730 1.144131 0
M  V30 7 O 4.152858 4.046015 2.265628 0
M  V30 8 N 5.837017 4.322005 0.797886 0
M  V30 9 C 6.623917 5.261121 1.612084 0
M  V30 10 C 7.642948 6.093843 0.838452 0
M  V30 11 C 8.093851 4.908040 1.583882 0
M  V30 12 C 2.754997 2.205679 0.742444 0
M  V30 13 C 2.035373 1.311591 -0.020892 0
M  V30 14 C 0.817690 0.621485 0.388682 0
M  V30 15 C 0.825513 0.015817 1.649699 0
M  V30 16 C -0.250367 -0.687056 2.182751 0
M  V30 17 C -1.399983 -0.800112 1.431014 0
M  V30 18 N -2.471877 -1.470828 1.892740 0
M  V30 19 C -3.610014 -1.580975 1.139445 0
M  V30 20 N -4.779460 -2.281499 1.559329 0
M  V30 21 C -4.723105 -3.631646 1.034943 0
M  V30 22 C -5.880539 -4.499657 1.413322 0
M  V30 23 N -5.695633 -5.766765 0.825955 0
M  V30 24 C -5.775967 -5.902246 -0.571984 0
M  V30 25 C -4.459346 -6.440890 -1.088473 0
M  V30 26 O -3.995714 -7.528074 -0.361205 0
M  V30 27 C -3.870332 -7.255574 0.993611 0
M  V30 28 C -5.208889 -6.833286 1.600170 0
M  V30 29 N -3.628098 -0.999982 -0.075290 0
M  V30 30 C -2.580876 -0.318398 -0.581155 0
M  V30 31 C -1.429923 -0.209161 0.184046 0
M  V30 32 C -0.351608 0.483569 -0.325558 0
M  V30 33 H 1.242263 0.610267 -3.025710 0
M  V30 34 H 1.230648 -0.759368 -1.765555 0
M  V30 35 H 2.616018 -0.493499 -2.829763 0
M  V30 36 H 3.982376 1.381546 -2.787962 0
M  V30 37 H 5.198864 2.926868 -1.423639 0
M  V30 38 H 6.244559 4.069019 -0.145059 0
M  V30 39 H 6.222816 5.598972 2.565944 0
M  V30 40 H 7.895721 7.119113 1.221669 0
M  V30 41 H 7.579658 6.086601 -0.285977 0
M  V30 42 H 8.672140 5.143324 2.513653 0
M  V30 43 H 8.442698 3.985292 1.079864 0
M  V30 44 H 2.354369 2.393465 1.727186 0
M  V30 45 H 1.730377 0.094100 2.266345 0
M  V30 46 H -0.171691 -1.128511 3.168137 0
M  V30 47 H -5.202998 -1.494896 2.089444 0
M  V30 48 H -4.569207 -3.599540 -0.071956 0
M  V30 49 H -3.802223 -4.092662 1.447337 0
M  V30 50 H -5.834953 -4.639971 2.532712 0
M  V30 51 H -6.868189 -4.017872 1.223126 0
M  V30 52 H -5.897803 -4.872250 -1.005229 0
M  V30 53 H -6.619423 -6.529259 -0.933252 0
M  V30 54 H -4.650346 -6.823771 -2.115803 0
M  V30 55 H -3.697484 -5.636597 -1.120740 0
M  V30 56 H -3.452584 -8.159386 1.462261 0
M  V30 57 H -3.136650 -6.440778 1.132663 0
M  V30 58 H -5.890060 -7.707037 1.655957 0
M  V30 59 H -4.995939 -6.461047 2.625226 0
M  V30 60 H -2.648984 0.136101 -1.581125 0
M  V30 61 H -0.368974 0.950942 -1.297763 0
M  V30 END ATOM
M  V30 BEGIN BOND
M  V30 1 1 1 2
M  V30 2 2 2 3
M  V30 3 1 3 4
M  V30 4 2 4 5
M  V30 5 1 5 6
M  V30 6 2 6 7
M  V30 7 1 6 8
M  V30 8 1 8 9
M  V30 9 1 9 10
M  V30 10 1 10 11
M  V30 11 1 5 12
M  V30 12 2 12 13
M  V30 13 1 13 14
M  V30 14 2 14 15
M  V30 15 1 15 16
M  V30 16 2 16 17
M  V30 17 1 17 18
M  V30 18 2 18 19
M  V30 19 1 19 20
M  V30 20 1 20 21
M  V30 21 1 21 22
M  V30 22 1 22 23
M  V30 23 1 23 24
M  V30 24 1 24 25
M  V30 25 1 25 26
M  V30 26 1 26 27
M  V30 27 1 27 28
M  V30 28 1 19 29
M  V30 29 2 29 30
M  V30 30 1 30 31
M  V30 31 2 31 32
M  V30 32 1 13 2
M  V30 33 1 32 14
M  V30 34 1 11 9
M  V30 35 1 31 17
M  V30 36 1 28 23
M  V30 37 1 1 33
M  V30 38 1 1 34
M  V30 39 1 1 35
M  V30 40 1 3 36
M  V30 41 1 4 37
M  V30 42 1 8 38
M  V30 43 1 9 39
M  V30 44 1 10 40
M  V30 45 1 10 41
M  V30 46 1 11 42
M  V30 47 1 11 43
M  V30 48 1 12 44
M  V30 49 1 15 45
M  V30 50 1 16 46
M  V30 51 1 20 47
M  V30 52 1 21 48
M  V30 53 1 21 49
M  V30 54 1 22 50
M  V30 55 1 22 51
M  V30 56 1 24 52
M  V30 57 1 24 53
M  V30 58 1 25 54
M  V30 59 1 25 55
M  V30 60 1 27 56
M  V30 61 1 27 57
M  V30 62 1 28 58
M  V30 63 1 28 59
M  V30 64 1 30 60
M  V30 65 1 32 61
M  V30 END BOND
M  V30 END CTAB
M  END
>  <Dataset>  (829) 
ChEMBL_Kinases

>  <Ligand_Instance>  (829) 
nan

>  <PDB_ID>  (829) 
nan

>  <Standardized_SMILES>  (829) 
Cc1ccc(C(=O)NC2CC2)cc1-c1ccc2nc(NCCN3CCOCC3)ncc2c1

>  <Name>  (829) 
nan

>  <Pocket>  (829) 
nan

>  <ATP_Site>  (829) 
nan

>  <Peripheral>  (829) 
nan

>  <Num_H_Atoms_ProtBoundConf>  (829) 
nan

>  <Num_Resolved_Atoms>  (829) 
nan

>  <Num_Not_Resolved_Atoms>  (829) 
nan

$$$$
CHEMBL385945
     RDKit          3D

  0  0  0  0  0  0  0  0  0  0999 V3000
M  V30 BEGIN CTAB
M  V30 COUNTS 59 63 0 0 0
M  V30 BEGIN ATOM
M  V30 1 C 5.404852 -3.815181 3.926552 0
M  V30 2 N 4.186149 -4.239679 3.314924 0
M  V30 3 C 3.113206 -3.277820 3.559855 0
M  V30 4 C 3.563243 -1.999706 2.878589 0
M  V30 5 N 3.583088 -2.105775 1.448698 0
M  V30 6 C 2.841648 -1.300580 0.548310 0
M  V30 7 C 1.971828 -0.321610 0.968761 0
M  V30 8 C 1.243281 0.471996 0.106310 0
M  V30 9 C 1.379599 0.290485 -1.254834 0
M  V30 10 N 0.640198 1.095107 -2.170937 0
M  V30 11 C -0.238125 2.086212 -1.644615 0
M  V30 12 N 0.160804 3.352721 -1.392060 0
M  V30 13 C -0.721438 4.263671 -0.887950 0
M  V30 14 C -2.035403 3.886909 -0.633454 0
M  V30 15 C -3.155081 4.519731 -0.143537 0
M  V30 16 C -4.168932 3.587225 -0.130950 0
M  V30 17 N -3.746834 2.401094 -0.586909 0
M  V30 18 C -4.408829 1.152366 -0.761888 0
M  V30 19 C -5.492755 0.916597 -1.583546 0
M  V30 20 C -6.045899 -0.346158 -1.664897 0
M  V30 21 C -5.482362 -1.354585 -0.903167 0
M  V30 22 C -4.391495 -1.141667 -0.069050 0
M  V30 23 S -3.700092 -2.437904 0.883112 0
M  V30 24 C -2.429943 -3.309708 0.042784 0
M  V30 25 O -3.134776 -1.927036 2.177428 0
M  V30 26 O -4.793103 -3.400524 1.237645 0
M  V30 27 C -3.841360 0.139817 0.004286 0
M  V30 28 C -2.441887 2.605772 -0.888114 0
M  V30 29 N -1.510898 1.745404 -1.391145 0
M  V30 30 C 2.246619 -0.686379 -1.724096 0
M  V30 31 C 2.949965 -1.450889 -0.815073 0
M  V30 32 C 4.474756 -3.158517 1.108074 0
M  V30 33 C 4.252982 -4.428089 1.899267 0
M  V30 34 H 5.218168 -3.080451 4.739389 0
M  V30 35 H 6.071316 -3.362568 3.164571 0
M  V30 36 H 5.981065 -4.683131 4.331001 0
M  V30 37 H 2.192941 -3.593693 3.065878 0
M  V30 38 H 3.018666 -3.070172 4.633599 0
M  V30 39 H 4.604362 -1.760480 3.225492 0
M  V30 40 H 2.941492 -1.183602 3.282871 0
M  V30 41 H 1.803460 -0.111861 2.007510 0
M  V30 42 H 0.562172 1.238496 0.436907 0
M  V30 43 H 0.760061 0.938951 -3.195366 0
M  V30 44 H -0.412671 5.274149 -0.683743 0
M  V30 45 H -3.193405 5.552277 0.162642 0
M  V30 46 H -5.200574 3.743551 0.198343 0
M  V30 47 H -5.867589 1.772431 -2.144891 0
M  V30 48 H -6.895501 -0.522340 -2.311455 0
M  V30 49 H -5.882714 -2.372629 -0.931299 0
M  V30 50 H -1.976885 -2.689680 -0.784822 0
M  V30 51 H -1.654380 -3.711164 0.718461 0
M  V30 52 H -2.898202 -4.165100 -0.487379 0
M  V30 53 H -3.000434 0.258595 0.660743 0
M  V30 54 H 2.335642 -0.809014 -2.794796 0
M  V30 55 H 3.595951 -2.180250 -1.280520 0
M  V30 56 H 4.417080 -3.461107 0.044645 0
M  V30 57 H 5.526822 -2.799835 1.257877 0
M  V30 58 H 5.053929 -5.153261 1.644121 0
M  V30 59 H 3.295091 -4.896347 1.591393 0
M  V30 END ATOM
M  V30 BEGIN BOND
M  V30 1 1 1 2
M  V30 2 1 2 3
M  V30 3 1 3 4
M  V30 4 1 4 5
M  V30 5 1 5 6
M  V30 6 2 6 7
M  V30 7 1 7 8
M  V30 8 2 8 9
M  V30 9 1 9 10
M  V30 10 1 10 11
M  V30 11 2 11 12
M  V30 12 1 12 13
M  V30 13 2 13 14
M  V30 14 1 14 15
M  V30 15 2 15 16
M  V30 16 1 16 17
M  V30 17 1 17 18
M  V30 18 2 18 19
M  V30 19 1 19 20
M  V30 20 2 20 21
M  V30 21 1 21 22
M  V30 22 1 22 23
M  V30 23 1 23 24
M  V30 24 2 23 25
M  V30 25 2 23 26
M  V30 26 2 22 27
M  V30 27 1 17 28
M  V30 28 2 28 29
M  V30 29 1 9 30
M  V30 30 2 30 31
M  V30 31 1 5 32
M  V30 32 1 32 33
M  V30 33 1 33 2
M  V30 34 1 31 6
M  V30 35 1 29 11
M  V30 36 1 28 14
M  V30 37 1 27 18
M  V30 38 1 1 34
M  V30 39 1 1 35
M  V30 40 1 1 36
M  V30 41 1 3 37
M  V30 42 1 3 38
M  V30 43 1 4 39
M  V30 44 1 4 40
M  V30 45 1 7 41
M  V30 46 1 8 42
M  V30 47 1 10 43
M  V30 48 1 13 44
M  V30 49 1 15 45
M  V30 50 1 16 46
M  V30 51 1 19 47
M  V30 52 1 20 48
M  V30 53 1 21 49
M  V30 54 1 24 50
M  V30 55 1 24 51
M  V30 56 1 24 52
M  V30 57 1 27 53
M  V30 58 1 30 54
M  V30 59 1 31 55
M  V30 60 1 32 56
M  V30 61 1 32 57
M  V30 62 1 33 58
M  V30 63 1 33 59
M  V30 END BOND
M  V30 END CTAB
M  END
>  <Dataset>  (830) 
ChEMBL_Kinases

>  <Ligand_Instance>  (830) 
nan

>  <PDB_ID>  (830) 
nan

>  <Standardized_SMILES>  (830) 
CN1CCN(c2ccc(Nc3ncc4ccn(-c5cccc(S(C)(=O)=O)c5)c4n3)cc2)CC1

>  <Name>  (830) 
nan

>  <Pocket>  (830) 
nan

>  <ATP_Site>  (830) 
nan

>  <Peripheral>  (830) 
nan

>  <Num_H_Atoms_ProtBoundConf>  (830) 
nan

>  <Num_Resolved_Atoms>  (830) 
nan

>  <Num_Not_Resolved_Atoms>  (830) 
nan

$$$$
CHEMBL385937
     RDKit          3D

  0  0  0  0  0  0  0  0  0  0999 V3000
M  V30 BEGIN CTAB
M  V30 COUNTS 48 51 0 0 0
M  V30 BEGIN ATOM
M  V30 1 C -0.489388 -3.714740 3.049014 0
M  V30 2 C 0.041148 -2.531352 2.352597 0
M  V30 3 C 1.155791 -1.916351 2.923868 0
M  V30 4 C 1.732703 -0.799909 2.351769 0
M  V30 5 C 1.201033 -0.276743 1.191516 0
M  V30 6 C 1.659925 0.884930 0.439034 0
M  V30 7 O 1.166618 1.353791 -0.619938 0
M  V30 8 N 2.777136 1.581453 0.925180 0
M  V30 9 C 3.531903 2.722248 0.524757 0
M  V30 10 C 4.620860 2.622099 -0.311050 0
M  V30 11 C 5.352266 3.736867 -0.697686 0
M  V30 12 C 4.973674 4.995046 -0.226256 0
M  V30 13 C 3.870236 5.099730 0.621138 0
M  V30 14 C 3.382347 6.390157 1.179755 0
M  V30 15 F 3.341921 6.263897 2.570642 0
M  V30 16 F 4.144558 7.456670 0.766997 0
M  V30 17 F 2.064727 6.506017 0.763031 0
M  V30 18 C 3.147845 3.980992 1.000388 0
M  V30 19 C 0.091684 -0.896215 0.630996 0
M  V30 20 C -0.504242 -2.025716 1.196150 0
M  V30 21 C -1.669378 -2.670088 0.600736 0
M  V30 22 C -1.614740 -2.856891 -0.779935 0
M  V30 23 C -2.654492 -3.460289 -1.495659 0
M  V30 24 C -3.763049 -3.877420 -0.790578 0
M  V30 25 N -4.829037 -4.474622 -1.385191 0
M  V30 26 C -5.895586 -4.866452 -0.645096 0
M  V30 27 N -6.995843 -5.489163 -1.299786 0
M  V30 28 N -5.943252 -4.684918 0.679905 0
M  V30 29 C -4.917377 -4.093634 1.359596 0
M  V30 30 C -3.831160 -3.699263 0.575440 0
M  V30 31 C -2.784699 -3.097223 1.261696 0
M  V30 32 H -1.119789 -3.466712 3.928161 0
M  V30 33 H -0.950203 -4.458319 2.361152 0
M  V30 34 H 0.381412 -4.277424 3.497971 0
M  V30 35 H 1.612718 -2.279563 3.827050 0
M  V30 36 H 2.586560 -0.273801 2.729572 0
M  V30 37 H 3.334349 1.368043 1.777485 0
M  V30 38 H 4.921108 1.647612 -0.681483 0
M  V30 39 H 6.215837 3.670371 -1.358577 0
M  V30 40 H 5.503137 5.908901 -0.490334 0
M  V30 41 H 2.287829 4.046926 1.658528 0
M  V30 42 H -0.393455 -0.558171 -0.276213 0
M  V30 43 H -0.773362 -2.550849 -1.383557 0
M  V30 44 H -2.606579 -3.602085 -2.563506 0
M  V30 45 H -7.332683 -6.367360 -0.834066 0
M  V30 46 H -7.551412 -5.258628 -2.158365 0
M  V30 47 H -4.918765 -3.928414 2.436230 0
M  V30 48 H -2.816811 -2.950649 2.311648 0
M  V30 END ATOM
M  V30 BEGIN BOND
M  V30 1 1 1 2
M  V30 2 2 2 3
M  V30 3 1 3 4
M  V30 4 2 4 5
M  V30 5 1 5 6
M  V30 6 2 6 7
M  V30 7 1 6 8
M  V30 8 1 8 9
M  V30 9 2 9 10
M  V30 10 1 10 11
M  V30 11 2 11 12
M  V30 12 1 12 13
M  V30 13 1 13 14
M  V30 14 1 14 15
M  V30 15 1 14 16
M  V30 16 1 14 17
M  V30 17 2 13 18
M  V30 18 1 5 19
M  V30 19 2 19 20
M  V30 20 1 20 21
M  V30 21 2 21 22
M  V30 22 1 22 23
M  V30 23 2 23 24
M  V30 24 1 24 25
M  V30 25 2 25 26
M  V30 26 1 26 27
M  V30 27 1 26 28
M  V30 28 2 28 29
M  V30 29 1 29 30
M  V30 30 2 30 31
M  V30 31 1 20 2
M  V30 32 1 31 21
M  V30 33 1 18 9
M  V30 34 1 30 24
M  V30 35 1 1 32
M  V30 36 1 1 33
M  V30 37 1 1 34
M  V30 38 1 3 35
M  V30 39 1 4 36
M  V30 40 1 8 37
M  V30 41 1 10 38
M  V30 42 1 11 39
M  V30 43 1 12 40
M  V30 44 1 18 41
M  V30 45 1 19 42
M  V30 46 1 22 43
M  V30 47 1 23 44
M  V30 48 1 27 45
M  V30 49 1 27 46
M  V30 50 1 29 47
M  V30 51 1 31 48
M  V30 END BOND
M  V30 END CTAB
M  END
>  <Dataset>  (831) 
ChEMBL_Kinases

>  <Ligand_Instance>  (831) 
nan

>  <PDB_ID>  (831) 
nan

>  <Standardized_SMILES>  (831) 
Cc1ccc(C(=O)Nc2cccc(C(F)(F)F)c2)cc1-c1ccc2nc(N)ncc2c1

>  <Name>  (831) 
nan

>  <Pocket>  (831) 
nan

>  <ATP_Site>  (831) 
nan

>  <Peripheral>  (831) 
nan

>  <Num_H_Atoms_ProtBoundConf>  (831) 
nan

>  <Num_Resolved_Atoms>  (831) 
nan

>  <Num_Not_Resolved_Atoms>  (831) 
nan

$$$$
CHEMBL493656
     RDKit          3D

  0  0  0  0  0  0  0  0  0  0999 V3000
M  V30 BEGIN CTAB
M  V30 COUNTS 62 66 0 0 0
M  V30 BEGIN ATOM
M  V30 1 C 3.618399 1.013381 5.054002 0
M  V30 2 O 2.367376 1.424197 5.511588 0
M  V30 3 C 2.165615 2.770140 5.394967 0
M  V30 4 C 2.165299 3.352529 4.033169 0
M  V30 5 N 1.185808 2.921872 3.115619 0
M  V30 6 C 1.259433 1.592588 2.652674 0
M  V30 7 C 0.251955 1.195865 1.641317 0
M  V30 8 N -0.233169 2.163993 0.736851 0
M  V30 9 C -1.492715 1.742362 0.209842 0
M  V30 10 C -1.497736 0.583225 -0.700938 0
M  V30 11 O -1.013120 -0.624339 -0.232340 0
M  V30 12 N -1.230363 -1.848329 -0.755495 0
M  V30 13 C -0.594265 -2.591202 -1.497257 0
M  V30 14 C -0.844570 -3.888438 -2.040927 0
M  V30 15 C -1.843558 -4.683199 -1.899256 0
M  V30 16 C -2.010293 -5.997940 -2.500195 0
M  V30 17 O -1.241874 -6.606471 -3.257851 0
M  V30 18 N -3.243967 -6.524401 -2.079070 0
M  V30 19 C -3.825517 -5.524596 -1.220266 0
M  V30 20 C -5.062665 -5.672144 -0.594664 0
M  V30 21 C -5.512819 -4.648127 0.204730 0
M  V30 22 Br -7.187553 -4.818487 1.067127 0
M  V30 23 C -4.696391 -3.530249 0.333370 0
M  V30 24 C -3.490305 -3.471214 -0.321533 0
M  V30 25 C -3.001827 -4.439252 -1.113185 0
M  V30 26 N 0.303486 -4.168350 -2.826206 0
M  V30 27 C 1.260964 -3.116608 -2.804354 0
M  V30 28 C 2.489822 -3.020147 -3.435650 0
M  V30 29 C 3.198041 -1.873008 -3.224096 0
M  V30 30 C 2.714783 -0.861694 -2.422742 0
M  V30 31 C 1.488463 -1.022958 -1.827109 0
M  V30 32 C 0.695340 -2.154512 -1.983421 0
M  V30 33 C -0.316283 3.486127 1.282592 0
M  V30 34 C 0.886064 3.889409 2.079325 0
M  V30 35 H 3.790588 1.249463 3.996328 0
M  V30 36 H 3.766639 -0.073573 5.174372 0
M  V30 37 H 4.385606 1.533569 5.693826 0
M  V30 38 H 3.029931 3.255277 5.942907 0
M  V30 39 H 1.282268 3.072649 6.008046 0
M  V30 40 H 3.193744 3.217127 3.614328 0
M  V30 41 H 2.024009 4.467350 4.166781 0
M  V30 42 H 2.272167 1.464449 2.171306 0
M  V30 43 H 1.191922 0.922706 3.561815 0
M  V30 44 H 0.669968 0.355640 1.018747 0
M  V30 45 H -0.641832 0.819094 2.224398 0
M  V30 46 H -2.237164 1.549965 1.016247 0
M  V30 47 H -1.896363 2.618984 -0.378209 0
M  V30 48 H -0.941810 0.795136 -1.658915 0
M  V30 49 H -2.560074 0.404096 -1.013485 0
M  V30 50 H -3.634730 -7.472947 -2.359448 0
M  V30 51 H -5.681184 -6.538027 -0.702019 0
M  V30 52 H -5.150308 -2.774202 0.993011 0
M  V30 53 H -3.055751 -2.557939 -0.082958 0
M  V30 54 H 0.444236 -5.049963 -3.368373 0
M  V30 55 H 2.867215 -3.810993 -4.062035 0
M  V30 56 H 4.146995 -1.799555 -3.712212 0
M  V30 57 H 3.335056 0.013192 -2.306026 0
M  V30 58 H 1.192908 -0.201632 -1.228142 0
M  V30 59 H -0.483260 4.234028 0.456638 0
M  V30 60 H -1.242767 3.537342 1.883332 0
M  V30 61 H 0.644105 4.838900 2.612105 0
M  V30 62 H 1.774845 4.057605 1.440724 0
M  V30 END ATOM
M  V30 BEGIN BOND
M  V30 1 1 1 2
M  V30 2 1 2 3
M  V30 3 1 3 4
M  V30 4 1 4 5
M  V30 5 1 5 6
M  V30 6 1 6 7
M  V30 7 1 7 8
M  V30 8 1 8 9
M  V30 9 1 9 10
M  V30 10 1 10 11
M  V30 11 1 11 12
M  V30 12 2 12 13
M  V30 13 1 13 14
M  V30 14 2 14 15
M  V30 15 1 15 16
M  V30 16 2 16 17
M  V30 17 1 16 18
M  V30 18 1 18 19
M  V30 19 2 19 20
M  V30 20 1 20 21
M  V30 21 1 21 22
M  V30 22 2 21 23
M  V30 23 1 23 24
M  V30 24 2 24 25
M  V30 25 1 14 26
M  V30 26 1 26 27
M  V30 27 2 27 28
M  V30 28 1 28 29
M  V30 29 2 29 30
M  V30 30 1 30 31
M  V30 31 2 31 32
M  V30 32 1 8 33
M  V30 33 1 33 34
M  V30 34 1 34 5
M  V30 35 1 32 13
M  V30 36 1 25 15
M  V30 37 1 32 27
M  V30 38 1 25 19
M  V30 39 1 1 35
M  V30 40 1 1 36
M  V30 41 1 1 37
M  V30 42 1 3 38
M  V30 43 1 3 39
M  V30 44 1 4 40
M  V30 45 1 4 41
M  V30 46 1 6 42
M  V30 47 1 6 43
M  V30 48 1 7 44
M  V30 49 1 7 45
M  V30 50 1 9 46
M  V30 51 1 9 47
M  V30 52 1 10 48
M  V30 53 1 10 49
M  V30 54 1 18 50
M  V30 55 1 20 51
M  V30 56 1 23 52
M  V30 57 1 24 53
M  V30 58 1 26 54
M  V30 59 1 28 55
M  V30 60 1 29 56
M  V30 61 1 30 57
M  V30 62 1 31 58
M  V30 63 1 33 59
M  V30 64 1 33 60
M  V30 65 1 34 61
M  V30 66 1 34 62
M  V30 END BOND
M  V30 END CTAB
M  END
>  <Dataset>  (832) 
ChEMBL_Kinases

>  <Ligand_Instance>  (832) 
nan

>  <PDB_ID>  (832) 
nan

>  <Standardized_SMILES>  (832) 
COCCN1CCN(CCO/N=C2C(=C3/C(=O)Nc4cc(Br)ccc43)/Nc3ccccc3/2)CC1

>  <Name>  (832) 
nan

>  <Pocket>  (832) 
nan

>  <ATP_Site>  (832) 
nan

>  <Peripheral>  (832) 
nan

>  <Num_H_Atoms_ProtBoundConf>  (832) 
nan

>  <Num_Resolved_Atoms>  (832) 
nan

>  <Num_Not_Resolved_Atoms>  (832) 
nan

$$$$
CHEMBL385905
     RDKit          3D

  0  0  0  0  0  0  0  0  0  0999 V3000
M  V30 BEGIN CTAB
M  V30 COUNTS 47 49 0 0 0
M  V30 BEGIN ATOM
M  V30 1 C -0.063319 0.187566 -3.772406 0
M  V30 2 C 0.911630 -0.729529 -3.093013 0
M  V30 3 O 0.483183 -1.049671 -1.815720 0
M  V30 4 C 2.307810 -0.098738 -3.027486 0
M  V30 5 N 2.182426 1.088096 -2.217791 0
M  V30 6 C 2.307085 1.095517 -0.938941 0
M  V30 7 N 2.581861 -0.181418 -0.393843 0
M  V30 8 C 2.206646 2.214082 -0.011954 0
M  V30 9 C 1.943304 3.405148 -0.628559 0
M  V30 10 O 1.737408 3.855316 -1.921804 0
M  V30 11 N 1.835651 4.552344 0.229246 0
M  V30 12 S 2.094407 3.956399 1.802076 0
M  V30 13 C 2.339426 2.216266 1.314156 0
M  V30 14 N 2.605610 1.135384 2.190696 0
M  V30 15 C 1.488581 0.459344 2.780598 0
M  V30 16 C 1.632661 -0.599849 3.658371 0
M  V30 17 C 0.543483 -1.237645 4.219057 0
M  V30 18 C -0.744747 -0.838265 3.921849 0
M  V30 19 O -1.928156 -1.385521 4.409787 0
M  V30 20 C -2.598693 -2.418491 3.799354 0
M  V30 21 C -2.252569 -3.085035 2.642186 0
M  V30 22 C -3.021306 -4.114626 2.131583 0
M  V30 23 Cl -2.537137 -4.919366 0.667661 0
M  V30 24 C -4.152734 -4.438031 2.843358 0
M  V30 25 C -4.560524 -3.811923 4.011706 0
M  V30 26 C -3.752093 -2.777739 4.488792 0
M  V30 27 Cl -4.317775 -2.023658 5.966359 0
M  V30 28 C -0.930415 0.224636 3.041723 0
M  V30 29 C 0.188044 0.829458 2.507910 0
M  V30 30 H -0.961493 0.276238 -3.127148 0
M  V30 31 H -0.343099 -0.162600 -4.798611 0
M  V30 32 H 0.334087 1.210559 -3.921037 0
M  V30 33 H 0.923174 -1.675322 -3.692484 0
M  V30 34 H 0.597841 -2.026191 -1.637047 0
M  V30 35 H 2.542476 0.243090 -4.068478 0
M  V30 36 H 3.043113 -0.818333 -2.679870 0
M  V30 37 H 2.642676 -0.783147 0.438256 0
M  V30 38 H 2.648419 -0.806178 0.443906 0
M  V30 39 H 1.256693 3.243104 -2.564187 0
M  V30 40 H 3.556518 0.770125 2.458872 0
M  V30 41 H 2.626211 -0.950974 3.923511 0
M  V30 42 H 0.628731 -2.063668 4.904246 0
M  V30 43 H -1.334318 -2.732790 2.175525 0
M  V30 44 H -4.740110 -5.257186 2.412444 0
M  V30 45 H -5.470766 -4.171682 4.462610 0
M  V30 46 H -1.924535 0.593443 2.761993 0
M  V30 47 H 0.034722 1.657191 1.824143 0
M  V30 END ATOM
M  V30 BEGIN BOND
M  V30 1 1 1 2
M  V30 2 1 2 3
M  V30 3 1 2 4
M  V30 4 1 4 5
M  V30 5 2 5 6
M  V30 6 1 6 7
M  V30 7 1 6 8
M  V30 8 1 8 9
M  V30 9 1 9 10
M  V30 10 2 9 11
M  V30 11 1 11 12
M  V30 12 1 12 13
M  V30 13 1 13 14
M  V30 14 1 14 15
M  V30 15 2 15 16
M  V30 16 1 16 17
M  V30 17 2 17 18
M  V30 18 1 18 19
M  V30 19 1 19 20
M  V30 20 2 20 21
M  V30 21 1 21 22
M  V30 22 1 22 23
M  V30 23 2 22 24
M  V30 24 1 24 25
M  V30 25 2 25 26
M  V30 26 1 26 27
M  V30 27 1 18 28
M  V30 28 2 28 29
M  V30 29 2 13 8
M  V30 30 1 29 15
M  V30 31 1 26 20
M  V30 32 1 1 30
M  V30 33 1 1 31
M  V30 34 1 1 32
M  V30 35 1 2 33
M  V30 36 1 3 34
M  V30 37 1 4 35
M  V30 38 1 4 36
M  V30 39 1 7 37
M  V30 40 1 7 38
M  V30 41 1 10 39
M  V30 42 1 14 40
M  V30 43 1 16 41
M  V30 44 1 17 42
M  V30 45 1 21 43
M  V30 46 1 24 44
M  V30 47 1 25 45
M  V30 48 1 28 46
M  V30 49 1 29 47
M  V30 END BOND
M  V30 END CTAB
M  END
>  <Dataset>  (833) 
ChEMBL_Kinases

>  <Ligand_Instance>  (833) 
nan

>  <PDB_ID>  (833) 
nan

>  <Standardized_SMILES>  (833) 
CC(O)C/N=C(\N)c1c(O)nsc1Nc1ccc(Oc2cc(Cl)ccc2Cl)cc1

>  <Name>  (833) 
nan

>  <Pocket>  (833) 
nan

>  <ATP_Site>  (833) 
nan

>  <Peripheral>  (833) 
nan

>  <Num_H_Atoms_ProtBoundConf>  (833) 
nan

>  <Num_Resolved_Atoms>  (833) 
nan

>  <Num_Not_Resolved_Atoms>  (833) 
nan

$$$$
CHEMBL385898
     RDKit          3D

  0  0  0  0  0  0  0  0  0  0999 V3000
M  V30 BEGIN CTAB
M  V30 COUNTS 86 90 0 0 0
M  V30 BEGIN ATOM
M  V30 1 C -2.145175 -3.077340 6.848631 0
M  V30 2 O -1.047567 -2.637203 6.084000 0
M  V30 3 C -1.157435 -1.766875 5.014083 0
M  V30 4 C -0.063939 -1.356415 4.288207 0
M  V30 5 C -0.149725 -0.494134 3.224756 0
M  V30 6 C -1.368741 0.008749 2.830485 0
M  V30 7 N -1.722422 0.905866 1.789065 0
M  V30 8 C -1.694206 2.214984 2.329728 0
M  V30 9 O -1.375669 2.086618 3.517707 0
M  V30 10 O -1.967624 3.362205 1.648524 0
M  V30 11 C -1.955008 4.652917 2.119198 0
M  V30 12 C -2.991588 5.397102 2.641059 0
M  V30 13 C -4.290514 4.687003 2.692948 0
M  V30 14 C -2.761312 6.691325 3.060792 0
M  V30 15 C -1.487429 7.262330 2.964544 0
M  V30 16 C -0.426115 6.517695 2.436429 0
M  V30 17 C -0.677882 5.207902 2.016349 0
M  V30 18 C 0.529092 4.501583 1.471002 0
M  V30 19 C -2.048401 0.489950 0.478093 0
M  V30 20 C -2.497718 1.296547 -0.537457 0
M  V30 21 C -2.784685 0.823610 -1.801475 0
M  V30 22 N -2.601412 -0.511567 -2.015804 0
M  V30 23 C -2.159057 -1.316379 -1.025274 0
M  V30 24 N -1.993242 -2.696661 -1.371934 0
M  V30 25 C -0.730378 -3.007461 -1.985073 0
M  V30 26 C -0.380756 -4.297374 -2.376425 0
M  V30 27 C 0.828082 -4.580446 -2.973048 0
M  V30 28 O 1.222365 -5.844445 -3.379548 0
M  V30 29 C 0.326746 -6.919654 -3.170753 0
M  V30 30 C 1.743205 -3.574739 -3.203589 0
M  V30 31 N 3.046661 -3.721567 -3.809946 0
M  V30 32 C 3.166788 -3.594413 -5.260006 0
M  V30 33 C 4.600220 -3.587633 -5.674270 0
M  V30 34 N 5.385735 -2.876029 -4.715804 0
M  V30 35 C 5.131803 -1.473083 -4.623522 0
M  V30 36 C 5.444534 -3.456958 -3.412271 0
M  V30 37 C 4.136901 -3.983164 -2.908293 0
M  V30 38 C 1.461187 -2.267798 -2.839384 0
M  V30 39 O 2.319237 -1.191782 -3.031111 0
M  V30 40 C 1.926454 0.094594 -2.618829 0
M  V30 41 C 0.232994 -2.064997 -2.248482 0
M  V30 42 N -1.889287 -0.817078 0.199522 0
M  V30 43 C -2.514240 -0.375550 3.532997 0
M  V30 44 O -3.811174 0.035737 3.268283 0
M  V30 45 C -4.933988 -0.382757 4.009020 0
M  V30 46 C -2.376380 -1.259076 4.613451 0
M  V30 47 H -2.404773 -2.314404 7.637489 0
M  V30 48 H -3.045865 -3.299004 6.248851 0
M  V30 49 H -1.810665 -3.987684 7.411440 0
M  V30 50 H 0.924695 -1.719136 4.552244 0
M  V30 51 H 0.655531 -0.126825 2.609670 0
M  V30 52 H -5.093575 5.477144 2.666501 0
M  V30 53 H -4.425044 3.977169 1.871225 0
M  V30 54 H -4.335265 4.229542 3.711428 0
M  V30 55 H -3.617246 7.232371 3.465757 0
M  V30 56 H -1.326895 8.276935 3.298487 0
M  V30 57 H 0.549731 6.975744 2.370006 0
M  V30 58 H 0.784704 4.987766 0.508308 0
M  V30 59 H 1.393638 4.724141 2.158884 0
M  V30 60 H 0.380380 3.417423 1.357441 0
M  V30 61 H -2.628792 2.336651 -0.332106 0
M  V30 62 H -3.139674 1.477847 -2.591917 0
M  V30 63 H -2.644858 -3.501082 -1.247279 0
M  V30 64 H -1.075472 -5.100896 -2.208688 0
M  V30 65 H -0.059585 -6.963019 -2.148072 0
M  V30 66 H 0.886145 -7.873203 -3.391969 0
M  V30 67 H -0.545625 -6.823899 -3.856557 0
M  V30 68 H 2.590775 -4.400409 -5.791127 0
M  V30 69 H 2.716721 -2.627158 -5.561031 0
M  V30 70 H 4.692910 -3.019476 -6.638825 0
M  V30 71 H 5.048487 -4.601956 -5.776913 0
M  V30 72 H 6.029443 -0.948848 -5.019206 0
M  V30 73 H 5.016772 -1.181331 -3.563454 0
M  V30 74 H 4.209781 -1.166567 -5.195939 0
M  V30 75 H 5.887207 -2.665666 -2.738816 0
M  V30 76 H 6.227698 -4.257488 -3.416050 0
M  V30 77 H 4.251493 -5.071340 -2.722267 0
M  V30 78 H 3.915608 -3.436519 -1.953737 0
M  V30 79 H 2.657458 0.868593 -2.902581 0
M  V30 80 H 0.966028 0.300842 -3.139654 0
M  V30 81 H 1.729872 0.165530 -1.524968 0
M  V30 82 H -0.006066 -1.045523 -1.955534 0
M  V30 83 H -5.812958 0.120347 3.524811 0
M  V30 84 H -4.864267 0.002309 5.057733 0
M  V30 85 H -5.037600 -1.491831 3.994231 0
M  V30 86 H -3.252309 -1.579222 5.182979 0
M  V30 END ATOM
M  V30 BEGIN BOND
M  V30 1 1 1 2
M  V30 2 1 2 3
M  V30 3 2 3 4
M  V30 4 1 4 5
M  V30 5 2 5 6
M  V30 6 1 6 7
M  V30 7 1 7 8
M  V30 8 2 8 9
M  V30 9 1 8 10
M  V30 10 1 10 11
M  V30 11 2 11 12
M  V30 12 1 12 13
M  V30 13 1 12 14
M  V30 14 2 14 15
M  V30 15 1 15 16
M  V30 16 2 16 17
M  V30 17 1 17 18
M  V30 18 1 7 19
M  V30 19 2 19 20
M  V30 20 1 20 21
M  V30 21 2 21 22
M  V30 22 1 22 23
M  V30 23 1 23 24
M  V30 24 1 24 25
M  V30 25 2 25 26
M  V30 26 1 26 27
M  V30 27 1 27 28
M  V30 28 1 28 29
M  V30 29 2 27 30
M  V30 30 1 30 31
M  V30 31 1 31 32
M  V30 32 1 32 33
M  V30 33 1 33 34
M  V30 34 1 34 35
M  V30 35 1 34 36
M  V30 36 1 36 37
M  V30 37 1 30 38
M  V30 38 1 38 39
M  V30 39 1 39 40
M  V30 40 2 38 41
M  V30 41 2 23 42
M  V30 42 1 6 43
M  V30 43 1 43 44
M  V30 44 1 44 45
M  V30 45 2 43 46
M  V30 46 1 46 3
M  V30 47 1 17 11
M  V30 48 1 42 19
M  V30 49 1 41 25
M  V30 50 1 37 31
M  V30 51 1 1 47
M  V30 52 1 1 48
M  V30 53 1 1 49
M  V30 54 1 4 50
M  V30 55 1 5 51
M  V30 56 1 13 52
M  V30 57 1 13 53
M  V30 58 1 13 54
M  V30 59 1 14 55
M  V30 60 1 15 56
M  V30 61 1 16 57
M  V30 62 1 18 58
M  V30 63 1 18 59
M  V30 64 1 18 60
M  V30 65 1 20 61
M  V30 66 1 21 62
M  V30 67 1 24 63
M  V30 68 1 26 64
M  V30 69 1 29 65
M  V30 70 1 29 66
M  V30 71 1 29 67
M  V30 72 1 32 68
M  V30 73 1 32 69
M  V30 74 1 33 70
M  V30 75 1 33 71
M  V30 76 1 35 72
M  V30 77 1 35 73
M  V30 78 1 35 74
M  V30 79 1 36 75
M  V30 80 1 36 76
M  V30 81 1 37 77
M  V30 82 1 37 78
M  V30 83 1 40 79
M  V30 84 1 40 80
M  V30 85 1 40 81
M  V30 86 1 41 82
M  V30 87 1 45 83
M  V30 88 1 45 84
M  V30 89 1 45 85
M  V30 90 1 46 86
M  V30 END BOND
M  V30 END CTAB
M  END
>  <Dataset>  (834) 
ChEMBL_Kinases

>  <Ligand_Instance>  (834) 
nan

>  <PDB_ID>  (834) 
nan

>  <Standardized_SMILES>  (834) 
COc1ccc(N(C(=O)Oc2c(C)cccc2C)c2ccnc(Nc3cc(OC)c(N4CCN(C)CC4)c(OC)c3)n2)c(OC)c1

>  <Name>  (834) 
nan

>  <Pocket>  (834) 
nan

>  <ATP_Site>  (834) 
nan

>  <Peripheral>  (834) 
nan

>  <Num_H_Atoms_ProtBoundConf>  (834) 
nan

>  <Num_Resolved_Atoms>  (834) 
nan

>  <Num_Not_Resolved_Atoms>  (834) 
nan

$$$$
CHEMBL493657
     RDKit          3D

  0  0  0  0  0  0  0  0  0  0999 V3000
M  V30 BEGIN CTAB
M  V30 COUNTS 66 70 0 0 0
M  V30 BEGIN ATOM
M  V30 1 O 2.792961 5.303187 -4.382763 0
M  V30 2 C 2.560551 4.105574 -4.582838 0
M  V30 3 N 3.305394 3.330221 -5.513483 0
M  V30 4 C 2.723540 2.012051 -5.441951 0
M  V30 5 C 3.182976 0.942264 -6.217566 0
M  V30 6 C 2.556271 -0.265678 -6.068394 0
M  V30 7 Br 3.142097 -1.754350 -7.099800 0
M  V30 8 C 1.497904 -0.363810 -5.154811 0
M  V30 9 C 1.126828 0.750087 -4.443211 0
M  V30 10 C 1.695054 1.961884 -4.538767 0
M  V30 11 C 1.548940 3.262825 -3.964774 0
M  V30 12 C 0.682178 3.596460 -3.075274 0
M  V30 13 N 0.571529 4.901536 -2.531346 0
M  V30 14 C -0.468161 4.998743 -1.565067 0
M  V30 15 C -0.882999 6.098311 -0.818210 0
M  V30 16 C -1.932152 5.859941 0.042117 0
M  V30 17 C -2.538393 4.628739 0.166753 0
M  V30 18 C -2.063360 3.598272 -0.610586 0
M  V30 19 C -1.012531 3.732119 -1.508022 0
M  V30 20 C -0.338787 2.835433 -2.418263 0
M  V30 21 N -0.686079 1.657948 -2.509694 0
M  V30 22 O -1.681784 1.076541 -1.813344 0
M  V30 23 C -1.499629 -0.012642 -0.922938 0
M  V30 24 C -2.784980 -0.422394 -0.271434 0
M  V30 25 N -2.597939 -1.539313 0.641175 0
M  V30 26 C -3.892139 -1.852320 1.212901 0
M  V30 27 C -3.817220 -3.004968 2.184789 0
M  V30 28 N -2.463618 -3.202783 2.666146 0
M  V30 29 C -1.729661 -4.044884 1.768508 0
M  V30 30 C -0.325646 -4.244967 2.276250 0
M  V30 31 O 0.431507 -5.062749 1.430532 0
M  V30 32 C 1.692928 -5.175524 1.992545 0
M  V30 33 C 2.610490 -6.045442 1.158674 0
M  V30 34 O 2.154433 -7.336216 0.994750 0
M  V30 35 C -1.868281 -1.927644 2.922469 0
M  V30 36 C -1.607920 -1.226600 1.622459 0
M  V30 37 H 4.100360 3.683068 -6.104588 0
M  V30 38 H 3.986424 1.005255 -6.915002 0
M  V30 39 H 1.072521 -1.378180 -5.119897 0
M  V30 40 H 0.335142 0.464532 -3.832289 0
M  V30 41 H 1.174101 5.708572 -2.797253 0
M  V30 42 H -0.418923 7.050835 -0.910196 0
M  V30 43 H -2.256318 6.711567 0.623121 0
M  V30 44 H -3.355712 4.533129 0.867686 0
M  V30 45 H -2.592536 2.677927 -0.449128 0
M  V30 46 H -0.684467 0.162999 -0.217625 0
M  V30 47 H -1.192031 -0.877737 -1.571204 0
M  V30 48 H -3.547749 -0.674665 -1.035865 0
M  V30 49 H -3.231105 0.385283 0.350752 0
M  V30 50 H -4.544437 -2.134324 0.360922 0
M  V30 51 H -4.283366 -0.941985 1.717342 0
M  V30 52 H -4.235016 -3.935748 1.753772 0
M  V30 53 H -4.443492 -2.743953 3.062536 0
M  V30 54 H -2.218131 -5.057979 1.834141 0
M  V30 55 H -1.774225 -3.771984 0.714012 0
M  V30 56 H -0.406097 -4.814371 3.236462 0
M  V30 57 H 0.240358 -3.326974 2.450712 0
M  V30 58 H 1.609408 -5.525662 3.027384 0
M  V30 59 H 2.161994 -4.174619 2.039984 0
M  V30 60 H 3.636123 -5.994183 1.566898 0
M  V30 61 H 2.670383 -5.603495 0.137791 0
M  V30 62 H 2.634897 -7.703203 0.196289 0
M  V30 63 H -2.630525 -1.310109 3.460766 0
M  V30 64 H -0.978595 -1.973312 3.558983 0
M  V30 65 H -1.585376 -0.122085 1.835299 0
M  V30 66 H -0.590660 -1.440703 1.218570 0
M  V30 END ATOM
M  V30 BEGIN BOND
M  V30 1 2 1 2
M  V30 2 1 2 3
M  V30 3 1 3 4
M  V30 4 2 4 5
M  V30 5 1 5 6
M  V30 6 1 6 7
M  V30 7 2 6 8
M  V30 8 1 8 9
M  V30 9 2 9 10
M  V30 10 1 10 11
M  V30 11 2 11 12
M  V30 12 1 12 13
M  V30 13 1 13 14
M  V30 14 2 14 15
M  V30 15 1 15 16
M  V30 16 2 16 17
M  V30 17 1 17 18
M  V30 18 2 18 19
M  V30 19 1 19 20
M  V30 20 2 20 21
M  V30 21 1 21 22
M  V30 22 1 22 23
M  V30 23 1 23 24
M  V30 24 1 24 25
M  V30 25 1 25 26
M  V30 26 1 26 27
M  V30 27 1 27 28
M  V30 28 1 28 29
M  V30 29 1 29 30
M  V30 30 1 30 31
M  V30 31 1 31 32
M  V30 32 1 32 33
M  V30 33 1 33 34
M  V30 34 1 28 35
M  V30 35 1 35 36
M  V30 36 1 11 2
M  V30 37 1 20 12
M  V30 38 1 36 25
M  V30 39 1 10 4
M  V30 40 1 19 14
M  V30 41 1 3 37
M  V30 42 1 5 38
M  V30 43 1 8 39
M  V30 44 1 9 40
M  V30 45 1 13 41
M  V30 46 1 15 42
M  V30 47 1 16 43
M  V30 48 1 17 44
M  V30 49 1 18 45
M  V30 50 1 23 46
M  V30 51 1 23 47
M  V30 52 1 24 48
M  V30 53 1 24 49
M  V30 54 1 26 50
M  V30 55 1 26 51
M  V30 56 1 27 52
M  V30 57 1 27 53
M  V30 58 1 29 54
M  V30 59 1 29 55
M  V30 60 1 30 56
M  V30 61 1 30 57
M  V30 62 1 32 58
M  V30 63 1 32 59
M  V30 64 1 33 60
M  V30 65 1 33 61
M  V30 66 1 34 62
M  V30 67 1 35 63
M  V30 68 1 35 64
M  V30 69 1 36 65
M  V30 70 1 36 66
M  V30 END BOND
M  V30 END CTAB
M  END
>  <Dataset>  (835) 
ChEMBL_Kinases

>  <Ligand_Instance>  (835) 
nan

>  <PDB_ID>  (835) 
nan

>  <Standardized_SMILES>  (835) 
O=C1Nc2cc(Br)ccc2/C1=C1/Nc2ccccc2/C1=N\OCCN1CCN(CCOCCO)CC1

>  <Name>  (835) 
nan

>  <Pocket>  (835) 
nan

>  <ATP_Site>  (835) 
nan

>  <Peripheral>  (835) 
nan

>  <Num_H_Atoms_ProtBoundConf>  (835) 
nan

>  <Num_Resolved_Atoms>  (835) 
nan

>  <Num_Not_Resolved_Atoms>  (835) 
nan

$$$$
CHEMBL385828
     RDKit          3D

  0  0  0  0  0  0  0  0  0  0999 V3000
M  V30 BEGIN CTAB
M  V30 COUNTS 42 46 0 0 0
M  V30 BEGIN ATOM
M  V30 1 N 1.559947 -6.657478 1.116865 0
M  V30 2 C 2.189444 -5.849740 0.074383 0
M  V30 3 C 2.495090 -4.503596 0.599985 0
M  V30 4 C 3.708240 -4.242595 1.200869 0
M  V30 5 C 3.991681 -2.992289 1.688829 0
M  V30 6 C 3.016850 -2.035252 1.547211 0
M  V30 7 C 1.766571 -2.238011 0.947541 0
M  V30 8 C 0.875470 -1.089888 0.883472 0
M  V30 9 C 1.512340 0.021434 0.319868 0
M  V30 10 C 0.819751 1.206891 0.155078 0
M  V30 11 N 1.189145 2.416577 -0.355733 0
M  V30 12 C 0.101338 3.200795 -0.264546 0
M  V30 13 C 0.027736 4.529056 -0.673051 0
M  V30 14 C -1.144508 5.240860 -0.531580 0
M  V30 15 C -2.232000 4.565440 0.034017 0
M  V30 16 O -3.407848 5.302263 0.168490 0
M  V30 17 C -2.107505 3.266465 0.416812 0
M  V30 18 C -0.965809 2.532293 0.292354 0
M  V30 19 C -0.495681 1.278925 0.550270 0
M  V30 20 C -1.124285 0.206713 1.099083 0
M  V30 21 C -0.445004 -0.974633 1.266868 0
M  V30 22 C -1.248666 -2.029746 1.873520 0
M  V30 23 O -0.944012 -3.200538 2.160750 0
M  V30 24 N -2.527832 -1.394088 2.077938 0
M  V30 25 C -2.436683 -0.060003 1.610435 0
M  V30 26 O -3.463794 0.622885 1.717870 0
M  V30 27 C 1.559953 -3.514790 0.484576 0
M  V30 28 H 2.251526 -7.206037 1.676746 0
M  V30 29 H 0.978620 -6.027201 1.746361 0
M  V30 30 H 1.577711 -5.830858 -0.847515 0
M  V30 31 H 3.146744 -6.358242 -0.201747 0
M  V30 32 H 4.484760 -5.000644 1.315128 0
M  V30 33 H 4.931866 -2.756757 2.164044 0
M  V30 34 H 3.259376 -1.049954 1.940020 0
M  V30 35 H 2.543473 0.045004 -0.015766 0
M  V30 36 H 2.137719 2.653962 -0.734742 0
M  V30 37 H 0.861551 5.049228 -1.107465 0
M  V30 38 H -1.232252 6.273063 -0.839309 0
M  V30 39 H -3.666665 5.593859 1.117751 0
M  V30 40 H -2.971865 2.854006 0.825645 0
M  V30 41 H -3.325404 -1.944532 2.516287 0
M  V30 42 H 0.617804 -3.695390 0.014101 0
M  V30 END ATOM
M  V30 BEGIN BOND
M  V30 1 1 1 2
M  V30 2 1 2 3
M  V30 3 2 3 4
M  V30 4 1 4 5
M  V30 5 2 5 6
M  V30 6 1 6 7
M  V30 7 1 7 8
M  V30 8 2 8 9
M  V30 9 1 9 10
M  V30 10 1 10 11
M  V30 11 1 11 12
M  V30 12 2 12 13
M  V30 13 1 13 14
M  V30 14 2 14 15
M  V30 15 1 15 16
M  V30 16 1 15 17
M  V30 17 2 17 18
M  V30 18 1 18 19
M  V30 19 1 19 20
M  V30 20 2 20 21
M  V30 21 1 21 22
M  V30 22 2 22 23
M  V30 23 1 22 24
M  V30 24 1 24 25
M  V30 25 2 25 26
M  V30 26 2 7 27
M  V30 27 1 27 3
M  V30 28 1 21 8
M  V30 29 2 19 10
M  V30 30 1 25 20
M  V30 31 1 18 12
M  V30 32 1 1 28
M  V30 33 1 1 29
M  V30 34 1 2 30
M  V30 35 1 2 31
M  V30 36 1 4 32
M  V30 37 1 5 33
M  V30 38 1 6 34
M  V30 39 1 9 35
M  V30 40 1 11 36
M  V30 41 1 13 37
M  V30 42 1 14 38
M  V30 43 1 16 39
M  V30 44 1 17 40
M  V30 45 1 24 41
M  V30 46 1 27 42
M  V30 END BOND
M  V30 END CTAB
M  END
>  <Dataset>  (836) 
ChEMBL_Kinases

>  <Ligand_Instance>  (836) 
nan

>  <PDB_ID>  (836) 
nan

>  <Standardized_SMILES>  (836) 
NCc1cccc(-c2cc3[nH]c4ccc(O)cc4c3c3c2C(=O)NC3=O)c1

>  <Name>  (836) 
nan

>  <Pocket>  (836) 
nan

>  <ATP_Site>  (836) 
nan

>  <Peripheral>  (836) 
nan

>  <Num_H_Atoms_ProtBoundConf>  (836) 
nan

>  <Num_Resolved_Atoms>  (836) 
nan

>  <Num_Not_Resolved_Atoms>  (836) 
nan

$$$$
CHEMBL385820
     RDKit          3D

  0  0  0  0  0  0  0  0  0  0999 V3000
M  V30 BEGIN CTAB
M  V30 COUNTS 22 23 0 0 0
M  V30 BEGIN ATOM
M  V30 1 N -0.208051 -3.038832 3.625919 0
M  V30 2 C 0.417971 -2.722042 2.692159 0
M  V30 3 C 1.174242 -2.347517 1.540273 0
M  V30 4 C 2.386681 -2.865829 1.257656 0
M  V30 5 O 3.130704 -3.807521 1.978352 0
M  V30 6 N 3.100407 -2.500895 0.129185 0
M  V30 7 S 1.900682 -1.258234 -0.634989 0
M  V30 8 C 0.720822 -1.454438 0.646149 0
M  V30 9 N -0.443422 -0.627966 0.497420 0
M  V30 10 C -0.441431 0.780506 0.685206 0
M  V30 11 C -0.852748 1.377780 -0.514869 0
M  V30 12 C -0.954939 2.754709 -0.673941 0
M  V30 13 C -0.632383 3.560605 0.410465 0
M  V30 14 Cl -0.726683 5.289693 0.299653 0
M  V30 15 C -0.226893 2.990879 1.594985 0
M  V30 16 C -0.134012 1.625419 1.728903 0
M  V30 17 Cl 0.360342 0.717246 3.152065 0
M  V30 18 H 4.022048 -3.549136 2.409584 0
M  V30 19 H -1.350323 -1.109050 0.228579 0
M  V30 20 H -1.141344 0.883302 -1.458768 0
M  V30 21 H -1.265418 3.265330 -1.569609 0
M  V30 22 H 0.050274 3.528409 2.491882 0
M  V30 END ATOM
M  V30 BEGIN BOND
M  V30 1 3 1 2
M  V30 2 1 2 3
M  V30 3 1 3 4
M  V30 4 1 4 5
M  V30 5 2 4 6
M  V30 6 1 6 7
M  V30 7 1 7 8
M  V30 8 1 8 9
M  V30 9 1 9 10
M  V30 10 2 10 11
M  V30 11 1 11 12
M  V30 12 2 12 13
M  V30 13 1 13 14
M  V30 14 1 13 15
M  V30 15 2 15 16
M  V30 16 1 16 17
M  V30 17 2 8 3
M  V30 18 1 16 10
M  V30 19 1 5 18
M  V30 20 1 9 19
M  V30 21 1 11 20
M  V30 22 1 12 21
M  V30 23 1 15 22
M  V30 END BOND
M  V30 END CTAB
M  END
>  <Dataset>  (837) 
ChEMBL_Kinases

>  <Ligand_Instance>  (837) 
nan

>  <PDB_ID>  (837) 
nan

>  <Standardized_SMILES>  (837) 
N#Cc1c(O)nsc1Nc1ccc(Cl)cc1Cl

>  <Name>  (837) 
nan

>  <Pocket>  (837) 
nan

>  <ATP_Site>  (837) 
nan

>  <Peripheral>  (837) 
nan

>  <Num_H_Atoms_ProtBoundConf>  (837) 
nan

>  <Num_Resolved_Atoms>  (837) 
nan

>  <Num_Not_Resolved_Atoms>  (837) 
nan

$$$$
CHEMBL385744
     RDKit          3D

  0  0  0  0  0  0  0  0  0  0999 V3000
M  V30 BEGIN CTAB
M  V30 COUNTS 55 59 0 0 0
M  V30 BEGIN ATOM
M  V30 1 C 1.076625 -0.271987 1.303625 0
M  V30 2 C 2.079640 -0.967646 0.667959 0
M  V30 3 C 3.373786 -0.929175 1.138201 0
M  V30 4 N 4.401410 -1.652800 0.475648 0
M  V30 5 C 4.190660 -2.680194 -0.517672 0
M  V30 6 C 4.716373 -2.251572 -1.885233 0
M  V30 7 O 5.775754 -1.361903 -1.662488 0
M  V30 8 C 6.540886 -1.784482 -0.572172 0
M  V30 9 C 5.823309 -1.443085 0.704344 0
M  V30 10 C 3.652005 -0.180037 2.260900 0
M  V30 11 C 2.619851 0.524128 2.898760 0
M  V30 12 C 1.297367 0.491102 2.424623 0
M  V30 13 N 0.309100 1.278943 3.104632 0
M  V30 14 C -0.962413 1.549881 2.531079 0
M  V30 15 N -1.238423 2.847761 2.715332 0
M  V30 16 C -2.392833 3.420331 2.265600 0
M  V30 17 C -3.318370 2.635147 1.592183 0
M  V30 18 C -4.562609 2.810674 0.992257 0
M  V30 19 C -4.947220 1.591081 0.485654 0
M  V30 20 N -3.994189 0.665695 0.746729 0
M  V30 21 C -4.200693 -0.679940 0.307160 0
M  V30 22 C -3.369719 -1.721216 0.979170 0
M  V30 23 C -3.384474 -3.042776 0.258005 0
M  V30 24 C -3.075862 -2.912597 -1.200889 0
M  V30 25 C -4.196694 -2.093888 -1.800357 0
M  V30 26 C -4.156154 -0.737792 -1.193742 0
M  V30 27 C -3.013766 1.293683 1.411614 0
M  V30 28 N -1.844265 0.794090 1.887491 0
M  V30 29 H 0.059721 -0.294018 0.945181 0
M  V30 30 H 1.774547 -1.526575 -0.204723 0
M  V30 31 H 3.146883 -2.973545 -0.657074 0
M  V30 32 H 4.771682 -3.618730 -0.272913 0
M  V30 33 H 5.065560 -3.139109 -2.461172 0
M  V30 34 H 3.930458 -1.769153 -2.492774 0
M  V30 35 H 7.489650 -1.195303 -0.590157 0
M  V30 36 H 6.715534 -2.876710 -0.581530 0
M  V30 37 H 6.184168 -2.008906 1.559691 0
M  V30 38 H 6.023778 -0.344668 0.875857 0
M  V30 39 H 4.667262 -0.105748 2.680290 0
M  V30 40 H 2.864533 1.114343 3.793430 0
M  V30 41 H 0.581102 1.638559 4.060012 0
M  V30 42 H -2.714972 4.460088 2.360098 0
M  V30 43 H -5.065386 3.761875 0.970030 0
M  V30 44 H -5.905914 1.518009 -0.031986 0
M  V30 45 H -5.266112 -0.944814 0.588601 0
M  V30 46 H -3.666447 -1.905226 2.027939 0
M  V30 47 H -2.320413 -1.375018 0.991036 0
M  V30 48 H -2.712920 -3.792736 0.704101 0
M  V30 49 H -4.406314 -3.477755 0.309045 0
M  V30 50 H -3.049759 -3.942628 -1.620601 0
M  V30 51 H -2.132282 -2.375805 -1.348291 0
M  V30 52 H -3.948142 -1.966505 -2.894644 0
M  V30 53 H -5.194687 -2.595552 -1.697560 0
M  V30 54 H -3.192512 -0.275101 -1.565100 0
M  V30 55 H -4.953021 -0.121629 -1.657956 0
M  V30 END ATOM
M  V30 BEGIN BOND
M  V30 1 2 1 2
M  V30 2 1 2 3
M  V30 3 1 3 4
M  V30 4 1 4 5
M  V30 5 1 5 6
M  V30 6 1 6 7
M  V30 7 1 7 8
M  V30 8 1 8 9
M  V30 9 2 3 10
M  V30 10 1 10 11
M  V30 11 2 11 12
M  V30 12 1 12 13
M  V30 13 1 13 14
M  V30 14 2 14 15
M  V30 15 1 15 16
M  V30 16 2 16 17
M  V30 17 1 17 18
M  V30 18 2 18 19
M  V30 19 1 19 20
M  V30 20 1 20 21
M  V30 21 1 21 22
M  V30 22 1 22 23
M  V30 23 1 23 24
M  V30 24 1 24 25
M  V30 25 1 25 26
M  V30 26 1 20 27
M  V30 27 2 27 28
M  V30 28 1 12 1
M  V30 29 1 28 14
M  V30 30 1 9 4
M  V30 31 1 27 17
M  V30 32 1 26 21
M  V30 33 1 1 29
M  V30 34 1 2 30
M  V30 35 1 5 31
M  V30 36 1 5 32
M  V30 37 1 6 33
M  V30 38 1 6 34
M  V30 39 1 8 35
M  V30 40 1 8 36
M  V30 41 1 9 37
M  V30 42 1 9 38
M  V30 43 1 10 39
M  V30 44 1 11 40
M  V30 45 1 13 41
M  V30 46 1 16 42
M  V30 47 1 18 43
M  V30 48 1 19 44
M  V30 49 1 21 45
M  V30 50 1 22 46
M  V30 51 1 22 47
M  V30 52 1 23 48
M  V30 53 1 23 49
M  V30 54 1 24 50
M  V30 55 1 24 51
M  V30 56 1 25 52
M  V30 57 1 25 53
M  V30 58 1 26 54
M  V30 59 1 26 55
M  V30 END BOND
M  V30 END CTAB
M  END
>  <Dataset>  (838) 
ChEMBL_Kinases

>  <Ligand_Instance>  (838) 
nan

>  <PDB_ID>  (838) 
nan

>  <Standardized_SMILES>  (838) 
c1cc(N2CCOCC2)ccc1Nc1ncc2ccn(C3CCCCC3)c2n1

>  <Name>  (838) 
nan

>  <Pocket>  (838) 
nan

>  <ATP_Site>  (838) 
nan

>  <Peripheral>  (838) 
nan

>  <Num_H_Atoms_ProtBoundConf>  (838) 
nan

>  <Num_Resolved_Atoms>  (838) 
nan

>  <Num_Not_Resolved_Atoms>  (838) 
nan

$$$$
CHEMBL493707
     RDKit          3D

  0  0  0  0  0  0  0  0  0  0999 V3000
M  V30 BEGIN CTAB
M  V30 COUNTS 50 54 0 0 0
M  V30 BEGIN ATOM
M  V30 1 C 1.881956 -1.709639 -2.939587 0
M  V30 2 C 2.867637 -0.787236 -2.315174 0
M  V30 3 C 4.019092 -0.387191 -2.963759 0
M  V30 4 C 4.916832 0.463414 -2.373691 0
M  V30 5 C 4.625499 0.904302 -1.106935 0
M  V30 6 C 5.298285 1.749173 -0.242874 0
M  V30 7 N 6.532094 2.427358 -0.430330 0
M  V30 8 N 4.582288 1.864228 0.900417 0
M  V30 9 N 3.482951 1.128359 0.799756 0
M  V30 10 C 3.485441 0.527323 -0.425907 0
M  V30 11 C 2.572192 -0.341443 -1.033221 0
M  V30 12 C 1.397447 -0.692459 -0.255387 0
M  V30 13 C 0.216487 0.044172 -0.304356 0
M  V30 14 C -0.844724 -0.374820 0.475986 0
M  V30 15 C -0.677638 -1.490583 1.254347 0
M  V30 16 C -1.778850 -1.847426 2.004666 0
M  V30 17 N -3.047944 -1.204205 2.065116 0
M  V30 18 C -4.045439 -0.941347 1.016010 0
M  V30 19 C -5.219316 -1.872995 1.309589 0
M  V30 20 O -5.333181 -2.116157 2.677676 0
M  V30 21 C -4.998453 -0.985160 3.424895 0
M  V30 22 C -3.514655 -0.685903 3.360407 0 CFG=2
M  V30 23 C -3.355643 0.821796 3.429589 0
M  V30 24 N -1.642947 -2.955426 2.790659 0
M  V30 25 N -0.524311 -3.652113 2.836234 0
M  V30 26 C 0.587565 -3.363525 2.133333 0
M  V30 27 C 0.470277 -2.252338 1.336830 0
M  V30 28 C 1.523160 -1.821428 0.551013 0
M  V30 29 H 1.078683 -1.141664 -3.466670 0
M  V30 30 H 1.517296 -2.503923 -2.280293 0
M  V30 31 H 2.414602 -2.256447 -3.773691 0
M  V30 32 H 4.199773 -0.767825 -3.967430 0
M  V30 33 H 5.823170 0.789208 -2.862017 0
M  V30 34 H 7.449815 1.910808 -0.436097 0
M  V30 35 H 6.855812 3.394508 -0.582835 0
M  V30 36 H 2.735870 1.026615 1.541552 0
M  V30 37 H 0.172461 0.905818 -0.942354 0
M  V30 38 H -1.765191 0.190313 0.444714 0
M  V30 39 H -3.639672 -1.249903 0.030568 0
M  V30 40 H -4.353409 0.113459 1.017565 0
M  V30 41 H -5.005299 -2.852791 0.835739 0
M  V30 42 H -6.146404 -1.429376 0.875348 0
M  V30 43 H -5.329824 -1.187625 4.464124 0
M  V30 44 H -5.557249 -0.114899 3.066797 0
M  V30 45 H -3.006574 -1.176402 4.214568 0
M  V30 46 H -4.238133 1.355906 3.011801 0
M  V30 47 H -3.234448 1.167039 4.467666 0
M  V30 48 H -2.488676 1.072977 2.768312 0
M  V30 49 H 1.494101 -3.947720 2.185213 0
M  V30 50 H 2.448716 -2.388243 0.581380 0
M  V30 END ATOM
M  V30 BEGIN BOND
M  V30 1 1 1 2
M  V30 2 2 2 3
M  V30 3 1 3 4
M  V30 4 2 4 5
M  V30 5 1 5 6
M  V30 6 1 6 7
M  V30 7 2 6 8
M  V30 8 1 8 9
M  V30 9 1 9 10
M  V30 10 2 10 11
M  V30 11 1 11 12
M  V30 12 2 12 13
M  V30 13 1 13 14
M  V30 14 2 14 15
M  V30 15 1 15 16
M  V30 16 1 16 17
M  V30 17 1 17 18
M  V30 18 1 18 19
M  V30 19 1 19 20
M  V30 20 1 20 21
M  V30 21 1 21 22
M  V30 22 1 22 23
M  V30 23 2 16 24
M  V30 24 1 24 25
M  V30 25 2 25 26
M  V30 26 1 26 27
M  V30 27 2 27 28
M  V30 28 1 11 2
M  V30 29 1 28 12
M  V30 30 1 10 5
M  V30 31 1 27 15
M  V30 32 1 22 17
M  V30 33 1 1 29
M  V30 34 1 1 30
M  V30 35 1 1 31
M  V30 36 1 3 32
M  V30 37 1 4 33
M  V30 38 1 7 34
M  V30 39 1 7 35
M  V30 40 1 9 36
M  V30 41 1 13 37
M  V30 42 1 14 38
M  V30 43 1 18 39
M  V30 44 1 18 40
M  V30 45 1 19 41
M  V30 46 1 19 42
M  V30 47 1 21 43
M  V30 48 1 21 44
M  V30 49 1 22 45 CFG=1
M  V30 50 1 23 46
M  V30 51 1 23 47
M  V30 52 1 23 48
M  V30 53 1 26 49
M  V30 54 1 28 50
M  V30 END BOND
M  V30 END CTAB
M  END
>  <Dataset>  (839) 
ChEMBL_Kinases

>  <Ligand_Instance>  (839) 
nan

>  <PDB_ID>  (839) 
nan

>  <Standardized_SMILES>  (839) 
Cc1ccc2c(N)n[nH]c2c1-c1ccc2c(N3CCOC[C@@H]3C)nncc2c1

>  <Name>  (839) 
nan

>  <Pocket>  (839) 
nan

>  <ATP_Site>  (839) 
nan

>  <Peripheral>  (839) 
nan

>  <Num_H_Atoms_ProtBoundConf>  (839) 
nan

>  <Num_Resolved_Atoms>  (839) 
nan

>  <Num_Not_Resolved_Atoms>  (839) 
nan

$$$$
CHEMBL595332
     RDKit          3D

  0  0  0  0  0  0  0  0  0  0999 V3000
M  V30 BEGIN CTAB
M  V30 COUNTS 44 47 0 0 0
M  V30 BEGIN ATOM
M  V30 1 C 2.253081 -3.171561 -1.052286 0
M  V30 2 N 1.465004 -2.871550 0.122690 0
M  V30 3 C 0.961822 -1.639109 0.245212 0
M  V30 4 C 0.984007 -0.423232 -0.526091 0
M  V30 5 C 1.554795 0.742513 -0.049803 0
M  V30 6 C 1.542408 1.877973 -0.843288 0
M  V30 7 C 0.972782 1.879605 -2.104643 0
M  V30 8 N 0.964557 3.002085 -2.880110 0
M  V30 9 C 0.387671 2.943586 -4.116928 0
M  V30 10 C -0.190627 1.784964 -4.614664 0
M  V30 11 N -0.179691 0.668511 -3.837245 0
M  V30 12 C 0.388579 0.716323 -2.612293 0
M  V30 13 C 0.426330 -0.387375 -1.784101 0
M  V30 14 C 0.256158 -1.615433 1.445046 0
M  V30 15 C -0.532138 -0.664760 2.227956 0
M  V30 16 C -1.711832 -0.132416 1.701376 0
M  V30 17 C -2.446119 0.765519 2.454297 0
M  V30 18 C -1.995088 1.111553 3.703814 0
M  V30 19 C -0.841387 0.610296 4.255682 0
M  V30 20 C -0.380141 1.003533 5.608552 0
M  V30 21 O 0.447590 2.122935 5.515699 0
M  V30 22 C -0.119078 -0.286997 3.488368 0
M  V30 23 C 0.378914 -2.892109 2.003719 0
M  V30 24 O -0.049938 -3.423980 3.062321 0
M  V30 25 N 1.130976 -3.636609 1.158750 0
M  V30 26 C 1.576752 -5.022976 1.227868 0
M  V30 27 H 3.243743 -2.648688 -1.030031 0
M  V30 28 H 2.529336 -4.252504 -0.999981 0
M  V30 29 H 1.706910 -3.055096 -1.996447 0
M  V30 30 H 1.991369 0.708862 0.938693 0
M  V30 31 H 1.994489 2.766647 -0.442643 0
M  V30 32 H 0.433937 3.890569 -4.653387 0
M  V30 33 H -0.626172 1.828830 -5.607802 0
M  V30 34 H -0.013481 -1.285930 -2.150810 0
M  V30 35 H -2.053017 -0.417047 0.712604 0
M  V30 36 H -3.376129 1.217031 2.100046 0
M  V30 37 H -2.586168 1.827277 4.296377 0
M  V30 38 H 0.156276 0.173736 6.114937 0
M  V30 39 H -1.280177 1.327030 6.185614 0
M  V30 40 H 0.087828 2.909696 5.954464 0
M  V30 41 H 0.797631 -0.712809 3.874372 0
M  V30 42 H 1.374336 -5.528977 0.261012 0
M  V30 43 H 1.099395 -5.526464 2.093649 0
M  V30 44 H 2.672391 -4.954271 1.427023 0
M  V30 END ATOM
M  V30 BEGIN BOND
M  V30 1 1 1 2
M  V30 2 1 2 3
M  V30 3 1 3 4
M  V30 4 2 4 5
M  V30 5 1 5 6
M  V30 6 2 6 7
M  V30 7 1 7 8
M  V30 8 2 8 9
M  V30 9 1 9 10
M  V30 10 2 10 11
M  V30 11 1 11 12
M  V30 12 2 12 13
M  V30 13 2 3 14
M  V30 14 1 14 15
M  V30 15 2 15 16
M  V30 16 1 16 17
M  V30 17 2 17 18
M  V30 18 1 18 19
M  V30 19 1 19 20
M  V30 20 1 20 21
M  V30 21 2 19 22
M  V30 22 1 14 23
M  V30 23 2 23 24
M  V30 24 1 23 25
M  V30 25 1 25 26
M  V30 26 1 25 2
M  V30 27 1 13 4
M  V30 28 1 22 15
M  V30 29 1 12 7
M  V30 30 1 1 27
M  V30 31 1 1 28
M  V30 32 1 1 29
M  V30 33 1 5 30
M  V30 34 1 6 31
M  V30 35 1 9 32
M  V30 36 1 10 33
M  V30 37 1 13 34
M  V30 38 1 16 35
M  V30 39 1 17 36
M  V30 40 1 18 37
M  V30 41 1 20 38
M  V30 42 1 20 39
M  V30 43 1 21 40
M  V30 44 1 22 41
M  V30 45 1 26 42
M  V30 46 1 26 43
M  V30 47 1 26 44
M  V30 END BOND
M  V30 END CTAB
M  END
>  <Dataset>  (840) 
ChEMBL_Kinases

>  <Ligand_Instance>  (840) 
nan

>  <PDB_ID>  (840) 
nan

>  <Standardized_SMILES>  (840) 
Cn1c(-c2ccc3nccnc3c2)c(-c2cccc(CO)c2)c(=O)n1C

>  <Name>  (840) 
nan

>  <Pocket>  (840) 
nan

>  <ATP_Site>  (840) 
nan

>  <Peripheral>  (840) 
nan

>  <Num_H_Atoms_ProtBoundConf>  (840) 
nan

>  <Num_Resolved_Atoms>  (840) 
nan

>  <Num_Not_Resolved_Atoms>  (840) 
nan

$$$$
CHEMBL387267
     RDKit          3D

  0  0  0  0  0  0  0  0  0  0999 V3000
M  V30 BEGIN CTAB
M  V30 COUNTS 60 65 0 0 0
M  V30 BEGIN ATOM
M  V30 1 C 0.800844 -2.644058 3.779220 0
M  V30 2 N 1.832271 -3.489172 4.316347 0
M  V30 3 C 2.998069 -2.729457 4.725648 0
M  V30 4 C 3.632808 -2.026104 3.556689 0
M  V30 5 N 3.233227 -2.595319 2.283264 0
M  V30 6 C 2.866925 -1.875744 1.129840 0
M  V30 7 C 2.412850 -0.579440 1.183348 0
M  V30 8 C 2.044296 0.180448 0.074023 0
M  V30 9 C 2.136516 -0.397455 -1.181263 0
M  V30 10 N 1.754681 0.291364 -2.382795 0
M  V30 11 C 1.174358 1.568524 -2.075955 0
M  V30 12 N 1.662733 2.844842 -2.121999 0
M  V30 13 C 0.836706 3.858765 -1.724938 0
M  V30 14 C -0.449306 3.620801 -1.289486 0
M  V30 15 C -1.446288 4.431023 -0.847569 0
M  V30 16 C -2.468446 3.578367 -0.565398 0
M  V30 17 N -2.195171 2.300044 -0.793174 0
M  V30 18 C -2.932593 1.090511 -0.640903 0
M  V30 19 C -4.167499 0.968890 -1.475493 0
M  V30 20 C -4.453908 -0.500415 -1.271513 0
M  V30 21 C -5.577093 -1.296668 -1.226745 0
M  V30 22 C -5.535244 -2.660830 -1.012991 0
M  V30 23 C -4.282580 -3.214135 -0.839501 0
M  V30 24 C -3.085970 -2.505419 -0.865335 0
M  V30 25 C -3.256370 -1.157629 -1.085975 0
M  V30 26 C -2.164773 -0.118595 -1.174430 0
M  V30 27 C -0.903770 2.340032 -1.256205 0
M  V30 28 N -0.080111 1.345187 -1.650559 0
M  V30 29 C 2.589709 -1.697904 -1.272942 0
M  V30 30 C 2.941175 -2.399445 -0.121613 0
M  V30 31 C 3.234640 -4.053946 2.362268 0
M  V30 32 C 2.170653 -4.515727 3.352162 0
M  V30 33 H 1.143767 -1.587959 3.709814 0
M  V30 34 H -0.069451 -2.666757 4.492370 0
M  V30 35 H 0.417004 -2.931888 2.799631 0
M  V30 36 H 3.720011 -3.484262 5.127932 0
M  V30 37 H 2.654113 -2.008248 5.504430 0
M  V30 38 H 3.419343 -0.944074 3.539885 0
M  V30 39 H 4.748089 -2.182417 3.602245 0
M  V30 40 H 2.307093 -0.050160 2.115482 0
M  V30 41 H 1.693771 1.196585 0.182122 0
M  V30 42 H 1.915170 -0.147756 -3.300224 0
M  V30 43 H 1.285972 4.836731 -1.788566 0
M  V30 44 H -1.386662 5.509515 -0.760513 0
M  V30 45 H -3.454215 3.856113 -0.181006 0
M  V30 46 H -3.183366 0.853732 0.416626 0
M  V30 47 H -3.887422 1.089372 -2.531760 0
M  V30 48 H -5.024209 1.580542 -1.143190 0
M  V30 49 H -6.558139 -0.811255 -1.370991 0
M  V30 50 H -6.443146 -3.246661 -0.986490 0
M  V30 51 H -4.220929 -4.301256 -0.666431 0
M  V30 52 H -2.125592 -2.974100 -0.726483 0
M  V30 53 H -1.976753 0.059993 -2.251798 0
M  V30 54 H -1.295539 -0.387964 -0.576599 0
M  V30 55 H 2.659317 -2.138055 -2.262444 0
M  V30 56 H 3.282076 -3.400074 -0.322918 0
M  V30 57 H 3.041662 -4.487899 1.356097 0
M  V30 58 H 4.221230 -4.355856 2.758950 0
M  V30 59 H 1.233435 -4.739996 2.799157 0
M  V30 60 H 2.516707 -5.442246 3.843518 0
M  V30 END ATOM
M  V30 BEGIN BOND
M  V30 1 1 1 2
M  V30 2 1 2 3
M  V30 3 1 3 4
M  V30 4 1 4 5
M  V30 5 1 5 6
M  V30 6 2 6 7
M  V30 7 1 7 8
M  V30 8 2 8 9
M  V30 9 1 9 10
M  V30 10 1 10 11
M  V30 11 2 11 12
M  V30 12 1 12 13
M  V30 13 2 13 14
M  V30 14 1 14 15
M  V30 15 2 15 16
M  V30 16 1 16 17
M  V30 17 1 17 18
M  V30 18 1 18 19
M  V30 19 1 19 20
M  V30 20 2 20 21
M  V30 21 1 21 22
M  V30 22 2 22 23
M  V30 23 1 23 24
M  V30 24 2 24 25
M  V30 25 1 25 26
M  V30 26 1 17 27
M  V30 27 2 27 28
M  V30 28 1 9 29
M  V30 29 2 29 30
M  V30 30 1 5 31
M  V30 31 1 31 32
M  V30 32 1 32 2
M  V30 33 1 30 6
M  V30 34 1 28 11
M  V30 35 1 27 14
M  V30 36 1 26 18
M  V30 37 1 25 20
M  V30 38 1 1 33
M  V30 39 1 1 34
M  V30 40 1 1 35
M  V30 41 1 3 36
M  V30 42 1 3 37
M  V30 43 1 4 38
M  V30 44 1 4 39
M  V30 45 1 7 40
M  V30 46 1 8 41
M  V30 47 1 10 42
M  V30 48 1 13 43
M  V30 49 1 15 44
M  V30 50 1 16 45
M  V30 51 1 18 46
M  V30 52 1 19 47
M  V30 53 1 19 48
M  V30 54 1 21 49
M  V30 55 1 22 50
M  V30 56 1 23 51
M  V30 57 1 24 52
M  V30 58 1 26 53
M  V30 59 1 26 54
M  V30 60 1 29 55
M  V30 61 1 30 56
M  V30 62 1 31 57
M  V30 63 1 31 58
M  V30 64 1 32 59
M  V30 65 1 32 60
M  V30 END BOND
M  V30 END CTAB
M  END
>  <Dataset>  (841) 
ChEMBL_Kinases

>  <Ligand_Instance>  (841) 
nan

>  <PDB_ID>  (841) 
nan

>  <Standardized_SMILES>  (841) 
CN1CCN(c2ccc(Nc3ncc4ccn(C5Cc6ccccc6C5)c4n3)cc2)CC1

>  <Name>  (841) 
nan

>  <Pocket>  (841) 
nan

>  <ATP_Site>  (841) 
nan

>  <Peripheral>  (841) 
nan

>  <Num_H_Atoms_ProtBoundConf>  (841) 
nan

>  <Num_Resolved_Atoms>  (841) 
nan

>  <Num_Not_Resolved_Atoms>  (841) 
nan

$$$$
CHEMBL493044
     RDKit          3D

  0  0  0  0  0  0  0  0  0  0999 V3000
M  V30 BEGIN CTAB
M  V30 COUNTS 52 53 0 0 0
M  V30 BEGIN ATOM
M  V30 1 C -1.392536 2.976144 3.735081 0
M  V30 2 N -0.483849 1.800550 3.559368 0
M  V30 3 C -0.976463 0.808064 4.452390 0
M  V30 4 C -0.088775 -0.329121 4.808331 0
M  V30 5 C 0.388584 -1.162574 3.709265 0
M  V30 6 C -0.362766 -2.215447 3.178176 0
M  V30 7 C 0.170656 -3.007108 2.161050 0
M  V30 8 C 1.437249 -2.794459 1.641660 0
M  V30 9 Cl 2.107414 -3.788659 0.365359 0
M  V30 10 C 2.193564 -1.769578 2.144261 0
M  V30 11 Cl 3.806070 -1.409855 1.563586 0
M  V30 12 C 1.655494 -0.990049 3.152575 0
M  V30 13 C -0.685238 1.443310 2.128720 0
M  V30 14 C -0.070660 2.450381 1.238454 0 CFG=1
M  V30 15 O 1.332670 2.500721 1.440921 0
M  V30 16 C -0.433044 2.479964 -0.188850 0
M  V30 17 O -0.024729 1.513585 -1.042440 0
M  V30 18 C -0.200760 0.194422 -1.239659 0
M  V30 19 C -0.930332 -0.816006 -0.645218 0
M  V30 20 C -0.880805 -2.109972 -1.112880 0
M  V30 21 C -0.082600 -2.445307 -2.214628 0
M  V30 22 N -0.191555 -3.825993 -2.518120 0
M  V30 23 S -0.353544 -4.456397 -4.131324 0
M  V30 24 C 1.055337 -4.066237 -5.139962 0
M  V30 25 O -0.511125 -5.931421 -4.094822 0
M  V30 26 O -1.611433 -3.882825 -4.766193 0
M  V30 27 C 0.662424 -1.467983 -2.837389 0
M  V30 28 C 0.587627 -0.177902 -2.339721 0
M  V30 29 H -2.127168 2.769526 4.563176 0
M  V30 30 H -0.741943 3.827345 3.996808 0
M  V30 31 H -1.985718 3.147147 2.821048 0
M  V30 32 H -1.322289 1.274086 5.431788 0
M  V30 33 H -1.959151 0.388934 4.051839 0
M  V30 34 H 0.806669 0.008121 5.404845 0
M  V30 35 H -0.598727 -1.035930 5.531358 0
M  V30 36 H -1.344746 -2.365322 3.593959 0
M  V30 37 H -0.415467 -3.827803 1.747150 0
M  V30 38 H 2.228146 -0.182526 3.562920 0
M  V30 39 H -1.806227 1.469379 1.933839 0
M  V30 40 H -0.398248 0.420486 2.013487 0
M  V30 41 H -0.386964 3.472674 1.648495 0
M  V30 42 H 1.436334 2.362217 2.437495 0
M  V30 43 H -1.550136 2.700676 -0.246365 0
M  V30 44 H -0.012858 3.471439 -0.589663 0
M  V30 45 H -1.514648 -0.469531 0.173554 0
M  V30 46 H -1.517032 -2.782176 -0.531797 0
M  V30 47 H -0.171943 -4.542623 -1.729311 0
M  V30 48 H 0.878840 -3.238498 -5.852726 0
M  V30 49 H 1.280395 -4.948937 -5.812442 0
M  V30 50 H 1.984140 -3.958609 -4.537177 0
M  V30 51 H 1.241119 -1.830635 -3.672257 0
M  V30 52 H 1.245090 0.453767 -2.964328 0
M  V30 END ATOM
M  V30 BEGIN BOND
M  V30 1 1 1 2
M  V30 2 1 2 3
M  V30 3 1 3 4
M  V30 4 1 4 5
M  V30 5 2 5 6
M  V30 6 1 6 7
M  V30 7 2 7 8
M  V30 8 1 8 9
M  V30 9 1 8 10
M  V30 10 1 10 11
M  V30 11 2 10 12
M  V30 12 1 2 13
M  V30 13 1 13 14
M  V30 14 1 14 15
M  V30 15 1 14 16
M  V30 16 1 16 17
M  V30 17 1 17 18
M  V30 18 2 18 19
M  V30 19 1 19 20
M  V30 20 2 20 21
M  V30 21 1 21 22
M  V30 22 1 22 23
M  V30 23 1 23 24
M  V30 24 2 23 25
M  V30 25 2 23 26
M  V30 26 1 21 27
M  V30 27 2 27 28
M  V30 28 1 12 5
M  V30 29 1 28 18
M  V30 30 1 1 29
M  V30 31 1 1 30
M  V30 32 1 1 31
M  V30 33 1 3 32
M  V30 34 1 3 33
M  V30 35 1 4 34
M  V30 36 1 4 35
M  V30 37 1 6 36
M  V30 38 1 7 37
M  V30 39 1 12 38
M  V30 40 1 13 39
M  V30 41 1 13 40
M  V30 42 1 14 41 CFG=1
M  V30 43 1 15 42
M  V30 44 1 16 43
M  V30 45 1 16 44
M  V30 46 1 19 45
M  V30 47 1 20 46
M  V30 48 1 22 47
M  V30 49 1 24 48
M  V30 50 1 24 49
M  V30 51 1 24 50
M  V30 52 1 27 51
M  V30 53 1 28 52
M  V30 END BOND
M  V30 END CTAB
M  END
>  <Dataset>  (842) 
ChEMBL_Kinases

>  <Ligand_Instance>  (842) 
nan

>  <PDB_ID>  (842) 
nan

>  <Standardized_SMILES>  (842) 
CN(CCc1ccc(Cl)c(Cl)c1)C[C@@H](O)COc1ccc(NS(C)(=O)=O)cc1

>  <Name>  (842) 
nan

>  <Pocket>  (842) 
nan

>  <ATP_Site>  (842) 
nan

>  <Peripheral>  (842) 
nan

>  <Num_H_Atoms_ProtBoundConf>  (842) 
nan

>  <Num_Resolved_Atoms>  (842) 
nan

>  <Num_Not_Resolved_Atoms>  (842) 
nan

$$$$
CHEMBL387190
     RDKit          3D

  0  0  0  0  0  0  0  0  0  0999 V3000
M  V30 BEGIN CTAB
M  V30 COUNTS 75 79 0 0 0
M  V30 BEGIN ATOM
M  V30 1 C 2.842033 -4.202706 1.456740 0
M  V30 2 O 2.669739 -3.268364 2.496715 0
M  V30 3 C 1.465107 -2.704710 2.847402 0
M  V30 4 C 0.257955 -2.955282 2.224697 0
M  V30 5 C -0.935205 -2.376237 2.594593 0
M  V30 6 C -2.101813 -2.668930 1.922963 0
M  V30 7 N -2.152280 -3.570635 0.819517 0
M  V30 8 C -1.909062 -2.992760 -0.483080 0
M  V30 9 C -1.929898 -3.633725 -1.705955 0
M  V30 10 C -1.637863 -2.698575 -2.666992 0
M  V30 11 C -1.538347 -2.845970 -4.126423 0
M  V30 12 C -2.818981 -2.463267 -4.764152 0
M  V30 13 O -3.787165 -2.078556 -4.031882 0
M  V30 14 N -3.046137 -2.494694 -6.158105 0
M  V30 15 C -4.343742 -2.086549 -6.621005 0
M  V30 16 C -5.436008 -2.903619 -6.795008 0
M  V30 17 C -6.597254 -2.295062 -7.254608 0
M  V30 18 C -6.631296 -0.931619 -7.518395 0
M  V30 19 C -5.517774 -0.118049 -7.337697 0
M  V30 20 C -4.340969 -0.722388 -6.874152 0
M  V30 21 N -1.441534 -1.512747 -2.058315 0
M  V30 22 N -1.605940 -1.703938 -0.765202 0
M  V30 23 N -3.229231 -2.063743 2.335068 0
M  V30 24 C -3.236575 -1.199287 3.365401 0
M  V30 25 N -2.087163 -0.925440 4.008984 0
M  V30 26 C -0.928228 -1.490732 3.653191 0
M  V30 27 C 0.273966 -1.235218 4.281426 0
M  V30 28 C 1.480061 -1.804131 3.926253 0
M  V30 29 O 2.656947 -1.550303 4.544239 0
M  V30 30 C 3.008925 -0.733304 5.589026 0
M  V30 31 C 2.798964 0.741884 5.411833 0
M  V30 32 C 3.626711 1.260983 4.229078 0
M  V30 33 N 3.461165 2.660690 3.986311 0
M  V30 34 C 4.362383 3.158104 2.980882 0
M  V30 35 C 4.037093 2.565145 1.654561 0
M  V30 36 C 2.675737 3.043367 1.219641 0
M  V30 37 C 1.878861 1.915311 0.571152 0
M  V30 38 O 2.625112 1.495811 -0.538016 0
M  V30 39 C 1.922256 3.705823 2.346126 0
M  V30 40 C 2.079100 2.979257 3.662655 0
M  V30 41 H 2.823675 -5.246570 1.893560 0
M  V30 42 H 3.866762 -4.130157 1.017173 0
M  V30 43 H 2.065071 -4.076162 0.680881 0
M  V30 44 H 0.225652 -3.645141 1.394918 0
M  V30 45 H -2.344683 -4.596052 0.847694 0
M  V30 46 H -2.135947 -4.672737 -1.876818 0
M  V30 47 H -1.228220 -3.880202 -4.399387 0
M  V30 48 H -0.749548 -2.183645 -4.533373 0
M  V30 49 H -2.205144 -2.825569 -6.713218 0
M  V30 50 H -5.303909 -3.941382 -6.561868 0
M  V30 51 H -7.458394 -2.960032 -7.387049 0
M  V30 52 H -7.567496 -0.527185 -7.872516 0
M  V30 53 H -5.559134 0.933726 -7.545332 0
M  V30 54 H -3.519680 -0.036265 -6.755397 0
M  V30 55 H -1.200687 -0.589983 -2.512856 0
M  V30 56 H -4.083500 -0.663021 3.771682 0
M  V30 57 H 0.182610 -0.545723 5.091892 0
M  V30 58 H 2.538004 -1.113669 6.518463 0
M  V30 59 H 4.118398 -0.879721 5.762810 0
M  V30 60 H 1.789869 1.110535 5.448492 0
M  V30 61 H 3.318262 1.216782 6.303553 0
M  V30 62 H 3.212822 0.709858 3.334208 0
M  V30 63 H 4.678098 0.974741 4.323081 0
M  V30 64 H 4.357865 4.266998 2.916156 0
M  V30 65 H 5.379726 2.806801 3.262046 0
M  V30 66 H 4.809189 2.850588 0.873886 0
M  V30 67 H 4.057577 1.477360 1.709365 0
M  V30 68 H 2.827027 3.811025 0.431786 0
M  V30 69 H 1.759976 1.072536 1.267435 0
M  V30 70 H 0.865752 2.261868 0.287149 0
M  V30 71 H 2.617708 0.512476 -0.573810 0
M  V30 72 H 0.826183 3.622618 2.084953 0
M  V30 73 H 2.135052 4.787952 2.418744 0
M  V30 74 H 1.476688 2.060468 3.706152 0
M  V30 75 H 1.710846 3.659934 4.456922 0
M  V30 END ATOM
M  V30 BEGIN BOND
M  V30 1 1 1 2
M  V30 2 1 2 3
M  V30 3 2 3 4
M  V30 4 1 4 5
M  V30 5 2 5 6
M  V30 6 1 6 7
M  V30 7 1 7 8
M  V30 8 1 8 9
M  V30 9 2 9 10
M  V30 10 1 10 11
M  V30 11 1 11 12
M  V30 12 2 12 13
M  V30 13 1 12 14
M  V30 14 1 14 15
M  V30 15 2 15 16
M  V30 16 1 16 17
M  V30 17 2 17 18
M  V30 18 1 18 19
M  V30 19 2 19 20
M  V30 20 1 10 21
M  V30 21 1 21 22
M  V30 22 1 6 23
M  V30 23 2 23 24
M  V30 24 1 24 25
M  V30 25 2 25 26
M  V30 26 1 26 27
M  V30 27 2 27 28
M  V30 28 1 28 29
M  V30 29 1 29 30
M  V30 30 1 30 31
M  V30 31 1 31 32
M  V30 32 1 32 33
M  V30 33 1 33 34
M  V30 34 1 34 35
M  V30 35 1 35 36
M  V30 36 1 36 37
M  V30 37 1 37 38
M  V30 38 1 36 39
M  V30 39 1 39 40
M  V30 40 1 28 3
M  V30 41 1 40 33
M  V30 42 1 26 5
M  V30 43 2 22 8
M  V30 44 1 20 15
M  V30 45 1 1 41
M  V30 46 1 1 42
M  V30 47 1 1 43
M  V30 48 1 4 44
M  V30 49 1 7 45
M  V30 50 1 9 46
M  V30 51 1 11 47
M  V30 52 1 11 48
M  V30 53 1 14 49
M  V30 54 1 16 50
M  V30 55 1 17 51
M  V30 56 1 18 52
M  V30 57 1 19 53
M  V30 58 1 20 54
M  V30 59 1 21 55
M  V30 60 1 24 56
M  V30 61 1 27 57
M  V30 62 1 30 58
M  V30 63 1 30 59
M  V30 64 1 31 60
M  V30 65 1 31 61
M  V30 66 1 32 62
M  V30 67 1 32 63
M  V30 68 1 34 64
M  V30 69 1 34 65
M  V30 70 1 35 66
M  V30 71 1 35 67
M  V30 72 1 36 68
M  V30 73 1 37 69
M  V30 74 1 37 70
M  V30 75 1 38 71
M  V30 76 1 39 72
M  V30 77 1 39 73
M  V30 78 1 40 74
M  V30 79 1 40 75
M  V30 END BOND
M  V30 END CTAB
M  END
>  <Dataset>  (843) 
ChEMBL_Kinases

>  <Ligand_Instance>  (843) 
nan

>  <PDB_ID>  (843) 
nan

>  <Standardized_SMILES>  (843) 
COc1cc2c(Nc3cc(CC(=O)Nc4ccccc4)[nH]n3)ncnc2cc1OCCCN1CCC(CO)CC1

>  <Name>  (843) 
nan

>  <Pocket>  (843) 
nan

>  <ATP_Site>  (843) 
nan

>  <Peripheral>  (843) 
nan

>  <Num_H_Atoms_ProtBoundConf>  (843) 
nan

>  <Num_Resolved_Atoms>  (843) 
nan

>  <Num_Not_Resolved_Atoms>  (843) 
nan

$$$$
CHEMBL387184
     RDKit          3D

  0  0  0  0  0  0  0  0  0  0999 V3000
M  V30 BEGIN CTAB
M  V30 COUNTS 47 49 0 0 0
M  V30 BEGIN ATOM
M  V30 1 C -1.554155 -1.886012 -4.763376 0
M  V30 2 C -1.258423 -0.772550 -3.813472 0
M  V30 3 C -0.961897 0.489974 -4.595420 0
M  V30 4 O -2.089253 1.020956 -5.190622 0
M  V30 5 N -2.194716 -0.575840 -2.763137 0
M  V30 6 C -3.145165 -1.339051 -2.390411 0
M  V30 7 N -3.335467 -2.561087 -3.085994 0
M  V30 8 C -3.940804 -0.860588 -1.271181 0
M  V30 9 C -4.972920 -1.662868 -0.845443 0
M  V30 10 O -5.443733 -2.894491 -1.278374 0
M  V30 11 N -5.786798 -1.348148 0.176595 0
M  V30 12 S -5.098885 0.306107 0.703781 0
M  V30 13 C -3.814792 0.292022 -0.559240 0
M  V30 14 N -2.830349 1.251101 -0.829416 0
M  V30 15 C -1.506821 1.291518 -0.297001 0
M  V30 16 C -0.597293 2.289079 -0.601217 0
M  V30 17 C 0.656924 2.217484 -0.026075 0
M  V30 18 C 1.047260 1.208722 0.830909 0
M  V30 19 O 2.312985 1.158162 1.396455 0
M  V30 20 C 3.203180 0.127668 1.204059 0
M  V30 21 C 3.080553 -1.008241 0.461815 0
M  V30 22 C 4.113025 -1.917085 0.411563 0
M  V30 23 F 3.888596 -3.005892 -0.351277 0
M  V30 24 C 5.308719 -1.720942 1.104295 0
M  V30 25 C 5.435720 -0.562851 1.861841 0
M  V30 26 F 6.609710 -0.451362 2.493375 0
M  V30 27 C 4.385405 0.347793 1.904745 0
M  V30 28 Cl 4.771884 1.737647 2.926444 0
M  V30 29 C 0.112635 0.209953 1.125826 0
M  V30 30 F 0.389992 -0.820619 1.955327 0
M  V30 31 C -1.143764 0.270220 0.557486 0
M  V30 32 H -0.829683 -1.766865 -5.623523 0
M  V30 33 H -2.548849 -1.812938 -5.246183 0
M  V30 34 H -1.360608 -2.900861 -4.359611 0
M  V30 35 H -0.280721 -1.044529 -3.315655 0
M  V30 36 H -0.518006 1.266111 -3.968640 0
M  V30 37 H -0.261491 0.219929 -5.407250 0
M  V30 38 H -2.710652 1.447423 -4.550200 0
M  V30 39 H -4.042737 -2.965678 -3.770130 0
M  V30 40 H -3.981978 -3.032414 -3.758017 0
M  V30 41 H -4.933786 -3.759706 -1.141255 0
M  V30 42 H -3.093434 2.020904 -1.493179 0
M  V30 43 H -0.885574 3.082956 -1.267605 0
M  V30 44 H 1.380985 2.979731 -0.246379 0
M  V30 45 H 2.155755 -1.114008 -0.048909 0
M  V30 46 H 6.052055 -2.507420 0.988636 0
M  V30 47 H -1.854465 -0.508081 0.794450 0
M  V30 END ATOM
M  V30 BEGIN BOND
M  V30 1 1 1 2
M  V30 2 1 2 3
M  V30 3 1 3 4
M  V30 4 1 2 5
M  V30 5 2 5 6
M  V30 6 1 6 7
M  V30 7 1 6 8
M  V30 8 1 8 9
M  V30 9 1 9 10
M  V30 10 2 9 11
M  V30 11 1 11 12
M  V30 12 1 12 13
M  V30 13 1 13 14
M  V30 14 1 14 15
M  V30 15 2 15 16
M  V30 16 1 16 17
M  V30 17 2 17 18
M  V30 18 1 18 19
M  V30 19 1 19 20
M  V30 20 2 20 21
M  V30 21 1 21 22
M  V30 22 1 22 23
M  V30 23 2 22 24
M  V30 24 1 24 25
M  V30 25 1 25 26
M  V30 26 2 25 27
M  V30 27 1 27 28
M  V30 28 1 18 29
M  V30 29 1 29 30
M  V30 30 2 29 31
M  V30 31 2 13 8
M  V30 32 1 31 15
M  V30 33 1 27 20
M  V30 34 1 1 32
M  V30 35 1 1 33
M  V30 36 1 1 34
M  V30 37 1 2 35
M  V30 38 1 3 36
M  V30 39 1 3 37
M  V30 40 1 4 38
M  V30 41 1 7 39
M  V30 42 1 7 40
M  V30 43 1 10 41
M  V30 44 1 14 42
M  V30 45 1 16 43
M  V30 46 1 17 44
M  V30 47 1 21 45
M  V30 48 1 24 46
M  V30 49 1 31 47
M  V30 END BOND
M  V30 END CTAB
M  END
>  <Dataset>  (844) 
ChEMBL_Kinases

>  <Ligand_Instance>  (844) 
nan

>  <PDB_ID>  (844) 
nan

>  <Standardized_SMILES>  (844) 
CC(CO)/N=C(\N)c1c(O)nsc1Nc1ccc(Oc2cc(F)cc(F)c2Cl)c(F)c1

>  <Name>  (844) 
nan

>  <Pocket>  (844) 
nan

>  <ATP_Site>  (844) 
nan

>  <Peripheral>  (844) 
nan

>  <Num_H_Atoms_ProtBoundConf>  (844) 
nan

>  <Num_Resolved_Atoms>  (844) 
nan

>  <Num_Not_Resolved_Atoms>  (844) 
nan

$$$$
CHEMBL387154
     RDKit          3D

  0  0  0  0  0  0  0  0  0  0999 V3000
M  V30 BEGIN CTAB
M  V30 COUNTS 57 60 0 0 0
M  V30 BEGIN ATOM
M  V30 1 C 3.940228 -3.143583 3.274325 0
M  V30 2 C 3.281106 -2.799167 1.989314 0
M  V30 3 O 2.516720 -3.723676 1.673106 0
M  V30 4 N 3.591327 -1.552330 1.343751 0
M  V30 5 C 2.973128 -1.190117 0.105181 0
M  V30 6 C 1.770892 -0.476213 0.091543 0
M  V30 7 C 1.161532 -0.120479 -1.117522 0
M  V30 8 C -0.085185 0.620196 -0.889688 0
M  V30 9 C -0.100595 1.866809 -0.267578 0
M  V30 10 C 1.004706 2.687974 0.265519 0
M  V30 11 C 1.958113 3.139468 -0.625583 0
M  V30 12 C 3.026863 3.920201 -0.182946 0
M  V30 13 C 3.145929 4.250021 1.141677 0
M  V30 14 F 4.163421 5.008770 1.655588 0
M  V30 15 C 2.201093 3.804685 2.032801 0
M  V30 16 C 1.127243 3.024627 1.611498 0
M  V30 17 N -1.377817 2.290150 -0.198584 0
M  V30 18 C -2.159944 1.344618 -0.758988 0
M  V30 19 S -3.898600 1.127842 -1.064067 0
M  V30 20 C -4.761250 0.325329 0.283807 0
M  V30 21 C -4.342626 -1.073212 0.503963 0
M  V30 22 C -3.308356 -1.312197 1.385398 0
M  V30 23 C -2.782637 -2.549261 1.715145 0
M  V30 24 C -3.380879 -3.638273 1.074577 0
M  V30 25 S -2.732758 -5.210086 1.476755 0 CHG=1 VAL=3
M  V30 26 C -1.387059 -5.616938 0.390642 0
M  V30 27 O -3.901549 -6.406037 1.450655 0 CHG=-1 VAL=1
M  V30 28 C -4.418039 -3.451553 0.184704 0
M  V30 29 C -4.911752 -2.185140 -0.113797 0
M  V30 30 N -1.372364 0.317412 -1.185116 0
M  V30 31 C -1.618080 -0.953457 -1.847480 0
M  V30 32 C 1.767971 -0.486595 -2.299732 0
M  V30 33 C 2.948322 -1.187451 -2.250260 0
M  V30 34 N 3.528713 -1.526168 -1.091203 0
M  V30 35 H 4.775098 -2.433947 3.454217 0
M  V30 36 H 4.353938 -4.159495 3.293635 0
M  V30 37 H 3.266867 -3.042428 4.142812 0
M  V30 38 H 4.281338 -0.920572 1.807957 0
M  V30 39 H 1.377141 -0.237891 1.093493 0
M  V30 40 H 1.918229 2.910542 -1.681223 0
M  V30 41 H 3.777052 4.275120 -0.868652 0
M  V30 42 H 2.189789 4.000761 3.103862 0
M  V30 43 H 0.335119 2.629473 2.248314 0
M  V30 44 H -4.596516 0.879534 1.229422 0
M  V30 45 H -5.850609 0.410754 0.082508 0
M  V30 46 H -2.838679 -0.460473 1.888630 0
M  V30 47 H -1.973956 -2.645098 2.414358 0
M  V30 48 H -0.512356 -6.001953 0.952532 0
M  V30 49 H -1.754360 -6.381874 -0.350462 0
M  V30 50 H -1.155625 -4.716931 -0.212551 0
M  V30 51 H -4.860492 -4.317399 -0.296771 0
M  V30 52 H -5.721460 -2.009824 -0.805087 0
M  V30 53 H -1.448270 -1.829024 -1.215230 0
M  V30 54 H -2.664120 -0.938073 -2.223970 0
M  V30 55 H -0.975097 -1.053286 -2.744806 0
M  V30 56 H 1.209292 -0.159618 -3.164531 0
M  V30 57 H 3.361877 -1.438216 -3.214769 0
M  V30 END ATOM
M  V30 BEGIN BOND
M  V30 1 1 1 2
M  V30 2 2 2 3
M  V30 3 1 2 4
M  V30 4 1 4 5
M  V30 5 2 5 6
M  V30 6 1 6 7
M  V30 7 1 7 8
M  V30 8 2 8 9
M  V30 9 1 9 10
M  V30 10 2 10 11
M  V30 11 1 11 12
M  V30 12 2 12 13
M  V30 13 1 13 14
M  V30 14 1 13 15
M  V30 15 2 15 16
M  V30 16 1 9 17
M  V30 17 2 17 18
M  V30 18 1 18 19
M  V30 19 1 19 20
M  V30 20 1 20 21
M  V30 21 2 21 22
M  V30 22 1 22 23
M  V30 23 2 23 24
M  V30 24 1 24 25
M  V30 25 1 25 26
M  V30 26 1 25 27
M  V30 27 1 24 28
M  V30 28 2 28 29
M  V30 29 1 18 30
M  V30 30 1 30 31
M  V30 31 2 7 32
M  V30 32 1 32 33
M  V30 33 2 33 34
M  V30 34 1 34 5
M  V30 35 1 30 8
M  V30 36 1 16 10
M  V30 37 1 29 21
M  V30 38 1 1 35
M  V30 39 1 1 36
M  V30 40 1 1 37
M  V30 41 1 4 38
M  V30 42 1 6 39
M  V30 43 1 11 40
M  V30 44 1 12 41
M  V30 45 1 15 42
M  V30 46 1 16 43
M  V30 47 1 20 44
M  V30 48 1 20 45
M  V30 49 1 22 46
M  V30 50 1 23 47
M  V30 51 1 26 48
M  V30 52 1 26 49
M  V30 53 1 26 50
M  V30 54 1 28 51
M  V30 55 1 29 52
M  V30 56 1 31 53
M  V30 57 1 31 54
M  V30 58 1 31 55
M  V30 59 1 32 56
M  V30 60 1 33 57
M  V30 END BOND
M  V30 END CTAB
M  END
>  <Dataset>  (845) 
ChEMBL_Kinases

>  <Ligand_Instance>  (845) 
nan

>  <PDB_ID>  (845) 
nan

>  <Standardized_SMILES>  (845) 
CC(=O)Nc1cc(-c2c(-c3ccc(F)cc3)nc(SCc3ccc([S+](C)[O-])cc3)n2C)ccn1

>  <Name>  (845) 
nan

>  <Pocket>  (845) 
nan

>  <ATP_Site>  (845) 
nan

>  <Peripheral>  (845) 
nan

>  <Num_H_Atoms_ProtBoundConf>  (845) 
nan

>  <Num_Resolved_Atoms>  (845) 
nan

>  <Num_Not_Resolved_Atoms>  (845) 
nan

$$$$
CHEMBL493161
     RDKit          3D

  0  0  0  0  0  0  0  0  0  0999 V3000
M  V30 BEGIN CTAB
M  V30 COUNTS 37 40 0 0 0
M  V30 BEGIN ATOM
M  V30 1 C -0.643708 -5.583313 4.564585 0
M  V30 2 C -0.278501 -4.233590 3.982169 0
M  V30 3 N -0.599026 -4.167157 2.569586 0
M  V30 4 C -0.379774 -3.052616 1.751310 0
M  V30 5 N 0.169211 -1.979718 2.345556 0
M  V30 6 C 0.430222 -0.847985 1.671842 0
M  V30 7 S 1.163360 0.810958 2.117617 0
M  V30 8 C 0.988028 1.444555 0.426070 0
M  V30 9 C 1.382458 2.811965 -0.064524 0
M  V30 10 C 1.191553 3.149417 -1.364378 0
M  V30 11 C 1.583248 4.423630 -1.722750 0
M  V30 12 C 2.136750 5.306450 -0.817290 0
M  V30 13 F 2.494368 6.549181 -1.266606 0
M  V30 14 C 2.319755 4.935754 0.501403 0
M  V30 15 C 1.936124 3.663966 0.889029 0
M  V30 16 N 0.489597 0.537507 -0.216650 0
M  V30 17 C 0.175762 -0.643264 0.316478 0
M  V30 18 C -0.388862 -1.741544 -0.302684 0
M  V30 19 C -0.646265 -2.889752 0.411140 0
M  V30 20 N -1.200531 -3.826971 -0.413476 0
M  V30 21 C -1.294514 -3.271301 -1.652580 0
M  V30 22 N -0.800941 -2.023954 -1.553217 0
M  V30 23 C -0.705275 -1.058513 -2.647285 0
M  V30 24 H -1.397420 -5.475985 5.368200 0
M  V30 25 H 0.230411 -6.084451 5.042653 0
M  V30 26 H -1.012138 -6.281519 3.763875 0
M  V30 27 H 0.822117 -4.044329 4.133904 0
M  V30 28 H -0.797991 -3.453422 4.573760 0
M  V30 29 H -1.030607 -4.972303 2.043841 0
M  V30 30 H 0.752719 2.406666 -2.016387 0
M  V30 31 H 1.422163 4.683153 -2.780782 0
M  V30 32 H 2.758373 5.647686 1.199930 0
M  V30 33 H 2.096810 3.419668 1.922035 0
M  V30 34 H -1.691125 -3.749669 -2.538419 0
M  V30 35 H -1.119476 -0.072310 -2.364163 0
M  V30 36 H 0.356345 -0.871903 -2.932380 0
M  V30 37 H -1.315573 -1.421414 -3.498439 0
M  V30 END ATOM
M  V30 BEGIN BOND
M  V30 1 1 1 2
M  V30 2 1 2 3
M  V30 3 1 3 4
M  V30 4 2 4 5
M  V30 5 1 5 6
M  V30 6 1 6 7
M  V30 7 1 7 8
M  V30 8 1 8 9
M  V30 9 2 9 10
M  V30 10 1 10 11
M  V30 11 2 11 12
M  V30 12 1 12 13
M  V30 13 1 12 14
M  V30 14 2 14 15
M  V30 15 2 8 16
M  V30 16 1 16 17
M  V30 17 1 17 18
M  V30 18 2 18 19
M  V30 19 1 19 20
M  V30 20 2 20 21
M  V30 21 1 21 22
M  V30 22 1 22 23
M  V30 23 1 19 4
M  V30 24 2 17 6
M  V30 25 1 22 18
M  V30 26 1 15 9
M  V30 27 1 1 24
M  V30 28 1 1 25
M  V30 29 1 1 26
M  V30 30 1 2 27
M  V30 31 1 2 28
M  V30 32 1 3 29
M  V30 33 1 10 30
M  V30 34 1 11 31
M  V30 35 1 14 32
M  V30 36 1 15 33
M  V30 37 1 21 34
M  V30 38 1 23 35
M  V30 39 1 23 36
M  V30 40 1 23 37
M  V30 END BOND
M  V30 END CTAB
M  END
>  <Dataset>  (846) 
ChEMBL_Kinases

>  <Ligand_Instance>  (846) 
nan

>  <PDB_ID>  (846) 
nan

>  <Standardized_SMILES>  (846) 
CCNc1nc2sc(-c3ccc(F)cc3)nc2c2c1ncn2C

>  <Name>  (846) 
nan

>  <Pocket>  (846) 
nan

>  <ATP_Site>  (846) 
nan

>  <Peripheral>  (846) 
nan

>  <Num_H_Atoms_ProtBoundConf>  (846) 
nan

>  <Num_Resolved_Atoms>  (846) 
nan

>  <Num_Not_Resolved_Atoms>  (846) 
nan

$$$$
CHEMBL386904
     RDKit          3D

  0  0  0  0  0  0  0  0  0  0999 V3000
M  V30 BEGIN CTAB
M  V30 COUNTS 38 41 0 0 0
M  V30 BEGIN ATOM
M  V30 1 C -0.152727 -3.766242 1.666950 0
M  V30 2 N 1.068705 -3.125452 2.128749 0
M  V30 3 C 1.299104 -2.976882 3.551466 0
M  V30 4 C 2.034457 -2.643223 1.204402 0
M  V30 5 N 3.065220 -3.335123 0.658307 0
M  V30 6 N 3.754314 -2.547262 -0.162175 0
M  V30 7 C 3.147732 -1.330931 -0.135410 0
M  V30 8 C 3.424859 -0.140747 -0.781731 0
M  V30 9 C 2.669330 0.996308 -0.608516 0
M  V30 10 C 1.589306 0.929186 0.252975 0
M  V30 11 C 0.668331 2.005702 0.583791 0
M  V30 12 O 1.243462 3.062444 1.137072 0
M  V30 13 C 0.334317 3.976644 1.398566 0
M  V30 14 N -0.850147 3.496948 1.004798 0
M  V30 15 C -0.681853 2.254372 0.484625 0
M  V30 16 C -1.557691 1.243013 -0.092999 0
M  V30 17 C -1.551284 0.727035 -1.378276 0
M  V30 18 C -2.506473 -0.235827 -1.681972 0
M  V30 19 C -3.424336 -0.662991 -0.746593 0
M  V30 20 F -4.324904 -1.615720 -1.146002 0
M  V30 21 C -3.444644 -0.159901 0.537249 0
M  V30 22 C -2.478296 0.808876 0.831846 0
M  V30 23 C 1.338460 -0.276204 0.883894 0
M  V30 24 N 2.084755 -1.387463 0.708348 0
M  V30 25 H -0.081168 -4.088798 0.608513 0
M  V30 26 H -1.034959 -3.124163 1.786845 0
M  V30 27 H -0.294212 -4.729515 2.238707 0
M  V30 28 H 0.384955 -3.283030 4.132404 0
M  V30 29 H 1.470796 -1.891051 3.790678 0
M  V30 30 H 2.125553 -3.604627 3.926965 0
M  V30 31 H 4.273039 -0.052156 -1.471193 0
M  V30 32 H 2.832849 1.946253 -1.079082 0
M  V30 33 H 0.525623 4.952380 1.857339 0
M  V30 34 H -0.789222 1.142259 -2.006921 0
M  V30 35 H -2.440439 -0.590907 -2.702928 0
M  V30 36 H -4.179208 -0.519214 1.242820 0
M  V30 37 H -2.575168 1.147178 1.876357 0
M  V30 38 H 0.506284 -0.422303 1.582314 0
M  V30 END ATOM
M  V30 BEGIN BOND
M  V30 1 1 1 2
M  V30 2 1 2 3
M  V30 3 1 2 4
M  V30 4 2 4 5
M  V30 5 1 5 6
M  V30 6 2 6 7
M  V30 7 1 7 8
M  V30 8 2 8 9
M  V30 9 1 9 10
M  V30 10 1 10 11
M  V30 11 1 11 12
M  V30 12 1 12 13
M  V30 13 2 13 14
M  V30 14 1 14 15
M  V30 15 1 15 16
M  V30 16 2 16 17
M  V30 17 1 17 18
M  V30 18 2 18 19
M  V30 19 1 19 20
M  V30 20 1 19 21
M  V30 21 2 21 22
M  V30 22 2 10 23
M  V30 23 1 23 24
M  V30 24 1 24 4
M  V30 25 1 24 7
M  V30 26 2 15 11
M  V30 27 1 22 16
M  V30 28 1 1 25
M  V30 29 1 1 26
M  V30 30 1 1 27
M  V30 31 1 3 28
M  V30 32 1 3 29
M  V30 33 1 3 30
M  V30 34 1 8 31
M  V30 35 1 9 32
M  V30 36 1 13 33
M  V30 37 1 17 34
M  V30 38 1 18 35
M  V30 39 1 21 36
M  V30 40 1 22 37
M  V30 41 1 23 38
M  V30 END BOND
M  V30 END CTAB
M  END
>  <Dataset>  (847) 
ChEMBL_Kinases

>  <Ligand_Instance>  (847) 
nan

>  <PDB_ID>  (847) 
nan

>  <Standardized_SMILES>  (847) 
CN(C)c1nnc2ccc(-c3ocnc3-c3ccc(F)cc3)cn12

>  <Name>  (847) 
nan

>  <Pocket>  (847) 
nan

>  <ATP_Site>  (847) 
nan

>  <Peripheral>  (847) 
nan

>  <Num_H_Atoms_ProtBoundConf>  (847) 
nan

>  <Num_Resolved_Atoms>  (847) 
nan

>  <Num_Not_Resolved_Atoms>  (847) 
nan

$$$$
CHEMBL386869
     RDKit          3D

  0  0  0  0  0  0  0  0  0  0999 V3000
M  V30 BEGIN CTAB
M  V30 COUNTS 37 41 0 0 0
M  V30 BEGIN ATOM
M  V30 1 C 0.179610 -3.793142 2.717999 0
M  V30 2 C 0.774034 -2.651231 3.269630 0
M  V30 3 C 1.576926 -1.829309 2.516824 0
M  V30 4 C 1.808967 -2.133684 1.170016 0
M  V30 5 C 2.683581 -1.171683 0.482624 0
M  V30 6 N 3.845547 -1.742553 0.038703 0
M  V30 7 C 4.529405 -0.722481 -0.564578 0
M  V30 8 O 3.840929 0.400696 -0.499794 0
M  V30 9 C 2.711554 0.184628 0.125826 0
M  V30 10 C 1.455097 0.785967 0.609445 0
M  V30 11 C 1.609947 1.707227 1.654321 0
M  V30 12 C 0.456072 2.285424 2.147502 0
M  V30 13 C -0.755163 1.938197 1.604014 0
M  V30 14 N -2.009337 2.304911 1.858842 0
M  V30 15 N -2.839100 1.686780 1.069174 0
M  V30 16 C -2.143289 0.856761 0.229414 0
M  V30 17 C -2.882147 0.065561 -0.740028 0
M  V30 18 C -2.430108 -1.017598 -1.585167 0
M  V30 19 C -2.474159 0.393033 -2.190122 0
M  V30 20 N -0.888561 1.056806 0.606132 0
M  V30 21 C 0.207539 0.482093 0.108502 0
M  V30 22 C 1.235016 -3.250513 0.604423 0
M  V30 23 C 0.439747 -4.046664 1.389467 0
M  V30 24 H -0.463889 -4.483766 3.253987 0
M  V30 25 H 0.552185 -2.479684 4.308391 0
M  V30 26 H 1.974759 -0.980433 3.064185 0
M  V30 27 H 5.489244 -0.698155 -1.055568 0
M  V30 28 H 2.543724 1.990282 2.089642 0
M  V30 29 H 0.428403 3.013004 2.953757 0
M  V30 30 H -4.005717 0.141990 -0.611171 0
M  V30 31 H -3.238720 -1.739573 -1.944278 0
M  V30 32 H -1.450944 -1.466120 -1.689065 0
M  V30 33 H -3.268906 0.528690 -2.946408 0
M  V30 34 H -1.547049 0.933970 -2.380849 0
M  V30 35 H 0.153027 -0.214709 -0.680311 0
M  V30 36 H 1.490845 -3.368842 -0.434346 0
M  V30 37 H 0.008575 -4.922307 0.891834 0
M  V30 END ATOM
M  V30 BEGIN BOND
M  V30 1 2 1 2
M  V30 2 1 2 3
M  V30 3 2 3 4
M  V30 4 1 4 5
M  V30 5 1 5 6
M  V30 6 2 6 7
M  V30 7 1 7 8
M  V30 8 1 8 9
M  V30 9 1 9 10
M  V30 10 1 10 11
M  V30 11 2 11 12
M  V30 12 1 12 13
M  V30 13 2 13 14
M  V30 14 1 14 15
M  V30 15 2 15 16
M  V30 16 1 16 17
M  V30 17 1 17 18
M  V30 18 1 18 19
M  V30 19 1 16 20
M  V30 20 1 20 21
M  V30 21 1 4 22
M  V30 22 2 22 23
M  V30 23 1 23 1
M  V30 24 2 9 5
M  V30 25 2 21 10
M  V30 26 1 20 13
M  V30 27 1 19 17
M  V30 28 1 1 24
M  V30 29 1 2 25
M  V30 30 1 3 26
M  V30 31 1 7 27
M  V30 32 1 11 28
M  V30 33 1 12 29
M  V30 34 1 17 30
M  V30 35 1 18 31
M  V30 36 1 18 32
M  V30 37 1 19 33
M  V30 38 1 19 34
M  V30 39 1 21 35
M  V30 40 1 22 36
M  V30 41 1 23 37
M  V30 END BOND
M  V30 END CTAB
M  END
>  <Dataset>  (848) 
ChEMBL_Kinases

>  <Ligand_Instance>  (848) 
nan

>  <PDB_ID>  (848) 
nan

>  <Standardized_SMILES>  (848) 
c1ccc(-c2ncoc2-c2ccc3nnc(C4CC4)n3c2)cc1

>  <Name>  (848) 
nan

>  <Pocket>  (848) 
nan

>  <ATP_Site>  (848) 
nan

>  <Peripheral>  (848) 
nan

>  <Num_H_Atoms_ProtBoundConf>  (848) 
nan

>  <Num_Resolved_Atoms>  (848) 
nan

>  <Num_Not_Resolved_Atoms>  (848) 
nan

$$$$
CHEMBL493205
     RDKit          3D

  0  0  0  0  0  0  0  0  0  0999 V3000
M  V30 BEGIN CTAB
M  V30 COUNTS 49 55 0 0 0
M  V30 BEGIN ATOM
M  V30 1 O 3.991055 -2.250251 -1.395699 0
M  V30 2 C 2.969366 -2.965870 -1.343782 0
M  V30 3 N 3.160311 -4.315826 -1.777415 0
M  V30 4 C 1.913485 -4.991023 -1.657449 0
M  V30 5 O 1.825256 -6.191674 -1.978365 0
M  V30 6 C 0.975768 -4.015769 -1.143478 0
M  V30 7 C 1.585124 -2.795874 -0.947840 0
M  V30 8 C 0.933370 -1.707053 -0.473175 0
M  V30 9 C 1.294788 -0.430494 -0.199143 0
M  V30 10 C 2.403933 0.337191 -0.258173 0
M  V30 11 C 2.413835 1.668820 0.119911 0
M  V30 12 C 1.257079 2.315182 0.595022 0
M  V30 13 O 1.499764 3.599688 0.900569 0
M  V30 14 C 0.694450 4.615836 1.400317 0
M  V30 15 C 0.103694 4.370610 2.735415 0
M  V30 16 C 0.946142 4.692760 3.806106 0
M  V30 17 C 0.622457 4.569127 5.121356 0
M  V30 18 C -0.621231 4.093711 5.472627 0
M  V30 19 C -1.478899 3.766006 4.445517 0
M  V30 20 C -1.130722 3.899227 3.124528 0
M  V30 21 C 0.148339 1.511634 0.643433 0
M  V30 22 C 0.158409 0.188377 0.262856 0
M  V30 23 N -0.897895 -0.634243 0.292904 0
M  V30 24 C -0.395534 -1.817418 -0.171216 0
M  V30 25 C -1.070165 -3.004252 -0.341025 0
M  V30 26 N -2.374671 -3.334006 -0.107881 0
M  V30 27 C -2.474258 -4.627441 -0.452464 0
M  V30 28 C -3.629373 -5.408279 -0.385701 0
M  V30 29 C -3.575242 -6.729431 -0.776785 0
M  V30 30 N -2.372390 -7.205242 -1.214594 0
M  V30 31 C -1.324290 -6.397025 -1.246679 0
M  V30 32 C -1.254921 -5.094706 -0.891970 0
M  V30 33 C -0.352834 -4.071103 -0.825873 0
M  V30 34 H 4.055687 -4.783691 -2.135787 0
M  V30 35 H 3.293770 -0.111184 -0.609703 0
M  V30 36 H 3.393424 2.168274 0.016743 0
M  V30 37 H 1.257956 5.584561 1.468442 0
M  V30 38 H -0.158118 4.866572 0.714238 0
M  V30 39 H 1.964335 5.081989 3.647133 0
M  V30 40 H 1.288854 4.823946 5.932763 0
M  V30 41 H -1.013075 3.943822 6.466187 0
M  V30 42 H -2.474327 3.385515 4.641961 0
M  V30 43 H -1.770006 3.664856 2.294403 0
M  V30 44 H -0.720032 2.015484 0.999268 0
M  V30 45 H -1.883150 -0.426943 0.599391 0
M  V30 46 H -3.129833 -2.706562 0.260908 0
M  V30 47 H -4.574247 -5.015130 -0.036250 0
M  V30 48 H -4.441214 -7.373892 -0.743614 0
M  V30 49 H -0.441326 -6.866257 -1.602339 0
M  V30 END ATOM
M  V30 BEGIN BOND
M  V30 1 2 1 2
M  V30 2 1 2 3
M  V30 3 1 3 4
M  V30 4 2 4 5
M  V30 5 1 4 6
M  V30 6 2 6 7
M  V30 7 1 7 8
M  V30 8 1 8 9
M  V30 9 2 9 10
M  V30 10 1 10 11
M  V30 11 2 11 12
M  V30 12 1 12 13
M  V30 13 1 13 14
M  V30 14 1 14 15
M  V30 15 2 15 16
M  V30 16 1 16 17
M  V30 17 2 17 18
M  V30 18 1 18 19
M  V30 19 2 19 20
M  V30 20 1 12 21
M  V30 21 2 21 22
M  V30 22 1 22 23
M  V30 23 1 23 24
M  V30 24 1 24 25
M  V30 25 1 25 26
M  V30 26 1 26 27
M  V30 27 2 27 28
M  V30 28 1 28 29
M  V30 29 2 29 30
M  V30 30 1 30 31
M  V30 31 2 31 32
M  V30 32 1 32 33
M  V30 33 1 7 2
M  V30 34 2 24 8
M  V30 35 2 33 25
M  V30 36 1 33 6
M  V30 37 1 22 9
M  V30 38 1 32 27
M  V30 39 1 20 15
M  V30 40 1 3 34
M  V30 41 1 10 35
M  V30 42 1 11 36
M  V30 43 1 14 37
M  V30 44 1 14 38
M  V30 45 1 16 39
M  V30 46 1 17 40
M  V30 47 1 18 41
M  V30 48 1 19 42
M  V30 49 1 20 43
M  V30 50 1 21 44
M  V30 51 1 23 45
M  V30 52 1 26 46
M  V30 53 1 28 47
M  V30 54 1 29 48
M  V30 55 1 31 49
M  V30 END BOND
M  V30 END CTAB
M  END
>  <Dataset>  (849) 
ChEMBL_Kinases

>  <Ligand_Instance>  (849) 
nan

>  <PDB_ID>  (849) 
nan

>  <Standardized_SMILES>  (849) 
O=C1NC(=O)c2c1c1c3ccc(OCc4ccccc4)cc3[nH]c1c1[nH]c3ccncc3c21

>  <Name>  (849) 
nan

>  <Pocket>  (849) 
nan

>  <ATP_Site>  (849) 
nan

>  <Peripheral>  (849) 
nan

>  <Num_H_Atoms_ProtBoundConf>  (849) 
nan

>  <Num_Resolved_Atoms>  (849) 
nan

>  <Num_Not_Resolved_Atoms>  (849) 
nan

$$$$
CHEMBL386807
     RDKit          3D

  0  0  0  0  0  0  0  0  0  0999 V3000
M  V30 BEGIN CTAB
M  V30 COUNTS 42 46 0 0 0
M  V30 BEGIN ATOM
M  V30 1 F -0.861414 -5.470470 1.171333 0
M  V30 2 C 0.118689 -4.577778 0.834665 0
M  V30 3 C 1.182785 -4.281561 1.665987 0
M  V30 4 C 2.148824 -3.360940 1.250603 0
M  V30 5 C 2.046966 -2.734194 -0.003052 0
M  V30 6 C 3.157527 -1.834828 -0.183849 0
M  V30 7 N 4.493173 -2.127482 -0.118472 0
M  V30 8 C 5.205634 -1.028810 -0.317330 0
M  V30 9 O 4.350693 -0.058592 -0.506370 0
M  V30 10 C 3.096612 -0.488448 -0.437160 0
M  V30 11 C 1.961480 0.386882 -0.615598 0
M  V30 12 C 2.024251 1.109126 -1.814054 0
M  V30 13 C 1.019555 1.995304 -2.157859 0
M  V30 14 C -0.025759 2.119941 -1.264232 0
M  V30 15 N -1.112348 2.935588 -1.397072 0
M  V30 16 N -1.860310 2.743114 -0.309136 0
M  V30 17 C -1.249421 1.826419 0.482888 0
M  V30 18 N -1.757676 1.377082 1.731134 0
M  V30 19 C -2.844637 0.442656 2.001736 0
M  V30 20 C -2.136701 -0.614114 2.842349 0
M  V30 21 C -1.201102 0.247009 3.686883 0
M  V30 22 C -1.393072 1.651881 3.129733 0
M  V30 23 N -0.109115 1.429074 -0.093531 0
M  V30 24 C 0.880847 0.578721 0.209742 0
M  V30 25 C 0.995529 -3.031477 -0.815826 0
M  V30 26 C 0.023705 -3.950454 -0.413250 0
M  V30 27 H 1.253947 -4.778484 2.649066 0
M  V30 28 H 2.930192 -3.215722 1.988629 0
M  V30 29 H 6.284472 -0.955981 -0.320686 0
M  V30 30 H 2.834956 1.037195 -2.545779 0
M  V30 31 H 1.058037 2.558347 -3.081660 0
M  V30 32 H -3.242929 -0.039404 1.088841 0
M  V30 33 H -3.652689 0.919994 2.600753 0
M  V30 34 H -2.838316 -1.169735 3.491424 0
M  V30 35 H -1.608323 -1.338211 2.205646 0
M  V30 36 H -0.181665 -0.114017 3.582450 0
M  V30 37 H -1.509959 0.157955 4.745579 0
M  V30 38 H -0.479836 2.271240 3.198849 0
M  V30 39 H -2.213611 2.197669 3.631241 0
M  V30 40 H 0.853173 0.009682 1.127782 0
M  V30 41 H 0.999446 -2.499654 -1.759108 0
M  V30 42 H -0.776717 -4.117069 -1.131574 0
M  V30 END ATOM
M  V30 BEGIN BOND
M  V30 1 1 1 2
M  V30 2 2 2 3
M  V30 3 1 3 4
M  V30 4 2 4 5
M  V30 5 1 5 6
M  V30 6 1 6 7
M  V30 7 2 7 8
M  V30 8 1 8 9
M  V30 9 1 9 10
M  V30 10 1 10 11
M  V30 11 1 11 12
M  V30 12 2 12 13
M  V30 13 1 13 14
M  V30 14 2 14 15
M  V30 15 1 15 16
M  V30 16 2 16 17
M  V30 17 1 17 18
M  V30 18 1 18 19
M  V30 19 1 19 20
M  V30 20 1 20 21
M  V30 21 1 21 22
M  V30 22 1 17 23
M  V30 23 1 23 24
M  V30 24 1 5 25
M  V30 25 2 25 26
M  V30 26 1 26 2
M  V30 27 2 10 6
M  V30 28 2 24 11
M  V30 29 1 23 14
M  V30 30 1 22 18
M  V30 31 1 3 27
M  V30 32 1 4 28
M  V30 33 1 8 29
M  V30 34 1 12 30
M  V30 35 1 13 31
M  V30 36 1 19 32
M  V30 37 1 19 33
M  V30 38 1 20 34
M  V30 39 1 20 35
M  V30 40 1 21 36
M  V30 41 1 21 37
M  V30 42 1 22 38
M  V30 43 1 22 39
M  V30 44 1 24 40
M  V30 45 1 25 41
M  V30 46 1 26 42
M  V30 END BOND
M  V30 END CTAB
M  END
>  <Dataset>  (850) 
ChEMBL_Kinases

>  <Ligand_Instance>  (850) 
nan

>  <PDB_ID>  (850) 
nan

>  <Standardized_SMILES>  (850) 
Fc1ccc(-c2ncoc2-c2ccc3nnc(N4CCCC4)n3c2)cc1

>  <Name>  (850) 
nan

>  <Pocket>  (850) 
nan

>  <ATP_Site>  (850) 
nan

>  <Peripheral>  (850) 
nan

>  <Num_H_Atoms_ProtBoundConf>  (850) 
nan

>  <Num_Resolved_Atoms>  (850) 
nan

>  <Num_Not_Resolved_Atoms>  (850) 
nan

$$$$
CHEMBL596072
     RDKit          3D

  0  0  0  0  0  0  0  0  0  0999 V3000
M  V30 BEGIN CTAB
M  V30 COUNTS 59 64 0 0 0
M  V30 BEGIN ATOM
M  V30 1 C 3.612042 -2.674587 3.973876 0
M  V30 2 C 4.072123 -1.293645 3.639791 0
M  V30 3 N 4.798890 -0.435751 4.373596 0
M  V30 4 N 4.996669 0.705081 3.702188 0
M  V30 5 C 4.383481 0.593429 2.495286 0
M  V30 6 N 4.297356 1.465437 1.470052 0
M  V30 7 C 3.623412 1.150210 0.324674 0
M  V30 8 C 3.016231 -0.079148 0.203609 0
M  V30 9 C 2.273090 -0.565593 -0.953017 0
M  V30 10 C 0.944659 -0.239597 -1.032785 0
M  V30 11 C 0.142943 -0.643219 -2.076258 0
M  V30 12 O -1.092432 -0.580199 -2.542912 0
M  V30 13 C -2.330792 -0.122864 -2.335538 0
M  V30 14 C -3.126176 -0.558935 -1.156542 0 CFG=1
M  V30 15 N -3.329602 -2.012606 -1.137517 0
M  V30 16 C -2.582854 -0.149234 0.179317 0
M  V30 17 C -3.501653 -0.643210 1.285454 0
M  V30 18 C -3.301305 -1.694586 2.158757 0
M  V30 19 N -4.381515 -1.778478 2.981886 0
M  V30 20 C -5.222873 -0.799966 2.618593 0
M  V30 21 C -6.468677 -0.503916 3.184791 0
M  V30 22 C -7.200116 0.560604 2.658280 0
M  V30 23 C -6.716270 1.323031 1.592482 0
M  V30 24 C -5.483999 0.971647 1.089640 0
M  V30 25 C -4.721958 -0.068458 1.571641 0
M  V30 26 C 0.787266 -1.422310 -3.069436 0
M  V30 27 N 2.123214 -1.763024 -3.011112 0
M  V30 28 C 2.855210 -1.325077 -1.941475 0
M  V30 29 C 4.270947 -1.684087 -1.858600 0
M  V30 30 C 5.078940 -1.106372 -2.829664 0
M  V30 31 C 6.360244 -1.597410 -2.547234 0
M  V30 32 O 6.282342 -2.386011 -1.504288 0
M  V30 33 C 5.057795 -2.477998 -1.047630 0
M  V30 34 C 3.113445 -0.973483 1.275553 0
M  V30 35 C 3.798702 -0.660839 2.447445 0
M  V30 36 H 3.656885 -3.276860 3.035484 0
M  V30 37 H 4.258191 -3.181809 4.720484 0
M  V30 38 H 2.538303 -2.687235 4.289268 0
M  V30 39 H 5.541150 1.491805 4.111912 0
M  V30 40 H 3.519474 1.788788 -0.515759 0
M  V30 41 H 0.360773 0.347863 -0.357511 0
M  V30 42 H -2.974056 -0.431920 -3.242739 0
M  V30 43 H -2.442539 1.004355 -2.392146 0
M  V30 44 H -4.179526 -0.138489 -1.189289 0
M  V30 45 H -3.865670 -2.200123 -0.251281 0
M  V30 46 H -4.010768 -2.206569 -1.920020 0
M  V30 47 H -1.594478 -0.671168 0.328443 0
M  V30 48 H -2.391406 0.924826 0.285762 0
M  V30 49 H -2.416920 -2.322716 2.153288 0
M  V30 50 H -4.429688 -2.515396 3.727212 0
M  V30 51 H -6.848957 -1.095801 4.012978 0
M  V30 52 H -8.158375 0.784242 3.098255 0
M  V30 53 H -7.332434 2.135172 1.231641 0
M  V30 54 H -5.095219 1.558278 0.258777 0
M  V30 55 H 0.444649 -1.892366 -4.010178 0
M  V30 56 H 5.079970 -0.447503 -3.682869 0
M  V30 57 H 7.412424 -1.572122 -2.869738 0
M  V30 58 H 4.508387 -2.968725 -0.261458 0
M  V30 59 H 2.659920 -1.970299 1.266126 0
M  V30 END ATOM
M  V30 BEGIN BOND
M  V30 1 1 1 2
M  V30 2 2 2 3
M  V30 3 1 3 4
M  V30 4 1 4 5
M  V30 5 2 5 6
M  V30 6 1 6 7
M  V30 7 2 7 8
M  V30 8 1 8 9
M  V30 9 2 9 10
M  V30 10 1 10 11
M  V30 11 1 11 12
M  V30 12 1 12 13
M  V30 13 1 13 14
M  V30 14 1 14 15
M  V30 15 1 14 16
M  V30 16 1 16 17
M  V30 17 2 17 18
M  V30 18 1 18 19
M  V30 19 1 19 20
M  V30 20 2 20 21
M  V30 21 1 21 22
M  V30 22 2 22 23
M  V30 23 1 23 24
M  V30 24 2 24 25
M  V30 25 2 11 26
M  V30 26 1 26 27
M  V30 27 2 27 28
M  V30 28 1 28 29
M  V30 29 1 29 30
M  V30 30 2 30 31
M  V30 31 1 31 32
M  V30 32 1 32 33
M  V30 33 1 8 34
M  V30 34 2 34 35
M  V30 35 1 35 2
M  V30 36 1 35 5
M  V30 37 1 28 9
M  V30 38 2 33 29
M  V30 39 1 25 17
M  V30 40 1 25 20
M  V30 41 1 1 36
M  V30 42 1 1 37
M  V30 43 1 1 38
M  V30 44 1 4 39
M  V30 45 1 7 40
M  V30 46 1 10 41
M  V30 47 1 13 42
M  V30 48 1 13 43
M  V30 49 1 14 44 CFG=3
M  V30 50 1 15 45
M  V30 51 1 15 46
M  V30 52 1 16 47
M  V30 53 1 16 48
M  V30 54 1 18 49
M  V30 55 1 19 50
M  V30 56 1 21 51
M  V30 57 1 22 52
M  V30 58 1 23 53
M  V30 59 1 24 54
M  V30 60 1 26 55
M  V30 61 1 30 56
M  V30 62 1 31 57
M  V30 63 1 33 58
M  V30 64 1 34 59
M  V30 END BOND
M  V30 END CTAB
M  END
>  <Dataset>  (851) 
ChEMBL_Kinases

>  <Ligand_Instance>  (851) 
nan

>  <PDB_ID>  (851) 
nan

>  <Standardized_SMILES>  (851) 
Cc1n[nH]c2ncc(-c3cc(OC[C@@H](N)Cc4c[nH]c5ccccc45)cnc3-c3ccoc3)cc12

>  <Name>  (851) 
nan

>  <Pocket>  (851) 
nan

>  <ATP_Site>  (851) 
nan

>  <Peripheral>  (851) 
nan

>  <Num_H_Atoms_ProtBoundConf>  (851) 
nan

>  <Num_Resolved_Atoms>  (851) 
nan

>  <Num_Not_Resolved_Atoms>  (851) 
nan

$$$$
CHEMBL386760
     RDKit          3D

  0  0  0  0  0  0  0  0  0  0999 V3000
M  V30 BEGIN CTAB
M  V30 COUNTS 96 100 0 0 0
M  V30 BEGIN ATOM
M  V30 1 C 1.249922 -6.110623 6.604586 0
M  V30 2 O 1.645660 -5.555263 5.340165 0
M  V30 3 C 0.816467 -4.620046 4.720568 0
M  V30 4 C -0.370407 -4.215086 5.291296 0
M  V30 5 C -1.093577 -3.279005 4.563909 0
M  V30 6 C -0.589325 -2.827155 3.347361 0
M  V30 7 N -1.434673 -1.875158 2.728252 0
M  V30 8 C -0.836873 -0.680822 3.224146 0
M  V30 9 O 0.187595 -0.803250 3.974035 0
M  V30 10 O -1.173693 0.665127 3.041073 0
M  V30 11 C -0.441146 1.684841 3.629561 0
M  V30 12 C -0.796184 2.039429 4.914714 0
M  V30 13 C -1.912016 1.347126 5.625636 0
M  V30 14 C -0.117584 3.044296 5.560174 0
M  V30 15 C 0.919609 3.709773 4.942630 0
M  V30 16 C 1.293272 3.373754 3.660284 0
M  V30 17 C 0.612675 2.363277 3.008661 0
M  V30 18 C 0.903030 1.880552 1.610141 0
M  V30 19 C -2.523794 -1.511517 1.900471 0
M  V30 20 C -3.672700 -1.316651 2.649891 0
M  V30 21 C -4.824865 -0.939589 1.965915 0
M  V30 22 N -4.699837 -0.801803 0.640258 0
M  V30 23 C -3.584052 -0.993635 -0.069381 0
M  V30 24 N -3.663024 -0.763106 -1.468925 0
M  V30 25 C -2.699957 -1.067649 -2.450041 0
M  V30 26 C -1.688835 -2.011153 -2.269710 0
M  V30 27 C -0.751127 -2.262348 -3.274049 0
M  V30 28 O 0.239687 -3.214723 -3.044275 0
M  V30 29 C 0.248768 -3.884498 -1.804520 0
M  V30 30 C -0.785096 -1.581743 -4.498090 0
M  V30 31 O 0.149707 -1.911145 -5.360165 0
M  V30 32 C 1.402561 -1.656570 -5.778520 0
M  V30 33 C 1.808041 -0.337306 -6.281631 0
M  V30 34 C 1.737483 0.874733 -5.448675 0
M  V30 35 N 2.476824 0.935849 -4.243583 0
M  V30 36 C 2.635569 2.321728 -3.764888 0
M  V30 37 C 1.344203 2.986981 -3.442999 0
M  V30 38 N 0.316782 1.951577 -3.210542 0
M  V30 39 C -0.891346 2.520569 -2.706020 0
M  V30 40 C 0.870780 0.916008 -2.356940 0
M  V30 41 C 1.972406 0.212789 -3.115874 0
M  V30 42 C -1.780547 -0.647489 -4.683272 0
M  V30 43 O -1.814383 0.025148 -5.891117 0
M  V30 44 C -2.763148 1.005546 -6.237896 0
M  V30 45 C -2.684037 -0.430435 -3.668991 0
M  V30 46 N -2.474697 -1.358299 0.587497 0
M  V30 47 C 0.601709 -3.251110 2.801612 0
M  V30 48 O 1.037773 -2.757717 1.592412 0
M  V30 49 C 2.260426 -3.203198 1.055578 0
M  V30 50 C 1.322268 -4.177718 3.517315 0
M  V30 51 H 0.250542 -6.570140 6.494809 0
M  V30 52 H 1.943962 -6.925450 6.903440 0
M  V30 53 H 1.141168 -5.332123 7.378640 0
M  V30 54 H -0.667017 -4.624957 6.234870 0
M  V30 55 H -2.023802 -2.957132 5.004999 0
M  V30 56 H -1.893950 1.607766 6.702587 0
M  V30 57 H -1.854421 0.252129 5.467524 0
M  V30 58 H -2.895299 1.733920 5.251779 0
M  V30 59 H -0.321033 3.390150 6.569851 0
M  V30 60 H 1.493198 4.515006 5.424404 0
M  V30 61 H 2.094574 3.836404 3.099568 0
M  V30 62 H -0.091293 1.878602 1.079420 0
M  V30 63 H 1.351797 0.887462 1.595539 0
M  V30 64 H 1.509486 2.649035 1.114448 0
M  V30 65 H -3.774550 -1.421369 3.722079 0
M  V30 66 H -5.795866 -0.749059 2.400145 0
M  V30 67 H -4.539609 -0.310026 -1.862323 0
M  V30 68 H -1.688924 -2.526621 -1.321002 0
M  V30 69 H 0.173426 -3.209450 -0.944713 0
M  V30 70 H 1.232392 -4.427019 -1.676074 0
M  V30 71 H -0.571106 -4.632519 -1.825964 0
M  V30 72 H 1.557284 -2.356131 -6.706798 0
M  V30 73 H 2.239872 -2.038533 -5.131538 0
M  V30 74 H 1.231588 -0.133027 -7.231285 0
M  V30 75 H 2.864595 -0.479999 -6.696653 0
M  V30 76 H 0.656706 1.149480 -5.342524 0
M  V30 77 H 2.147131 1.720853 -6.096914 0
M  V30 78 H 3.249315 2.861834 -4.512170 0
M  V30 79 H 3.297946 2.208174 -2.860988 0
M  V30 80 H 0.985417 3.620161 -4.265274 0
M  V30 81 H 1.492982 3.575285 -2.504895 0
M  V30 82 H -1.561085 1.809394 -2.220686 0
M  V30 83 H -0.703078 3.402156 -2.058385 0
M  V30 84 H -1.446014 2.943767 -3.596520 0
M  V30 85 H 0.067857 0.242021 -2.006115 0
M  V30 86 H 1.314723 1.362463 -1.434494 0
M  V30 87 H 1.742961 -0.850282 -3.281707 0
M  V30 88 H 2.858825 0.161780 -2.391477 0
M  V30 89 H -3.027853 1.612599 -5.347952 0
M  V30 90 H -3.665951 0.489418 -6.562450 0
M  V30 91 H -2.311222 1.614107 -7.045423 0
M  V30 92 H -3.446944 0.300191 -3.844670 0
M  V30 93 H 2.329349 -4.297444 1.039445 0
M  V30 94 H 2.370239 -2.807326 0.021669 0
M  V30 95 H 3.152201 -2.826428 1.608302 0
M  V30 96 H 2.252259 -4.501567 3.081132 0
M  V30 END ATOM
M  V30 BEGIN BOND
M  V30 1 1 1 2
M  V30 2 1 2 3
M  V30 3 2 3 4
M  V30 4 1 4 5
M  V30 5 2 5 6
M  V30 6 1 6 7
M  V30 7 1 7 8
M  V30 8 2 8 9
M  V30 9 1 8 10
M  V30 10 1 10 11
M  V30 11 2 11 12
M  V30 12 1 12 13
M  V30 13 1 12 14
M  V30 14 2 14 15
M  V30 15 1 15 16
M  V30 16 2 16 17
M  V30 17 1 17 18
M  V30 18 1 7 19
M  V30 19 2 19 20
M  V30 20 1 20 21
M  V30 21 2 21 22
M  V30 22 1 22 23
M  V30 23 1 23 24
M  V30 24 1 24 25
M  V30 25 2 25 26
M  V30 26 1 26 27
M  V30 27 1 27 28
M  V30 28 1 28 29
M  V30 29 2 27 30
M  V30 30 1 30 31
M  V30 31 1 31 32
M  V30 32 1 32 33
M  V30 33 1 33 34
M  V30 34 1 34 35
M  V30 35 1 35 36
M  V30 36 1 36 37
M  V30 37 1 37 38
M  V30 38 1 38 39
M  V30 39 1 38 40
M  V30 40 1 40 41
M  V30 41 1 30 42
M  V30 42 1 42 43
M  V30 43 1 43 44
M  V30 44 2 42 45
M  V30 45 2 23 46
M  V30 46 1 6 47
M  V30 47 1 47 48
M  V30 48 1 48 49
M  V30 49 2 47 50
M  V30 50 1 50 3
M  V30 51 1 17 11
M  V30 52 1 46 19
M  V30 53 1 45 25
M  V30 54 1 41 35
M  V30 55 1 1 51
M  V30 56 1 1 52
M  V30 57 1 1 53
M  V30 58 1 4 54
M  V30 59 1 5 55
M  V30 60 1 13 56
M  V30 61 1 13 57
M  V30 62 1 13 58
M  V30 63 1 14 59
M  V30 64 1 15 60
M  V30 65 1 16 61
M  V30 66 1 18 62
M  V30 67 1 18 63
M  V30 68 1 18 64
M  V30 69 1 20 65
M  V30 70 1 21 66
M  V30 71 1 24 67
M  V30 72 1 26 68
M  V30 73 1 29 69
M  V30 74 1 29 70
M  V30 75 1 29 71
M  V30 76 1 32 72
M  V30 77 1 32 73
M  V30 78 1 33 74
M  V30 79 1 33 75
M  V30 80 1 34 76
M  V30 81 1 34 77
M  V30 82 1 36 78
M  V30 83 1 36 79
M  V30 84 1 37 80
M  V30 85 1 37 81
M  V30 86 1 39 82
M  V30 87 1 39 83
M  V30 88 1 39 84
M  V30 89 1 40 85
M  V30 90 1 40 86
M  V30 91 1 41 87
M  V30 92 1 41 88
M  V30 93 1 44 89
M  V30 94 1 44 90
M  V30 95 1 44 91
M  V30 96 1 45 92
M  V30 97 1 49 93
M  V30 98 1 49 94
M  V30 99 1 49 95
M  V30 100 1 50 96
M  V30 END BOND
M  V30 END CTAB
M  END
>  <Dataset>  (852) 
ChEMBL_Kinases

>  <Ligand_Instance>  (852) 
nan

>  <PDB_ID>  (852) 
nan

>  <Standardized_SMILES>  (852) 
COc1ccc(N(C(=O)Oc2c(C)cccc2C)c2ccnc(Nc3cc(OC)c(OCCCN4CCN(C)CC4)c(OC)c3)n2)c(OC)c1

>  <Name>  (852) 
nan

>  <Pocket>  (852) 
nan

>  <ATP_Site>  (852) 
nan

>  <Peripheral>  (852) 
nan

>  <Num_H_Atoms_ProtBoundConf>  (852) 
nan

>  <Num_Resolved_Atoms>  (852) 
nan

>  <Num_Not_Resolved_Atoms>  (852) 
nan

$$$$
CHEMBL386742
     RDKit          3D

  0  0  0  0  0  0  0  0  0  0999 V3000
M  V30 BEGIN CTAB
M  V30 COUNTS 30 33 0 0 0
M  V30 BEGIN ATOM
M  V30 1 F -2.265457 -3.372175 4.259660 0
M  V30 2 C -1.293909 -3.049484 3.372400 0
M  V30 3 C -1.166953 -3.700236 2.159677 0
M  V30 4 C -0.185314 -3.394525 1.231666 0
M  V30 5 C 0.731868 -2.384744 1.510509 0
M  V30 6 C 1.780683 -2.032992 0.565944 0
M  V30 7 N 2.865708 -2.798671 0.359666 0
M  V30 8 C 3.610239 -2.149896 -0.575124 0
M  V30 9 O 3.004353 -1.025545 -0.930568 0
M  V30 10 C 1.865317 -0.901578 -0.255244 0
M  V30 11 C 0.888632 0.178970 -0.335580 0
M  V30 12 C 0.315102 0.243507 -1.612833 0
M  V30 13 C -0.642818 1.247904 -1.807598 0
M  V30 14 C -1.017177 2.128055 -0.830895 0
M  V30 15 N -1.885113 3.144259 -0.777679 0
M  V30 16 N -1.845058 3.663805 0.444391 0
M  V30 17 C -0.951306 2.969927 1.151586 0
M  V30 18 N -0.429790 2.011983 0.368269 0
M  V30 19 C 0.497116 1.076427 0.635348 0
M  V30 20 C 0.619960 -1.716363 2.729917 0
M  V30 21 C -0.373714 -2.054018 3.624211 0
M  V30 22 H -1.898211 -4.488256 1.963816 0
M  V30 23 H -0.138614 -3.939248 0.302219 0
M  V30 24 H 4.549413 -2.253918 -1.130953 0
M  V30 25 H 0.528452 -0.392458 -2.459287 0
M  V30 26 H -1.129938 1.361032 -2.767613 0
M  V30 27 H -0.662128 3.122824 2.195690 0
M  V30 28 H 1.002119 0.939220 1.581071 0
M  V30 29 H 1.281175 -0.933521 3.026161 0
M  V30 30 H -0.451764 -1.517426 4.584080 0
M  V30 END ATOM
M  V30 BEGIN BOND
M  V30 1 1 1 2
M  V30 2 2 2 3
M  V30 3 1 3 4
M  V30 4 2 4 5
M  V30 5 1 5 6
M  V30 6 1 6 7
M  V30 7 2 7 8
M  V30 8 1 8 9
M  V30 9 1 9 10
M  V30 10 1 10 11
M  V30 11 1 11 12
M  V30 12 2 12 13
M  V30 13 1 13 14
M  V30 14 2 14 15
M  V30 15 1 15 16
M  V30 16 2 16 17
M  V30 17 1 17 18
M  V30 18 1 18 19
M  V30 19 1 5 20
M  V30 20 2 20 21
M  V30 21 1 21 2
M  V30 22 2 10 6
M  V30 23 2 19 11
M  V30 24 1 18 14
M  V30 25 1 3 22
M  V30 26 1 4 23
M  V30 27 1 8 24
M  V30 28 1 12 25
M  V30 29 1 13 26
M  V30 30 1 17 27
M  V30 31 1 19 28
M  V30 32 1 20 29
M  V30 33 1 21 30
M  V30 END BOND
M  V30 END CTAB
M  END
>  <Dataset>  (853) 
ChEMBL_Kinases

>  <Ligand_Instance>  (853) 
nan

>  <PDB_ID>  (853) 
nan

>  <Standardized_SMILES>  (853) 
Fc1ccc(-c2ncoc2-c2ccc3nncn3c2)cc1

>  <Name>  (853) 
nan

>  <Pocket>  (853) 
nan

>  <ATP_Site>  (853) 
nan

>  <Peripheral>  (853) 
nan

>  <Num_H_Atoms_ProtBoundConf>  (853) 
nan

>  <Num_Resolved_Atoms>  (853) 
nan

>  <Num_Not_Resolved_Atoms>  (853) 
nan

$$$$
CHEMBL386661
     RDKit          3D

  0  0  0  0  0  0  0  0  0  0999 V3000
M  V30 BEGIN CTAB
M  V30 COUNTS 70 74 0 0 0
M  V30 BEGIN ATOM
M  V30 1 C 6.517556 -2.369362 6.135612 0
M  V30 2 N 5.188577 -1.764168 6.210619 0
M  V30 3 C 4.444488 -1.452368 5.033265 0
M  V30 4 N 3.573960 -2.277230 4.395532 0
M  V30 5 C 2.935055 -1.851661 3.286333 0
M  V30 6 C 3.118737 -0.595098 2.747715 0
M  V30 7 C 2.473190 -0.146005 1.614829 0
M  V30 8 C 2.685714 1.135573 1.098546 0
M  V30 9 C 1.960169 1.532200 -0.101275 0
M  V30 10 C 0.615253 1.238089 -0.075049 0
M  V30 11 C -0.173405 1.579237 -1.169944 0
M  V30 12 C -1.604133 1.367332 -1.361748 0
M  V30 13 O -2.303204 1.688779 -2.355821 0
M  V30 14 N -2.329710 0.727069 -0.330418 0
M  V30 15 C -3.693615 0.358996 -0.161327 0
M  V30 16 C -4.446533 1.369470 0.449148 0
M  V30 17 C -5.794892 1.198844 0.698814 0
M  V30 18 C -6.620121 2.253874 1.345961 0
M  V30 19 F -7.054744 1.818579 2.604272 0
M  V30 20 F -5.784176 3.330806 1.605786 0
M  V30 21 F -7.662294 2.687307 0.582075 0
M  V30 22 C -6.356921 -0.002943 0.321241 0
M  V30 23 C -5.636774 -1.010173 -0.280064 0
M  V30 24 C -4.293909 -0.850438 -0.533115 0
M  V30 25 O -3.342904 -1.670955 -1.110173 0
M  V30 26 C -3.586346 -2.970297 -1.604666 0
M  V30 27 C -3.288452 -3.004748 -3.089484 0
M  V30 28 C -1.824778 -2.982869 -3.397036 0
M  V30 29 N -1.094563 -4.050016 -2.763831 0
M  V30 30 C 0.109853 -3.527578 -2.162184 0
M  V30 31 C -1.889768 -4.805782 -1.836041 0
M  V30 32 C -2.678163 -3.955295 -0.891595 0
M  V30 33 C 0.423154 2.211572 -2.266717 0
M  V30 34 C 1.768809 2.512274 -2.307154 0
M  V30 35 C 2.512825 2.155808 -1.199445 0
M  V30 36 C 3.953440 2.449071 -1.192062 0
M  V30 37 C 3.581674 1.915386 1.798171 0
M  V30 38 C 4.234361 1.480845 2.931327 0
M  V30 39 C 4.009125 0.214214 3.421411 0
M  V30 40 N 4.642224 -0.220398 4.528534 0
M  V30 41 H 6.738803 -3.005824 7.009493 0
M  V30 42 H 7.226111 -1.494485 6.087225 0
M  V30 43 H 6.656168 -2.894516 5.162212 0
M  V30 44 H 4.772517 -1.554296 7.146333 0
M  V30 45 H 2.252135 -2.527136 2.803492 0
M  V30 46 H 1.786441 -0.855410 1.147904 0
M  V30 47 H 0.066534 0.760101 0.709154 0
M  V30 48 H -1.932579 0.379774 0.582961 0
M  V30 49 H -4.047642 2.321138 0.759313 0
M  V30 50 H -7.413097 -0.211316 0.484877 0
M  V30 51 H -5.988111 -1.972716 -0.606027 0
M  V30 52 H -4.651832 -3.232874 -1.453796 0
M  V30 53 H -3.794897 -3.844389 -3.601035 0
M  V30 54 H -3.731958 -2.081702 -3.542839 0
M  V30 55 H -1.355125 -2.026067 -3.170636 0
M  V30 56 H -1.735208 -3.161498 -4.497537 0
M  V30 57 H 0.998361 -4.152060 -2.400944 0
M  V30 58 H 0.283917 -2.480267 -2.539026 0
M  V30 59 H 0.063746 -3.447374 -1.060901 0
M  V30 60 H -2.559293 -5.521040 -2.324634 0
M  V30 61 H -1.171211 -5.393630 -1.220021 0
M  V30 62 H -2.031905 -3.428712 -0.144619 0
M  V30 63 H -3.325889 -4.617624 -0.284402 0
M  V30 64 H -0.124009 2.515911 -3.172689 0
M  V30 65 H 2.230788 2.999595 -3.151260 0
M  V30 66 H 4.170808 3.484661 -0.858088 0
M  V30 67 H 4.518193 1.760874 -0.530435 0
M  V30 68 H 4.391750 2.278977 -2.208844 0
M  V30 69 H 3.766245 2.909205 1.428350 0
M  V30 70 H 4.933249 2.140439 3.444878 0
M  V30 END ATOM
M  V30 BEGIN BOND
M  V30 1 1 1 2
M  V30 2 1 2 3
M  V30 3 2 3 4
M  V30 4 1 4 5
M  V30 5 2 5 6
M  V30 6 1 6 7
M  V30 7 2 7 8
M  V30 8 1 8 9
M  V30 9 2 9 10
M  V30 10 1 10 11
M  V30 11 1 11 12
M  V30 12 2 12 13
M  V30 13 1 12 14
M  V30 14 1 14 15
M  V30 15 2 15 16
M  V30 16 1 16 17
M  V30 17 1 17 18
M  V30 18 1 18 19
M  V30 19 1 18 20
M  V30 20 1 18 21
M  V30 21 2 17 22
M  V30 22 1 22 23
M  V30 23 2 23 24
M  V30 24 1 24 25
M  V30 25 1 25 26
M  V30 26 1 26 27
M  V30 27 1 27 28
M  V30 28 1 28 29
M  V30 29 1 29 30
M  V30 30 1 29 31
M  V30 31 1 31 32
M  V30 32 2 11 33
M  V30 33 1 33 34
M  V30 34 2 34 35
M  V30 35 1 35 36
M  V30 36 1 8 37
M  V30 37 2 37 38
M  V30 38 1 38 39
M  V30 39 2 39 40
M  V30 40 1 40 3
M  V30 41 1 39 6
M  V30 42 1 35 9
M  V30 43 1 24 15
M  V30 44 1 32 26
M  V30 45 1 1 41
M  V30 46 1 1 42
M  V30 47 1 1 43
M  V30 48 1 2 44
M  V30 49 1 5 45
M  V30 50 1 7 46
M  V30 51 1 10 47
M  V30 52 1 14 48
M  V30 53 1 16 49
M  V30 54 1 22 50
M  V30 55 1 23 51
M  V30 56 1 26 52
M  V30 57 1 27 53
M  V30 58 1 27 54
M  V30 59 1 28 55
M  V30 60 1 28 56
M  V30 61 1 30 57
M  V30 62 1 30 58
M  V30 63 1 30 59
M  V30 64 1 31 60
M  V30 65 1 31 61
M  V30 66 1 32 62
M  V30 67 1 32 63
M  V30 68 1 33 64
M  V30 69 1 34 65
M  V30 70 1 36 66
M  V30 71 1 36 67
M  V30 72 1 36 68
M  V30 73 1 37 69
M  V30 74 1 38 70
M  V30 END BOND
M  V30 END CTAB
M  END
>  <Dataset>  (854) 
ChEMBL_Kinases

>  <Ligand_Instance>  (854) 
nan

>  <PDB_ID>  (854) 
nan

>  <Standardized_SMILES>  (854) 
CNc1ncc2cc(-c3cc(C(=O)Nc4cc(C(F)(F)F)ccc4OC4CCN(C)CC4)ccc3C)ccc2n1

>  <Name>  (854) 
nan

>  <Pocket>  (854) 
nan

>  <ATP_Site>  (854) 
nan

>  <Peripheral>  (854) 
nan

>  <Num_H_Atoms_ProtBoundConf>  (854) 
nan

>  <Num_Resolved_Atoms>  (854) 
nan

>  <Num_Not_Resolved_Atoms>  (854) 
nan

$$$$
CHEMBL493250
     RDKit          3D

  0  0  0  0  0  0  0  0  0  0999 V3000
M  V30 BEGIN CTAB
M  V30 COUNTS 49 52 0 0 0
M  V30 BEGIN ATOM
M  V30 1 C 1.195705 -4.177362 0.572479 0
M  V30 2 C 0.715595 -3.126494 -0.398364 0
M  V30 3 N 0.820164 -1.793969 0.124359 0
M  V30 4 C 1.900774 -1.007430 -0.017664 0
M  V30 5 C 3.166679 -1.267199 -0.687955 0
M  V30 6 N 3.596188 -2.359188 -1.343620 0
M  V30 7 O 4.813540 -2.139038 -1.787480 0
M  V30 8 N 5.203213 -0.945615 -1.450428 0
M  V30 9 C 4.198238 -0.353496 -0.753818 0
M  V30 10 N 4.304522 0.970760 -0.235746 0
M  V30 11 N 1.624119 0.167902 0.606319 0
M  V30 12 C 0.381168 0.100864 1.127258 0
M  V30 13 C -0.327405 1.038339 1.840836 0
M  V30 14 C 0.172113 2.364612 2.185780 0
M  V30 15 C 1.472641 2.363419 2.662517 0
M  V30 16 C 2.072658 3.543440 3.026458 0
M  V30 17 C 1.388140 4.753132 2.922999 0
M  V30 18 C 0.089957 4.748244 2.446381 0
M  V30 19 C -0.516697 3.549727 2.077750 0
M  V30 20 N -1.562963 0.701016 2.243614 0
M  V30 21 C -2.097611 -0.498574 1.968282 0
M  V30 22 C -1.453786 -1.480476 1.263775 0
M  V30 23 O -1.801829 -2.735258 0.883499 0
M  V30 24 C -3.000881 -3.396043 1.118249 0
M  V30 25 C -4.226766 -2.787003 0.517203 0
M  V30 26 C -4.044681 -2.734252 -0.995362 0
M  V30 27 N -2.899618 -1.941363 -1.333278 0
M  V30 28 C -0.162511 -1.155739 0.831283 0
M  V30 29 H 2.053989 -4.756047 0.221348 0
M  V30 30 H 0.358550 -4.888945 0.741689 0
M  V30 31 H 1.521086 -3.720550 1.549753 0
M  V30 32 H -0.297929 -3.348716 -0.791032 0
M  V30 33 H 1.382597 -3.223485 -1.297929 0
M  V30 34 H 4.641511 1.452227 0.620352 0
M  V30 35 H 3.964768 1.786749 -0.823502 0
M  V30 36 H 2.095347 1.478255 2.782894 0
M  V30 37 H 3.101633 3.582658 3.408553 0
M  V30 38 H 1.831548 5.701730 3.201288 0
M  V30 39 H -0.516948 5.623952 2.330645 0
M  V30 40 H -1.518148 3.422203 1.694980 0
M  V30 41 H -3.083369 -0.755548 2.308692 0
M  V30 42 H -2.971987 -4.455798 0.717339 0
M  V30 43 H -3.163177 -3.498994 2.235272 0
M  V30 44 H -4.559473 -1.836159 0.901511 0
M  V30 45 H -5.049440 -3.548466 0.677980 0
M  V30 46 H -3.897997 -3.744586 -1.417457 0
M  V30 47 H -4.944257 -2.243832 -1.431207 0
M  V30 48 H -3.159646 -1.079060 -1.861433 0
M  V30 49 H -2.216427 -2.457997 -1.939463 0
M  V30 END ATOM
M  V30 BEGIN BOND
M  V30 1 1 1 2
M  V30 2 1 2 3
M  V30 3 1 3 4
M  V30 4 1 4 5
M  V30 5 2 5 6
M  V30 6 1 6 7
M  V30 7 1 7 8
M  V30 8 2 8 9
M  V30 9 1 9 10
M  V30 10 2 4 11
M  V30 11 1 11 12
M  V30 12 2 12 13
M  V30 13 1 13 14
M  V30 14 2 14 15
M  V30 15 1 15 16
M  V30 16 2 16 17
M  V30 17 1 17 18
M  V30 18 2 18 19
M  V30 19 1 13 20
M  V30 20 2 20 21
M  V30 21 1 21 22
M  V30 22 1 22 23
M  V30 23 1 23 24
M  V30 24 1 24 25
M  V30 25 1 25 26
M  V30 26 1 26 27
M  V30 27 2 22 28
M  V30 28 1 28 3
M  V30 29 1 9 5
M  V30 30 1 28 12
M  V30 31 1 19 14
M  V30 32 1 1 29
M  V30 33 1 1 30
M  V30 34 1 1 31
M  V30 35 1 2 32
M  V30 36 1 2 33
M  V30 37 1 10 34
M  V30 38 1 10 35
M  V30 39 1 15 36
M  V30 40 1 16 37
M  V30 41 1 17 38
M  V30 42 1 18 39
M  V30 43 1 19 40
M  V30 44 1 21 41
M  V30 45 1 24 42
M  V30 46 1 24 43
M  V30 47 1 25 44
M  V30 48 1 25 45
M  V30 49 1 26 46
M  V30 50 1 26 47
M  V30 51 1 27 48
M  V30 52 1 27 49
M  V30 END BOND
M  V30 END CTAB
M  END
>  <Dataset>  (855) 
ChEMBL_Kinases

>  <Ligand_Instance>  (855) 
nan

>  <PDB_ID>  (855) 
nan

>  <Standardized_SMILES>  (855) 
CCn1c(-c2nonc2N)nc2c(-c3ccccc3)ncc(OCCCN)c21

>  <Name>  (855) 
nan

>  <Pocket>  (855) 
nan

>  <ATP_Site>  (855) 
nan

>  <Peripheral>  (855) 
nan

>  <Num_H_Atoms_ProtBoundConf>  (855) 
nan

>  <Num_Resolved_Atoms>  (855) 
nan

>  <Num_Not_Resolved_Atoms>  (855) 
nan

$$$$
CHEMBL386469
     RDKit          3D

  0  0  0  0  0  0  0  0  0  0999 V3000
M  V30 BEGIN CTAB
M  V30 COUNTS 49 51 0 0 0
M  V30 BEGIN ATOM
M  V30 1 N 1.436664 0.039354 0.945795 0
M  V30 2 C 1.890199 1.195622 0.281771 0
M  V30 3 N 2.933851 1.893290 0.465107 0
M  V30 4 O 3.928667 1.711436 1.376144 0
M  V30 5 C 4.489885 0.424664 1.548249 0
M  V30 6 C 5.820840 0.600541 2.299560 0
M  V30 7 O 6.623813 1.420774 1.470818 0
M  V30 8 C 5.490054 1.328409 3.586575 0
M  V30 9 O 6.650122 1.676186 4.284900 0
M  V30 10 C 1.071865 1.720228 -0.803890 0
M  V30 11 C 0.875217 3.062862 -1.106818 0
M  V30 12 O 1.405502 4.158008 -0.416439 0
M  V30 13 N 0.157865 3.535656 -2.092316 0
M  V30 14 S -0.443243 1.930184 -2.863892 0
M  V30 15 C 0.418442 0.977049 -1.668468 0
M  V30 16 N 0.236051 -0.477883 -1.843176 0
M  V30 17 C -1.041889 -0.973692 -1.457681 0
M  V30 18 C -2.001803 -0.107108 -0.977701 0
M  V30 19 C -3.267579 -0.518062 -0.603841 0
M  V30 20 C -3.631565 -1.842765 -0.696815 0
M  V30 21 O -4.807220 -2.479264 -0.392106 0
M  V30 22 C -4.999880 -3.137859 0.799500 0
M  V30 23 C -5.278137 -4.472545 0.500743 0
M  V30 24 C -5.523037 -5.409065 1.492653 0
M  V30 25 Cl -5.881946 -7.109609 1.219034 0
M  V30 26 C -5.498859 -5.046032 2.825521 0
M  V30 27 C -5.222879 -3.723626 3.101995 0
M  V30 28 C -4.980826 -2.799697 2.116073 0
M  V30 29 Cl -4.625391 -1.109449 2.380406 0
M  V30 30 C -2.675703 -2.728431 -1.177583 0
M  V30 31 C -1.405506 -2.278202 -1.546830 0
M  V30 32 H 1.016217 0.080892 1.915272 0
M  V30 33 H 1.648328 -0.692440 0.231019 0
M  V30 34 H 3.849955 -0.163852 2.243701 0
M  V30 35 H 4.617677 -0.144685 0.623800 0
M  V30 36 H 6.300605 -0.370305 2.434032 0
M  V30 37 H 6.420426 1.159663 0.525896 0
M  V30 38 H 4.881151 0.658444 4.212829 0
M  V30 39 H 4.900697 2.226359 3.362351 0
M  V30 40 H 7.191776 2.281466 3.709057 0
M  V30 41 H 2.211725 4.154664 0.159835 0
M  V30 42 H 0.906401 -1.163455 -2.203371 0
M  V30 43 H -1.814099 0.953137 -0.868560 0
M  V30 44 H -4.048892 0.126012 -0.235064 0
M  V30 45 H -5.346861 -4.970694 -0.475500 0
M  V30 46 H -5.668707 -5.664851 3.693840 0
M  V30 47 H -5.168107 -3.272433 4.104464 0
M  V30 48 H -2.807448 -3.797751 -1.309035 0
M  V30 49 H -0.641519 -2.968594 -1.926254 0
M  V30 END ATOM
M  V30 BEGIN BOND
M  V30 1 1 1 2
M  V30 2 2 2 3
M  V30 3 1 3 4
M  V30 4 1 4 5
M  V30 5 1 5 6
M  V30 6 1 6 7
M  V30 7 1 6 8
M  V30 8 1 8 9
M  V30 9 1 2 10
M  V30 10 1 10 11
M  V30 11 1 11 12
M  V30 12 2 11 13
M  V30 13 1 13 14
M  V30 14 1 14 15
M  V30 15 1 15 16
M  V30 16 1 16 17
M  V30 17 2 17 18
M  V30 18 1 18 19
M  V30 19 2 19 20
M  V30 20 1 20 21
M  V30 21 1 21 22
M  V30 22 2 22 23
M  V30 23 1 23 24
M  V30 24 1 24 25
M  V30 25 2 24 26
M  V30 26 1 26 27
M  V30 27 2 27 28
M  V30 28 1 28 29
M  V30 29 1 20 30
M  V30 30 2 30 31
M  V30 31 2 15 10
M  V30 32 1 31 17
M  V30 33 1 28 22
M  V30 34 1 1 32
M  V30 35 1 1 33
M  V30 36 1 5 34
M  V30 37 1 5 35
M  V30 38 1 6 36
M  V30 39 1 7 37
M  V30 40 1 8 38
M  V30 41 1 8 39
M  V30 42 1 9 40
M  V30 43 1 12 41
M  V30 44 1 16 42
M  V30 45 1 18 43
M  V30 46 1 19 44
M  V30 47 1 23 45
M  V30 48 1 26 46
M  V30 49 1 27 47
M  V30 50 1 30 48
M  V30 51 1 31 49
M  V30 END BOND
M  V30 END CTAB
M  END
>  <Dataset>  (856) 
ChEMBL_Kinases

>  <Ligand_Instance>  (856) 
nan

>  <PDB_ID>  (856) 
nan

>  <Standardized_SMILES>  (856) 
N/C(=N\OCC(O)CO)c1c(O)nsc1Nc1ccc(Oc2cc(Cl)ccc2Cl)cc1

>  <Name>  (856) 
nan

>  <Pocket>  (856) 
nan

>  <ATP_Site>  (856) 
nan

>  <Peripheral>  (856) 
nan

>  <Num_H_Atoms_ProtBoundConf>  (856) 
nan

>  <Num_Resolved_Atoms>  (856) 
nan

>  <Num_Not_Resolved_Atoms>  (856) 
nan

$$$$
CHEMBL386467
     RDKit          3D

  0  0  0  0  0  0  0  0  0  0999 V3000
M  V30 BEGIN CTAB
M  V30 COUNTS 43 47 0 0 0
M  V30 BEGIN ATOM
M  V30 1 O 0.947102 -4.150196 2.948692 0
M  V30 2 C 1.048880 -3.059598 2.330153 0
M  V30 3 C 2.162081 -2.663971 1.640739 0
M  V30 4 C 3.362492 -3.310329 1.465816 0
M  V30 5 C 4.311011 -2.665795 0.718950 0
M  V30 6 C 4.236427 -1.444770 0.105483 0
M  V30 7 C 3.055544 -0.768998 0.257529 0
M  V30 8 C 2.620127 0.543061 -0.259462 0
M  V30 9 N 1.464241 0.408957 -0.967061 0
M  V30 10 C 0.846176 1.485636 -1.542972 0
M  V30 11 C -0.332068 1.277296 -2.249137 0
M  V30 12 C -0.941489 2.358172 -2.816881 0
M  V30 13 C -0.349060 3.590079 -2.653908 0
M  V30 14 C 0.813884 3.796406 -1.957573 0
M  V30 15 C 1.446686 2.712946 -1.374362 0
M  V30 16 N 2.605565 2.857434 -0.668138 0
M  V30 17 C 3.186294 1.784403 -0.116539 0
M  V30 18 O 4.355825 1.769875 0.623923 0
M  V30 19 C 2.062664 -1.404091 1.021441 0
M  V30 20 S 0.358837 -0.828364 1.453138 0
M  V30 21 N -0.049531 -2.322940 2.416108 0
M  V30 22 C -1.322346 -2.417754 3.001951 0
M  V30 23 C -1.816789 -1.011572 3.334607 0
M  V30 24 C -3.272617 -1.239104 3.604753 0
M  V30 25 C -3.664758 -2.396476 2.726958 0
M  V30 26 C -2.403004 -2.870738 2.040127 0
M  V30 27 H 3.560735 -4.281747 1.891300 0
M  V30 28 H 5.270339 -3.193481 0.585738 0
M  V30 29 H 4.960027 -0.914442 -0.484845 0
M  V30 30 H -0.712817 0.246198 -2.314916 0
M  V30 31 H -1.852700 2.125087 -3.349273 0
M  V30 32 H -0.877518 4.428509 -3.128837 0
M  V30 33 H 1.236111 4.795227 -1.861518 0
M  V30 34 H 4.267123 1.574806 1.627681 0
M  V30 35 H -1.294852 -3.008998 3.916702 0
M  V30 36 H -1.665986 -0.439371 2.368028 0
M  V30 37 H -1.256864 -0.550117 4.179205 0
M  V30 38 H -3.390231 -1.479942 4.682871 0
M  V30 39 H -3.844368 -0.315028 3.353479 0
M  V30 40 H -4.106966 -3.180944 3.399978 0
M  V30 41 H -4.387603 -2.012848 1.977313 0
M  V30 42 H -2.259729 -2.259699 1.118390 0
M  V30 43 H -2.401907 -3.942158 1.843161 0
M  V30 END ATOM
M  V30 BEGIN BOND
M  V30 1 2 1 2
M  V30 2 1 2 3
M  V30 3 2 3 4
M  V30 4 1 4 5
M  V30 5 2 5 6
M  V30 6 1 6 7
M  V30 7 1 7 8
M  V30 8 2 8 9
M  V30 9 1 9 10
M  V30 10 2 10 11
M  V30 11 1 11 12
M  V30 12 2 12 13
M  V30 13 1 13 14
M  V30 14 2 14 15
M  V30 15 1 15 16
M  V30 16 2 16 17
M  V30 17 1 17 18
M  V30 18 2 7 19
M  V30 19 1 19 20
M  V30 20 1 20 21
M  V30 21 1 21 22
M  V30 22 1 22 23
M  V30 23 1 23 24
M  V30 24 1 24 25
M  V30 25 1 25 26
M  V30 26 1 21 2
M  V30 27 1 26 22
M  V30 28 1 19 3
M  V30 29 1 17 8
M  V30 30 1 15 10
M  V30 31 1 4 27
M  V30 32 1 5 28
M  V30 33 1 6 29
M  V30 34 1 11 30
M  V30 35 1 12 31
M  V30 36 1 13 32
M  V30 37 1 14 33
M  V30 38 1 18 34
M  V30 39 1 22 35
M  V30 40 1 23 36
M  V30 41 1 23 37
M  V30 42 1 24 38
M  V30 43 1 24 39
M  V30 44 1 25 40
M  V30 45 1 25 41
M  V30 46 1 26 42
M  V30 47 1 26 43
M  V30 END BOND
M  V30 END CTAB
M  END
>  <Dataset>  (857) 
ChEMBL_Kinases

>  <Ligand_Instance>  (857) 
nan

>  <PDB_ID>  (857) 
nan

>  <Standardized_SMILES>  (857) 
O=c1c2cccc(-c3nc4ccccc4nc3O)c2sn1C1CCCC1

>  <Name>  (857) 
nan

>  <Pocket>  (857) 
nan

>  <ATP_Site>  (857) 
nan

>  <Peripheral>  (857) 
nan

>  <Num_H_Atoms_ProtBoundConf>  (857) 
nan

>  <Num_Resolved_Atoms>  (857) 
nan

>  <Num_Not_Resolved_Atoms>  (857) 
nan

$$$$
CHEMBL596290
     RDKit          3D

  0  0  0  0  0  0  0  0  0  0999 V3000
M  V30 BEGIN CTAB
M  V30 COUNTS 58 63 0 0 0
M  V30 BEGIN ATOM
M  V30 1 C -3.256914 1.083501 3.265833 0
M  V30 2 C -4.160925 1.658948 2.235106 0
M  V30 3 N -5.256783 2.399805 2.384654 0
M  V30 4 N -5.774366 2.710837 1.194148 0
M  V30 5 C -5.012299 2.168919 0.219319 0
M  V30 6 N -5.042738 2.147227 -1.138663 0
M  V30 7 C -4.108628 1.497548 -1.855254 0
M  V30 8 C -3.077008 0.824326 -1.221641 0
M  V30 9 C -1.992832 0.075743 -1.847942 0
M  V30 10 C -0.655235 0.451741 -1.712336 0
M  V30 11 C 0.303509 -0.308835 -2.336866 0
M  V30 12 O 1.647784 0.012615 -2.240270 0
M  V30 13 C 2.673196 -0.724531 -2.855682 0
M  V30 14 C 4.056400 -0.197245 -2.618993 0 CFG=1
M  V30 15 N 4.202939 1.174340 -3.088780 0
M  V30 16 C 4.588800 -0.457510 -1.270795 0
M  V30 17 C 3.877550 0.067876 -0.115455 0
M  V30 18 C 4.202534 1.287076 0.504578 0
M  V30 19 N 3.379606 1.566161 1.528632 0
M  V30 20 C 2.485435 0.572279 1.642986 0
M  V30 21 C 1.432633 0.330364 2.510499 0
M  V30 22 C 0.681092 -0.820784 2.383252 0
M  V30 23 C 0.989738 -1.732587 1.379753 0
M  V30 24 C 2.036425 -1.470599 0.533071 0
M  V30 25 C 2.784594 -0.319996 0.661738 0
M  V30 26 C -0.014636 -1.412101 -3.079330 0
M  V30 27 N -1.329003 -1.748551 -3.189338 0
M  V30 28 C -2.309763 -1.037549 -2.597506 0
M  V30 29 C -3.654714 -1.527589 -2.811830 0
M  V30 30 C -4.513154 -1.983528 -1.841331 0
M  V30 31 C -5.703791 -2.360671 -2.469379 0
M  V30 32 O -5.548219 -2.134054 -3.759564 0
M  V30 33 C -4.360404 -1.646307 -3.995431 0
M  V30 34 N -3.047080 0.846067 0.133440 0
M  V30 35 C -3.980228 1.495093 0.858886 0
M  V30 36 H -2.494715 1.798289 3.623922 0
M  V30 37 H -2.703421 0.196542 2.862444 0
M  V30 38 H -3.877230 0.808549 4.142233 0
M  V30 39 H -6.615122 3.267168 0.921415 0
M  V30 40 H -4.088079 1.451003 -2.922110 0
M  V30 41 H -0.417170 1.320651 -1.126224 0
M  V30 42 H 2.453567 -0.698544 -3.968780 0
M  V30 43 H 2.570135 -1.780499 -2.535052 0
M  V30 44 H 4.698179 -0.779436 -3.373557 0
M  V30 45 H 5.159326 1.492802 -2.833404 0
M  V30 46 H 4.051154 1.150906 -4.124810 0
M  V30 47 H 4.775795 -1.572354 -1.120600 0
M  V30 48 H 5.653004 -0.058082 -1.222554 0
M  V30 49 H 5.021359 1.943889 0.205282 0
M  V30 50 H 3.436712 2.413568 2.125189 0
M  V30 51 H 1.203978 1.055784 3.291969 0
M  V30 52 H -0.150575 -1.010561 3.068934 0
M  V30 53 H 0.420114 -2.644611 1.253771 0
M  V30 54 H 2.261615 -2.184143 -0.228442 0
M  V30 55 H 0.744146 -1.998366 -3.562872 0
M  V30 56 H -4.368380 -2.067965 -0.757810 0
M  V30 57 H -6.577548 -2.762158 -1.966267 0
M  V30 58 H -3.987563 -1.375279 -4.982439 0
M  V30 END ATOM
M  V30 BEGIN BOND
M  V30 1 1 1 2
M  V30 2 2 2 3
M  V30 3 1 3 4
M  V30 4 1 4 5
M  V30 5 2 5 6
M  V30 6 1 6 7
M  V30 7 2 7 8
M  V30 8 1 8 9
M  V30 9 2 9 10
M  V30 10 1 10 11
M  V30 11 1 11 12
M  V30 12 1 12 13
M  V30 13 1 13 14
M  V30 14 1 14 15
M  V30 15 1 14 16
M  V30 16 1 16 17
M  V30 17 2 17 18
M  V30 18 1 18 19
M  V30 19 1 19 20
M  V30 20 2 20 21
M  V30 21 1 21 22
M  V30 22 2 22 23
M  V30 23 1 23 24
M  V30 24 2 24 25
M  V30 25 2 11 26
M  V30 26 1 26 27
M  V30 27 2 27 28
M  V30 28 1 28 29
M  V30 29 1 29 30
M  V30 30 2 30 31
M  V30 31 1 31 32
M  V30 32 1 32 33
M  V30 33 1 8 34
M  V30 34 2 34 35
M  V30 35 1 35 2
M  V30 36 1 35 5
M  V30 37 1 28 9
M  V30 38 2 33 29
M  V30 39 1 25 17
M  V30 40 1 25 20
M  V30 41 1 1 36
M  V30 42 1 1 37
M  V30 43 1 1 38
M  V30 44 1 4 39
M  V30 45 1 7 40
M  V30 46 1 10 41
M  V30 47 1 13 42
M  V30 48 1 13 43
M  V30 49 1 14 44 CFG=3
M  V30 50 1 15 45
M  V30 51 1 15 46
M  V30 52 1 16 47
M  V30 53 1 16 48
M  V30 54 1 18 49
M  V30 55 1 19 50
M  V30 56 1 21 51
M  V30 57 1 22 52
M  V30 58 1 23 53
M  V30 59 1 24 54
M  V30 60 1 26 55
M  V30 61 1 30 56
M  V30 62 1 31 57
M  V30 63 1 33 58
M  V30 END BOND
M  V30 END CTAB
M  END
>  <Dataset>  (858) 
ChEMBL_Kinases

>  <Ligand_Instance>  (858) 
nan

>  <PDB_ID>  (858) 
nan

>  <Standardized_SMILES>  (858) 
Cc1n[nH]c2ncc(-c3cc(OC[C@@H](N)Cc4c[nH]c5ccccc45)cnc3-c3ccoc3)nc12

>  <Name>  (858) 
nan

>  <Pocket>  (858) 
nan

>  <ATP_Site>  (858) 
nan

>  <Peripheral>  (858) 
nan

>  <Num_H_Atoms_ProtBoundConf>  (858) 
nan

>  <Num_Resolved_Atoms>  (858) 
nan

>  <Num_Not_Resolved_Atoms>  (858) 
nan

$$$$
CHEMBL386457
     RDKit          3D

  0  0  0  0  0  0  0  0  0  0999 V3000
M  V30 BEGIN CTAB
M  V30 COUNTS 63 66 0 0 0
M  V30 BEGIN ATOM
M  V30 1 C 2.676926 0.338977 5.443437 0
M  V30 2 N 2.842898 0.627658 4.066991 0
M  V30 3 C 2.717955 -0.475206 3.176575 0
M  V30 4 C 1.758377 -0.252558 2.046687 0
M  V30 5 N 0.656228 0.606818 2.396020 0
M  V30 6 C -0.332146 -0.043141 3.198299 0
M  V30 7 C -1.523540 0.762464 3.567348 0
M  V30 8 C -2.343990 1.267015 2.414012 0
M  V30 9 N -1.626464 2.120616 1.499151 0
M  V30 10 C -1.246749 1.806635 0.331805 0
M  V30 11 N -1.705741 0.509678 0.251270 0
M  V30 12 C -0.538297 2.537135 -0.665385 0
M  V30 13 C -0.245250 3.776731 -0.240976 0
M  V30 14 O -0.422718 4.600125 0.894595 0
M  V30 15 N 0.482729 4.797587 -1.007341 0
M  V30 16 S 0.758224 3.790138 -2.530911 0
M  V30 17 C -0.081220 2.331644 -1.895969 0
M  V30 18 N -0.207691 1.180414 -2.639982 0
M  V30 19 C -0.736263 -0.102772 -2.704097 0
M  V30 20 C -2.114106 -0.297958 -2.870468 0
M  V30 21 C -2.655552 -1.567707 -2.915438 0
M  V30 22 C -1.796103 -2.636510 -2.791171 0
M  V30 23 O -2.407428 -3.879278 -2.843859 0
M  V30 24 C -1.789474 -5.094907 -2.830362 0
M  V30 25 C -2.098593 -5.920200 -1.762415 0
M  V30 26 C -1.499065 -7.170652 -1.696623 0
M  V30 27 Cl -1.863128 -8.250160 -0.359681 0
M  V30 28 C -0.606885 -7.572397 -2.692192 0
M  V30 29 C -0.311853 -6.725823 -3.756076 0
M  V30 30 C -0.910186 -5.467397 -3.830290 0
M  V30 31 Cl -0.540425 -4.404243 -5.193513 0
M  V30 32 C -0.432520 -2.562301 -2.624414 0
M  V30 33 C 0.036417 -1.266997 -2.589102 0
M  V30 34 C 1.074883 1.891416 2.872544 0
M  V30 35 C 2.404213 1.881462 3.587863 0
M  V30 36 H 3.677170 0.145742 5.931882 0
M  V30 37 H 2.100858 -0.600734 5.550278 0
M  V30 38 H 2.258333 1.197996 5.971735 0
M  V30 39 H 2.358088 -1.349498 3.756883 0
M  V30 40 H 3.730958 -0.745989 2.813475 0
M  V30 41 H 1.347790 -1.185626 1.634824 0
M  V30 42 H 2.321538 0.245574 1.230569 0
M  V30 43 H 0.052915 -0.516789 4.121983 0
M  V30 44 H -0.724069 -0.907221 2.588168 0
M  V30 45 H -1.350846 1.553848 4.332287 0
M  V30 46 H -2.214955 0.044439 4.110935 0
M  V30 47 H -2.892095 0.442560 1.974798 0
M  V30 48 H -3.131868 1.938897 2.869461 0
M  V30 49 H -1.407800 -0.454757 0.075389 0
M  V30 50 H -1.418720 -0.475708 0.074788 0
M  V30 51 H -1.271324 4.532225 1.433029 0
M  V30 52 H 0.243099 1.146772 -3.579391 0
M  V30 53 H -2.775328 0.550832 -2.966742 0
M  V30 54 H -3.723334 -1.686458 -3.044803 0
M  V30 55 H -2.787424 -5.614060 -0.990337 0
M  V30 56 H -0.174340 -8.562923 -2.579237 0
M  V30 57 H 0.379184 -7.080646 -4.495010 0
M  V30 58 H 0.237578 -3.393476 -2.521724 0
M  V30 59 H 1.104092 -1.083223 -2.461286 0
M  V30 60 H 1.186532 2.553671 1.987574 0
M  V30 61 H 0.303924 2.347015 3.491581 0
M  V30 62 H 2.326504 2.580814 4.457264 0
M  V30 63 H 3.214614 2.307848 2.945590 0
M  V30 END ATOM
M  V30 BEGIN BOND
M  V30 1 1 1 2
M  V30 2 1 2 3
M  V30 3 1 3 4
M  V30 4 1 4 5
M  V30 5 1 5 6
M  V30 6 1 6 7
M  V30 7 1 7 8
M  V30 8 1 8 9
M  V30 9 2 9 10
M  V30 10 1 10 11
M  V30 11 1 10 12
M  V30 12 1 12 13
M  V30 13 1 13 14
M  V30 14 2 13 15
M  V30 15 1 15 16
M  V30 16 1 16 17
M  V30 17 1 17 18
M  V30 18 1 18 19
M  V30 19 2 19 20
M  V30 20 1 20 21
M  V30 21 2 21 22
M  V30 22 1 22 23
M  V30 23 1 23 24
M  V30 24 2 24 25
M  V30 25 1 25 26
M  V30 26 1 26 27
M  V30 27 2 26 28
M  V30 28 1 28 29
M  V30 29 2 29 30
M  V30 30 1 30 31
M  V30 31 1 22 32
M  V30 32 2 32 33
M  V30 33 1 5 34
M  V30 34 1 34 35
M  V30 35 1 35 2
M  V30 36 2 17 12
M  V30 37 1 33 19
M  V30 38 1 30 24
M  V30 39 1 1 36
M  V30 40 1 1 37
M  V30 41 1 1 38
M  V30 42 1 3 39
M  V30 43 1 3 40
M  V30 44 1 4 41
M  V30 45 1 4 42
M  V30 46 1 6 43
M  V30 47 1 6 44
M  V30 48 1 7 45
M  V30 49 1 7 46
M  V30 50 1 8 47
M  V30 51 1 8 48
M  V30 52 1 11 49
M  V30 53 1 11 50
M  V30 54 1 14 51
M  V30 55 1 18 52
M  V30 56 1 20 53
M  V30 57 1 21 54
M  V30 58 1 25 55
M  V30 59 1 28 56
M  V30 60 1 29 57
M  V30 61 1 32 58
M  V30 62 1 33 59
M  V30 63 1 34 60
M  V30 64 1 34 61
M  V30 65 1 35 62
M  V30 66 1 35 63
M  V30 END BOND
M  V30 END CTAB
M  END
>  <Dataset>  (859) 
ChEMBL_Kinases

>  <Ligand_Instance>  (859) 
nan

>  <PDB_ID>  (859) 
nan

>  <Standardized_SMILES>  (859) 
CN1CCN(CCC/N=C(\N)c2c(O)nsc2Nc2ccc(Oc3cc(Cl)ccc3Cl)cc2)CC1

>  <Name>  (859) 
nan

>  <Pocket>  (859) 
nan

>  <ATP_Site>  (859) 
nan

>  <Peripheral>  (859) 
nan

>  <Num_H_Atoms_ProtBoundConf>  (859) 
nan

>  <Num_Resolved_Atoms>  (859) 
nan

>  <Num_Not_Resolved_Atoms>  (859) 
nan

$$$$
CHEMBL596073
     RDKit          3D

  0  0  0  0  0  0  0  0  0  0999 V3000
M  V30 BEGIN CTAB
M  V30 COUNTS 59 64 0 0 0
M  V30 BEGIN ATOM
M  V30 1 C 3.615931 0.689351 4.839599 0
M  V30 2 C 4.566598 0.179351 3.813974 0
M  V30 3 N 5.889518 0.345309 3.926201 0
M  V30 4 N 6.489912 -0.195270 2.892774 0
M  V30 5 C 5.537135 -0.716047 2.105564 0
M  V30 6 C 5.613424 -1.394962 0.899007 0
M  V30 7 C 4.428037 -1.816982 0.316066 0
M  V30 8 C 3.201223 -1.567827 0.921655 0
M  V30 9 C 2.109483 -2.104918 0.120416 0
M  V30 10 C 1.221924 -1.159635 -0.343351 0
M  V30 11 C 0.127171 -1.475547 -1.117719 0
M  V30 12 O -0.894749 -0.842320 -1.711710 0
M  V30 13 C -1.281492 0.483898 -1.774887 0
M  V30 14 C -1.619723 1.149094 -0.475410 0 CFG=1
M  V30 15 N -2.015430 2.526003 -0.632675 0
M  V30 16 C -2.594833 0.399648 0.355641 0
M  V30 17 C -3.906375 0.137568 -0.216388 0
M  V30 18 C -4.202393 -1.111543 -0.780958 0
M  V30 19 N -5.458623 -1.132872 -1.263385 0
M  V30 20 C -6.019063 0.047358 -1.046962 0
M  V30 21 C -7.275482 0.557663 -1.330111 0
M  V30 22 C -7.540693 1.874051 -0.945444 0
M  V30 23 C -6.599556 2.647575 -0.308405 0
M  V30 24 C -5.361071 2.118308 -0.039304 0
M  V30 25 C -5.078600 0.825789 -0.409189 0
M  V30 26 C -0.018762 -2.846002 -1.403067 0
M  V30 27 N 0.845946 -3.811288 -0.957366 0
M  V30 28 C 1.912590 -3.432491 -0.192559 0
M  V30 29 C 2.886244 -4.377515 0.333496 0
M  V30 30 C 2.922368 -4.473575 1.729597 0
M  V30 31 C 3.911210 -5.419777 2.022931 0
M  V30 32 O 4.413782 -5.844132 0.899442 0
M  V30 33 C 3.837301 -5.254364 -0.130759 0
M  V30 34 N 3.143194 -0.906046 2.095782 0
M  V30 35 C 4.307594 -0.501212 2.651039 0
M  V30 36 H 3.642616 1.815427 4.853016 0
M  V30 37 H 3.908218 0.300511 5.824771 0
M  V30 38 H 2.591292 0.412595 4.574606 0
M  V30 39 H 7.520982 -0.228111 2.694573 0
M  V30 40 H 6.601954 -1.564569 0.465781 0
M  V30 41 H 4.598825 -2.334339 -0.619488 0
M  V30 42 H 1.271264 -0.105746 -0.174588 0
M  V30 43 H -0.382662 1.048956 -2.167740 0
M  V30 44 H -2.051990 0.664819 -2.564168 0
M  V30 45 H -0.640748 1.206004 0.095176 0
M  V30 46 H -2.825013 2.615446 -1.265401 0
M  V30 47 H -2.269797 2.906364 0.296489 0
M  V30 48 H -2.068553 -0.541506 0.687335 0
M  V30 49 H -2.689588 0.975304 1.327030 0
M  V30 50 H -3.576179 -1.983396 -0.860371 0
M  V30 51 H -5.955959 -1.918553 -1.736750 0
M  V30 52 H -8.048911 -0.001418 -1.825879 0
M  V30 53 H -8.515708 2.305199 -1.152225 0
M  V30 54 H -6.827170 3.661584 -0.020445 0
M  V30 55 H -4.621956 2.720350 0.462153 0
M  V30 56 H -0.782653 -3.385033 -1.987552 0
M  V30 57 H 2.401232 -4.017897 2.545723 0
M  V30 58 H 4.334608 -5.859156 2.919384 0
M  V30 59 H 3.941024 -5.304415 -1.205414 0
M  V30 END ATOM
M  V30 BEGIN BOND
M  V30 1 1 1 2
M  V30 2 2 2 3
M  V30 3 1 3 4
M  V30 4 1 4 5
M  V30 5 2 5 6
M  V30 6 1 6 7
M  V30 7 2 7 8
M  V30 8 1 8 9
M  V30 9 2 9 10
M  V30 10 1 10 11
M  V30 11 1 11 12
M  V30 12 1 12 13
M  V30 13 1 13 14
M  V30 14 1 14 15
M  V30 15 1 14 16
M  V30 16 1 16 17
M  V30 17 2 17 18
M  V30 18 1 18 19
M  V30 19 1 19 20
M  V30 20 2 20 21
M  V30 21 1 21 22
M  V30 22 2 22 23
M  V30 23 1 23 24
M  V30 24 2 24 25
M  V30 25 2 11 26
M  V30 26 1 26 27
M  V30 27 2 27 28
M  V30 28 1 28 29
M  V30 29 1 29 30
M  V30 30 2 30 31
M  V30 31 1 31 32
M  V30 32 1 32 33
M  V30 33 1 8 34
M  V30 34 2 34 35
M  V30 35 1 35 2
M  V30 36 1 35 5
M  V30 37 1 28 9
M  V30 38 2 33 29
M  V30 39 1 25 17
M  V30 40 1 25 20
M  V30 41 1 1 36
M  V30 42 1 1 37
M  V30 43 1 1 38
M  V30 44 1 4 39
M  V30 45 1 6 40
M  V30 46 1 7 41
M  V30 47 1 10 42
M  V30 48 1 13 43
M  V30 49 1 13 44
M  V30 50 1 14 45 CFG=1
M  V30 51 1 15 46
M  V30 52 1 15 47
M  V30 53 1 16 48
M  V30 54 1 16 49
M  V30 55 1 18 50
M  V30 56 1 19 51
M  V30 57 1 21 52
M  V30 58 1 22 53
M  V30 59 1 23 54
M  V30 60 1 24 55
M  V30 61 1 26 56
M  V30 62 1 30 57
M  V30 63 1 31 58
M  V30 64 1 33 59
M  V30 END BOND
M  V30 END CTAB
M  END
>  <Dataset>  (860) 
ChEMBL_Kinases

>  <Ligand_Instance>  (860) 
nan

>  <PDB_ID>  (860) 
nan

>  <Standardized_SMILES>  (860) 
Cc1n[nH]c2ccc(-c3cc(OC[C@@H](N)Cc4c[nH]c5ccccc45)cnc3-c3ccoc3)nc12

>  <Name>  (860) 
nan

>  <Pocket>  (860) 
nan

>  <ATP_Site>  (860) 
nan

>  <Peripheral>  (860) 
nan

>  <Num_H_Atoms_ProtBoundConf>  (860) 
nan

>  <Num_Resolved_Atoms>  (860) 
nan

>  <Num_Not_Resolved_Atoms>  (860) 
nan

$$$$
CHEMBL386398
     RDKit          3D

  0  0  0  0  0  0  0  0  0  0999 V3000
M  V30 BEGIN CTAB
M  V30 COUNTS 36 40 0 0 0
M  V30 BEGIN ATOM
M  V30 1 O 3.030496 0.788421 2.554060 0
M  V30 2 C 2.090171 -0.039612 2.442958 0
M  V30 3 N 1.623464 -1.036353 3.367902 0
M  V30 4 C 0.534400 -1.728448 2.792634 0
M  V30 5 O 0.041132 -2.613335 3.488157 0
M  V30 6 C 0.265106 -1.203597 1.485887 0
M  V30 7 C 1.186958 -0.206824 1.285257 0
M  V30 8 C 1.200714 0.517891 0.094580 0
M  V30 9 C 2.174859 1.581563 -0.134747 0
M  V30 10 C 3.416874 1.403125 -0.708466 0
M  V30 11 C 4.238233 2.514679 -0.862457 0
M  V30 12 C 3.768300 3.731529 -0.434674 0
M  V30 13 C 2.530148 3.932058 0.141411 0
M  V30 14 C 1.720002 2.814528 0.289423 0
M  V30 15 Cl 0.158256 3.099572 1.021958 0
M  V30 16 C 0.278870 0.229704 -0.890357 0
M  V30 17 C -0.640763 -0.775210 -0.672575 0
M  V30 18 O -1.612960 -1.259534 -1.409489 0
M  V30 19 C -2.234700 -2.240862 -0.757075 0
M  V30 20 C -3.313842 -3.008277 -1.190539 0
M  V30 21 C -3.828782 -3.984833 -0.376138 0
M  V30 22 C -3.250104 -4.185523 0.880626 0
M  V30 23 O -3.768912 -5.173286 1.707619 0
M  V30 24 C -2.187039 -3.384869 1.232890 0
M  V30 25 C -1.632162 -2.401665 0.470927 0
M  V30 26 C -0.634295 -1.476360 0.510860 0
M  V30 27 H 2.124450 -1.107376 4.284058 0
M  V30 28 H 3.690350 0.420212 -1.007787 0
M  V30 29 H 5.214201 2.382920 -1.311730 0
M  V30 30 H 4.432017 4.565424 -0.570901 0
M  V30 31 H 2.200666 4.926452 0.467233 0
M  V30 32 H 0.286791 0.787078 -1.810333 0
M  V30 33 H -3.729496 -2.825897 -2.157209 0
M  V30 34 H -4.663742 -4.555457 -0.750243 0
M  V30 35 H -4.692336 -5.016864 2.121876 0
M  V30 36 H -1.803659 -3.597845 2.199388 0
M  V30 END ATOM
M  V30 BEGIN BOND
M  V30 1 2 1 2
M  V30 2 1 2 3
M  V30 3 1 3 4
M  V30 4 2 4 5
M  V30 5 1 4 6
M  V30 6 2 6 7
M  V30 7 1 7 8
M  V30 8 1 8 9
M  V30 9 2 9 10
M  V30 10 1 10 11
M  V30 11 2 11 12
M  V30 12 1 12 13
M  V30 13 2 13 14
M  V30 14 1 14 15
M  V30 15 2 8 16
M  V30 16 1 16 17
M  V30 17 1 17 18
M  V30 18 1 18 19
M  V30 19 2 19 20
M  V30 20 1 20 21
M  V30 21 2 21 22
M  V30 22 1 22 23
M  V30 23 1 22 24
M  V30 24 2 24 25
M  V30 25 1 25 26
M  V30 26 1 7 2
M  V30 27 1 14 9
M  V30 28 2 26 17
M  V30 29 1 26 6
M  V30 30 1 25 19
M  V30 31 1 3 27
M  V30 32 1 10 28
M  V30 33 1 11 29
M  V30 34 1 12 30
M  V30 35 1 13 31
M  V30 36 1 16 32
M  V30 37 1 20 33
M  V30 38 1 21 34
M  V30 39 1 23 35
M  V30 40 1 24 36
M  V30 END BOND
M  V30 END CTAB
M  END
>  <Dataset>  (861) 
ChEMBL_Kinases

>  <Ligand_Instance>  (861) 
nan

>  <PDB_ID>  (861) 
nan

>  <Standardized_SMILES>  (861) 
O=C1NC(=O)c2c1c(-c1ccccc1Cl)cc1oc3ccc(O)cc3c21

>  <Name>  (861) 
nan

>  <Pocket>  (861) 
nan

>  <ATP_Site>  (861) 
nan

>  <Peripheral>  (861) 
nan

>  <Num_H_Atoms_ProtBoundConf>  (861) 
nan

>  <Num_Resolved_Atoms>  (861) 
nan

>  <Num_Not_Resolved_Atoms>  (861) 
nan

$$$$
CHEMBL386360
     RDKit          3D

  0  0  0  0  0  0  0  0  0  0999 V3000
M  V30 BEGIN CTAB
M  V30 COUNTS 43 47 0 0 0
M  V30 BEGIN ATOM
M  V30 1 C 1.319128 -3.732685 3.448057 0
M  V30 2 C 1.001887 -2.400661 2.783253 0
M  V30 3 C 2.123631 -1.974650 1.921207 0
M  V30 4 N 3.270306 -2.698579 1.765274 0
M  V30 5 N 4.069001 -2.048101 0.933583 0
M  V30 6 C 3.486166 -0.925540 0.540160 0
M  V30 7 C 3.850559 0.104564 -0.299241 0
M  V30 8 C 2.995141 1.172073 -0.513867 0
M  V30 9 C 1.759215 1.202023 0.124215 0
M  V30 10 C 0.831911 2.308873 -0.078345 0
M  V30 11 O 0.947049 3.592963 0.160659 0
M  V30 12 C -0.141126 4.243872 -0.174718 0
M  V30 13 N -1.052006 3.375114 -0.668031 0
M  V30 14 C -0.437905 2.157716 -0.606632 0
M  V30 15 C -1.044922 0.902299 -1.035683 0
M  V30 16 C -2.195334 0.619291 -0.311923 0
M  V30 17 C -2.927500 -0.530513 -0.561352 0
M  V30 18 C -2.511436 -1.422676 -1.551334 0
M  V30 19 F -3.218734 -2.543391 -1.799812 0
M  V30 20 C -1.365266 -1.120714 -2.257728 0
M  V30 21 C -0.633719 0.022242 -2.012883 0
M  V30 22 C 1.439518 0.147530 0.955264 0
M  V30 23 N 2.278848 -0.883170 1.155246 0
M  V30 24 C 0.492759 -1.433574 3.789797 0
M  V30 25 C -0.908628 -1.649153 3.236487 0
M  V30 26 C -0.336908 -2.485023 2.086088 0
M  V30 27 H 1.751662 -4.447225 2.714806 0
M  V30 28 H 2.086204 -3.553069 4.223098 0
M  V30 29 H 0.445943 -4.151924 3.981998 0
M  V30 30 H 4.826548 0.009855 -0.758590 0
M  V30 31 H 3.291299 1.965555 -1.168372 0
M  V30 32 H -0.013070 5.306636 0.036088 0
M  V30 33 H -2.622306 1.237669 0.486263 0
M  V30 34 H -3.835518 -0.774520 -0.004586 0
M  V30 35 H -0.992558 -1.779308 -3.041572 0
M  V30 36 H 0.270017 0.337862 -2.513546 0
M  V30 37 H 0.473682 0.198414 1.436986 0
M  V30 38 H 0.854663 -0.396510 3.752317 0
M  V30 39 H 0.484649 -1.774481 4.856342 0
M  V30 40 H -1.423071 -0.747427 2.896822 0
M  V30 41 H -1.572022 -2.289878 3.850578 0
M  V30 42 H -0.749627 -3.507852 2.017819 0
M  V30 43 H -0.393165 -2.013309 1.094597 0
M  V30 END ATOM
M  V30 BEGIN BOND
M  V30 1 1 1 2
M  V30 2 1 2 3
M  V30 3 2 3 4
M  V30 4 1 4 5
M  V30 5 2 5 6
M  V30 6 1 6 7
M  V30 7 2 7 8
M  V30 8 1 8 9
M  V30 9 1 9 10
M  V30 10 1 10 11
M  V30 11 1 11 12
M  V30 12 2 12 13
M  V30 13 1 13 14
M  V30 14 1 14 15
M  V30 15 2 15 16
M  V30 16 1 16 17
M  V30 17 2 17 18
M  V30 18 1 18 19
M  V30 19 1 18 20
M  V30 20 2 20 21
M  V30 21 2 9 22
M  V30 22 1 22 23
M  V30 23 1 2 24
M  V30 24 1 24 25
M  V30 25 1 25 26
M  V30 26 1 26 2
M  V30 27 1 23 3
M  V30 28 1 23 6
M  V30 29 2 14 10
M  V30 30 1 21 15
M  V30 31 1 1 27
M  V30 32 1 1 28
M  V30 33 1 1 29
M  V30 34 1 7 30
M  V30 35 1 8 31
M  V30 36 1 12 32
M  V30 37 1 16 33
M  V30 38 1 17 34
M  V30 39 1 20 35
M  V30 40 1 21 36
M  V30 41 1 22 37
M  V30 42 1 24 38
M  V30 43 1 24 39
M  V30 44 1 25 40
M  V30 45 1 25 41
M  V30 46 1 26 42
M  V30 47 1 26 43
M  V30 END BOND
M  V30 END CTAB
M  END
>  <Dataset>  (862) 
ChEMBL_Kinases

>  <Ligand_Instance>  (862) 
nan

>  <PDB_ID>  (862) 
nan

>  <Standardized_SMILES>  (862) 
CC1(c2nnc3ccc(-c4ocnc4-c4ccc(F)cc4)cn23)CCC1

>  <Name>  (862) 
nan

>  <Pocket>  (862) 
nan

>  <ATP_Site>  (862) 
nan

>  <Peripheral>  (862) 
nan

>  <Num_H_Atoms_ProtBoundConf>  (862) 
nan

>  <Num_Resolved_Atoms>  (862) 
nan

>  <Num_Not_Resolved_Atoms>  (862) 
nan

$$$$
CHEMBL386796
     RDKit          3D

  0  0  0  0  0  0  0  0  0  0999 V3000
M  V30 BEGIN CTAB
M  V30 COUNTS 44 48 0 0 0
M  V30 BEGIN ATOM
M  V30 1 O 5.090046 -0.460015 -0.177432 0
M  V30 2 C 3.879379 -0.710018 -0.073882 0
M  V30 3 C 3.376601 -1.904514 0.332446 0
M  V30 4 C 3.756950 -3.148019 0.753905 0
M  V30 5 C 2.898389 -4.164335 1.119456 0
M  V30 6 C 1.500289 -4.084550 1.117170 0
M  V30 7 C 1.037817 -2.867138 0.703937 0
M  V30 8 C 1.937515 -1.967874 0.377404 0
M  V30 9 S 1.336001 -0.282164 -0.176998 0
M  V30 10 N 3.025695 0.277750 -0.388604 0
M  V30 11 C 2.737942 1.604516 -0.810291 0
M  V30 12 C 1.554072 2.233368 -0.074404 0
M  V30 13 C 1.788777 2.352830 1.384026 0
M  V30 14 C 0.631094 2.802163 2.196249 0
M  V30 15 C -0.516828 1.831588 2.294473 0
M  V30 16 O -1.089956 1.507129 1.087688 0
M  V30 17 C -2.144465 0.628474 0.854243 0
M  V30 18 C -3.472605 0.993823 0.764581 0
M  V30 19 C -4.469921 0.064226 0.527893 0
M  V30 20 C -4.181100 -1.296119 0.367140 0
M  V30 21 C -2.847910 -1.705848 0.451306 0
M  V30 22 N -2.519449 -3.011965 0.298154 0
M  V30 23 C -1.248087 -3.471564 0.364965 0
M  V30 24 O -0.908544 -4.800261 0.205517 0
M  V30 25 C -0.352155 -2.466153 0.604525 0
M  V30 26 N -0.661399 -1.169840 0.757672 0
M  V30 27 C -1.921139 -0.718680 0.689014 0
M  V30 28 H 4.845852 -3.278550 0.778787 0
M  V30 29 H 3.340221 -5.129337 1.444008 0
M  V30 30 H 0.819588 -4.844247 1.408636 0
M  V30 31 H 2.459252 1.586665 -1.884158 0
M  V30 32 H 3.616524 2.293341 -0.725240 0
M  V30 33 H 1.518947 3.284839 -0.485099 0
M  V30 34 H 0.631389 1.766403 -0.402422 0
M  V30 35 H 2.627415 3.103512 1.510821 0
M  V30 36 H 2.176458 1.418035 1.850386 0
M  V30 37 H 0.282841 3.825236 1.938726 0
M  V30 38 H 1.004150 2.911842 3.259418 0
M  V30 39 H -0.151420 0.856764 2.747215 0
M  V30 40 H -1.267535 2.203694 3.034509 0
M  V30 41 H -3.712652 2.058664 0.888877 0
M  V30 42 H -5.505430 0.394762 0.464456 0
M  V30 43 H -4.965493 -2.019986 0.181806 0
M  V30 44 H -0.539231 -5.169265 -0.683292 0
M  V30 END ATOM
M  V30 BEGIN BOND
M  V30 1 2 1 2
M  V30 2 1 2 3
M  V30 3 2 3 4
M  V30 4 1 4 5
M  V30 5 2 5 6
M  V30 6 1 6 7
M  V30 7 2 7 8
M  V30 8 1 8 9
M  V30 9 1 9 10
M  V30 10 1 10 11
M  V30 11 1 11 12
M  V30 12 1 12 13
M  V30 13 1 13 14
M  V30 14 1 14 15
M  V30 15 1 15 16
M  V30 16 1 16 17
M  V30 17 2 17 18
M  V30 18 1 18 19
M  V30 19 2 19 20
M  V30 20 1 20 21
M  V30 21 2 21 22
M  V30 22 1 22 23
M  V30 23 1 23 24
M  V30 24 2 23 25
M  V30 25 1 25 26
M  V30 26 2 26 27
M  V30 27 1 10 2
M  V30 28 1 27 17
M  V30 29 1 8 3
M  V30 30 1 27 21
M  V30 31 1 25 7
M  V30 32 1 4 28
M  V30 33 1 5 29
M  V30 34 1 6 30
M  V30 35 1 11 31
M  V30 36 1 11 32
M  V30 37 1 12 33
M  V30 38 1 12 34
M  V30 39 1 13 35
M  V30 40 1 13 36
M  V30 41 1 14 37
M  V30 42 1 14 38
M  V30 43 1 15 39
M  V30 44 1 15 40
M  V30 45 1 18 41
M  V30 46 1 19 42
M  V30 47 1 20 43
M  V30 48 1 24 44
M  V30 END BOND
M  V30 END CTAB
M  END
>  <Dataset>  (863) 
ChEMBL_Kinases

>  <Ligand_Instance>  (863) 
nan

>  <PDB_ID>  (863) 
nan

>  <Standardized_SMILES>  (863) 
O=c1c2cccc3c2sn1CCCCCOc1cccc2nc(O)c-3nc12

>  <Name>  (863) 
nan

>  <Pocket>  (863) 
nan

>  <ATP_Site>  (863) 
nan

>  <Peripheral>  (863) 
nan

>  <Num_H_Atoms_ProtBoundConf>  (863) 
nan

>  <Num_Resolved_Atoms>  (863) 
nan

>  <Num_Not_Resolved_Atoms>  (863) 
nan

$$$$
CHEMBL385013
     RDKit          3D

  0  0  0  0  0  0  0  0  0  0999 V3000
M  V30 BEGIN CTAB
M  V30 COUNTS 57 61 0 0 0
M  V30 BEGIN ATOM
M  V30 1 C 0.463769 -3.464488 3.604902 0
M  V30 2 O 1.008329 -2.513351 2.740447 0
M  V30 3 C 2.324055 -2.146832 2.642943 0
M  V30 4 C 3.357616 -2.653314 3.385390 0
M  V30 5 C 4.641937 -2.170638 3.164267 0
M  V30 6 C 4.942124 -1.198462 2.228669 0
M  V30 7 C 3.901595 -0.691091 1.483263 0
M  V30 8 N 4.177738 0.320952 0.508343 0
M  V30 9 C 5.220720 0.563227 -0.299784 0
M  V30 10 C 4.961300 1.685346 -1.050691 0
M  V30 11 C 3.720570 2.148281 -0.694650 0
M  V30 12 C 3.024891 3.230412 -1.161626 0
M  V30 13 N 1.804590 3.470407 -0.642709 0
M  V30 14 C 1.298730 2.661335 0.305308 0
M  V30 15 N 0.068376 2.624027 1.029273 0
M  V30 16 C -0.894583 1.742464 0.456691 0
M  V30 17 C -2.127631 1.518132 1.082413 0
M  V30 18 C -3.062853 0.657010 0.531624 0
M  V30 19 C -2.843015 -0.012890 -0.633548 0
M  V30 20 N -3.811322 -0.892737 -1.158558 0
M  V30 21 C -5.046629 -1.301473 -0.517686 0
M  V30 22 C -4.763829 -2.700312 0.054057 0
M  V30 23 N -4.082584 -3.457978 -0.937579 0
M  V30 24 C -2.694649 -3.704302 -0.641940 0
M  V30 25 C -4.201726 -2.964351 -2.274297 0
M  V30 26 C -3.719874 -1.542081 -2.459211 0
M  V30 27 C -1.644086 0.191014 -1.263428 0
M  V30 28 C -0.732707 1.037136 -0.716289 0
M  V30 29 N 2.016944 1.610178 0.734647 0
M  V30 30 C 3.258020 1.298708 0.261250 0
M  V30 31 C 2.630570 -1.167585 1.700990 0
M  V30 32 H 0.112374 -4.321224 2.962698 0
M  V30 33 H -0.435361 -3.115911 4.154905 0
M  V30 34 H 1.170384 -3.893064 4.333818 0
M  V30 35 H 3.139997 -3.409665 4.115408 0
M  V30 36 H 5.450150 -2.586783 3.764365 0
M  V30 37 H 5.932363 -0.836475 2.067550 0
M  V30 38 H 6.080390 -0.093285 -0.279041 0
M  V30 39 H 5.632807 2.100135 -1.778634 0
M  V30 40 H 3.341465 3.934061 -1.913406 0
M  V30 41 H -0.205307 3.139430 1.890998 0
M  V30 42 H -2.281200 2.069821 2.016778 0
M  V30 43 H -3.960172 0.590559 1.129476 0
M  V30 44 H -5.315960 -0.660427 0.328054 0
M  V30 45 H -5.904470 -1.395922 -1.216893 0
M  V30 46 H -5.702965 -3.166645 0.414654 0
M  V30 47 H -4.070318 -2.546906 0.904227 0
M  V30 48 H -2.574193 -4.514028 0.127098 0
M  V30 49 H -2.157852 -3.984035 -1.576360 0
M  V30 50 H -2.201762 -2.816393 -0.210581 0
M  V30 51 H -5.211754 -3.123711 -2.710351 0
M  V30 52 H -3.534037 -3.616814 -2.904072 0
M  V30 53 H -4.431808 -1.074714 -3.183587 0
M  V30 54 H -2.729954 -1.560532 -2.898280 0
M  V30 55 H -1.363222 -0.281794 -2.183284 0
M  V30 56 H 0.229605 1.206887 -1.214053 0
M  V30 57 H 1.856427 -0.733062 1.087124 0
M  V30 END ATOM
M  V30 BEGIN BOND
M  V30 1 1 1 2
M  V30 2 1 2 3
M  V30 3 2 3 4
M  V30 4 1 4 5
M  V30 5 2 5 6
M  V30 6 1 6 7
M  V30 7 1 7 8
M  V30 8 1 8 9
M  V30 9 2 9 10
M  V30 10 1 10 11
M  V30 11 2 11 12
M  V30 12 1 12 13
M  V30 13 2 13 14
M  V30 14 1 14 15
M  V30 15 1 15 16
M  V30 16 2 16 17
M  V30 17 1 17 18
M  V30 18 2 18 19
M  V30 19 1 19 20
M  V30 20 1 20 21
M  V30 21 1 21 22
M  V30 22 1 22 23
M  V30 23 1 23 24
M  V30 24 1 23 25
M  V30 25 1 25 26
M  V30 26 1 19 27
M  V30 27 2 27 28
M  V30 28 1 14 29
M  V30 29 2 29 30
M  V30 30 2 7 31
M  V30 31 1 31 3
M  V30 32 1 30 8
M  V30 33 1 30 11
M  V30 34 1 28 16
M  V30 35 1 26 20
M  V30 36 1 1 32
M  V30 37 1 1 33
M  V30 38 1 1 34
M  V30 39 1 4 35
M  V30 40 1 5 36
M  V30 41 1 6 37
M  V30 42 1 9 38
M  V30 43 1 10 39
M  V30 44 1 12 40
M  V30 45 1 15 41
M  V30 46 1 17 42
M  V30 47 1 18 43
M  V30 48 1 21 44
M  V30 49 1 21 45
M  V30 50 1 22 46
M  V30 51 1 22 47
M  V30 52 1 24 48
M  V30 53 1 24 49
M  V30 54 1 24 50
M  V30 55 1 25 51
M  V30 56 1 25 52
M  V30 57 1 26 53
M  V30 58 1 26 54
M  V30 59 1 27 55
M  V30 60 1 28 56
M  V30 61 1 31 57
M  V30 END BOND
M  V30 END CTAB
M  END
>  <Dataset>  (864) 
ChEMBL_Kinases

>  <Ligand_Instance>  (864) 
nan

>  <PDB_ID>  (864) 
nan

>  <Standardized_SMILES>  (864) 
COc1cccc(-n2ccc3cnc(Nc4ccc(N5CCN(C)CC5)cc4)nc32)c1

>  <Name>  (864) 
nan

>  <Pocket>  (864) 
nan

>  <ATP_Site>  (864) 
nan

>  <Peripheral>  (864) 
nan

>  <Num_H_Atoms_ProtBoundConf>  (864) 
nan

>  <Num_Resolved_Atoms>  (864) 
nan

>  <Num_Not_Resolved_Atoms>  (864) 
nan

$$$$
CHEMBL384990
     RDKit          3D

  0  0  0  0  0  0  0  0  0  0999 V3000
M  V30 BEGIN CTAB
M  V30 COUNTS 37 40 0 0 0
M  V30 BEGIN ATOM
M  V30 1 C 0.271075 -5.769003 -0.139167 0
M  V30 2 C 1.160091 -4.934844 0.710249 0
M  V30 3 O 1.061644 -3.536132 0.407090 0
M  V30 4 C 1.872545 -2.706398 1.173963 0
M  V30 5 N 2.715116 -3.100126 2.146443 0
M  V30 6 N 3.333245 -2.045103 2.672404 0
M  V30 7 C 2.889372 -0.966511 2.038703 0
M  V30 8 C 3.171144 0.380268 2.158112 0
M  V30 9 C 2.574534 1.346389 1.373901 0
M  V30 10 C 1.660487 0.888517 0.442022 0
M  V30 11 C 0.994893 1.885328 -0.422320 0
M  V30 12 O 1.661798 2.669377 -1.247734 0
M  V30 13 C 0.879932 3.467371 -1.909699 0
M  V30 14 N -0.396524 3.210771 -1.510264 0
M  V30 15 C -0.339066 2.218434 -0.575647 0
M  V30 16 C -1.409573 1.560938 0.179130 0
M  V30 17 C -2.341732 0.892716 -0.589292 0
M  V30 18 C -3.398378 0.234755 0.027771 0
M  V30 19 C -3.483439 0.270507 1.405183 0
M  V30 20 F -4.502846 -0.363863 2.014375 0
M  V30 21 C -2.550068 0.939822 2.178283 0
M  V30 22 C -1.498336 1.594776 1.562544 0
M  V30 23 C 1.363630 -0.462562 0.306836 0
M  V30 24 N 1.988212 -1.347049 1.110471 0
M  V30 25 H -0.300593 -6.467014 0.505905 0
M  V30 26 H -0.488431 -5.175957 -0.676394 0
M  V30 27 H 0.871163 -6.393114 -0.835069 0
M  V30 28 H 2.202940 -5.303865 0.626152 0
M  V30 29 H 0.855025 -5.014545 1.767847 0
M  V30 30 H 3.898539 0.663908 2.910825 0
M  V30 31 H 2.816023 2.411253 1.489855 0
M  V30 32 H 1.249224 4.181958 -2.632791 0
M  V30 33 H -2.303427 0.846407 -1.664367 0
M  V30 34 H -4.153887 -0.300934 -0.509924 0
M  V30 35 H -2.639712 0.952526 3.258934 0
M  V30 36 H -0.735298 2.136111 2.111331 0
M  V30 37 H 0.648324 -0.821538 -0.422694 0
M  V30 END ATOM
M  V30 BEGIN BOND
M  V30 1 1 1 2
M  V30 2 1 2 3
M  V30 3 1 3 4
M  V30 4 2 4 5
M  V30 5 1 5 6
M  V30 6 2 6 7
M  V30 7 1 7 8
M  V30 8 2 8 9
M  V30 9 1 9 10
M  V30 10 1 10 11
M  V30 11 1 11 12
M  V30 12 1 12 13
M  V30 13 2 13 14
M  V30 14 1 14 15
M  V30 15 1 15 16
M  V30 16 2 16 17
M  V30 17 1 17 18
M  V30 18 2 18 19
M  V30 19 1 19 20
M  V30 20 1 19 21
M  V30 21 2 21 22
M  V30 22 2 10 23
M  V30 23 1 23 24
M  V30 24 1 24 4
M  V30 25 1 24 7
M  V30 26 2 15 11
M  V30 27 1 22 16
M  V30 28 1 1 25
M  V30 29 1 1 26
M  V30 30 1 1 27
M  V30 31 1 2 28
M  V30 32 1 2 29
M  V30 33 1 8 30
M  V30 34 1 9 31
M  V30 35 1 13 32
M  V30 36 1 17 33
M  V30 37 1 18 34
M  V30 38 1 21 35
M  V30 39 1 22 36
M  V30 40 1 23 37
M  V30 END BOND
M  V30 END CTAB
M  END
>  <Dataset>  (865) 
ChEMBL_Kinases

>  <Ligand_Instance>  (865) 
nan

>  <PDB_ID>  (865) 
nan

>  <Standardized_SMILES>  (865) 
CCOc1nnc2ccc(-c3ocnc3-c3ccc(F)cc3)cn12

>  <Name>  (865) 
nan

>  <Pocket>  (865) 
nan

>  <ATP_Site>  (865) 
nan

>  <Peripheral>  (865) 
nan

>  <Num_H_Atoms_ProtBoundConf>  (865) 
nan

>  <Num_Resolved_Atoms>  (865) 
nan

>  <Num_Not_Resolved_Atoms>  (865) 
nan

$$$$
CHEMBL384967
     RDKit          3D

  0  0  0  0  0  0  0  0  0  0999 V3000
M  V30 BEGIN CTAB
M  V30 COUNTS 39 42 0 0 0
M  V30 BEGIN ATOM
M  V30 1 C 0.910567 -4.466983 1.957928 0
M  V30 2 C 0.114725 -3.266299 1.569683 0
M  V30 3 C -1.355040 -3.542782 1.677968 0
M  V30 4 C 0.489999 -2.910801 0.156489 0
M  V30 5 N 0.419227 -3.688095 -0.954059 0
M  V30 6 N 0.838471 -3.019524 -2.009474 0
M  V30 7 C 1.193943 -1.782414 -1.604009 0
M  V30 8 C 1.690769 -0.705642 -2.306120 0
M  V30 9 C 1.985438 0.482479 -1.657388 0
M  V30 10 C 1.768089 0.555247 -0.295751 0
M  V30 11 C 1.996711 1.689368 0.606196 0
M  V30 12 O 3.200110 2.222518 0.766579 0
M  V30 13 C 3.129150 3.215337 1.621110 0
M  V30 14 N 1.867537 3.335576 2.025869 0
M  V30 15 C 1.111309 2.393514 1.413068 0
M  V30 16 C -0.283872 1.989504 1.408616 0
M  V30 17 C -0.979738 2.101357 0.199613 0
M  V30 18 C -2.303223 1.705589 0.238232 0
M  V30 19 C -2.957046 1.227279 1.343542 0
M  V30 20 Cl -4.634194 0.744233 1.318409 0
M  V30 21 C -2.194417 1.155981 2.471607 0
M  V30 22 F -2.758463 0.689191 3.633711 0
M  V30 23 C -0.878809 1.510444 2.583103 0
M  V30 24 C 1.262034 -0.555509 0.392091 0
M  V30 25 N 0.981475 -1.712838 -0.276679 0
M  V30 26 H 0.348466 -5.360686 1.576555 0
M  V30 27 H 1.902169 -4.420294 1.479561 0
M  V30 28 H 0.950722 -4.491019 3.075253 0
M  V30 29 H 0.317427 -2.375587 2.198488 0
M  V30 30 H -1.899733 -2.776822 2.289849 0
M  V30 31 H -1.840587 -3.653484 0.675263 0
M  V30 32 H -1.487988 -4.509383 2.203625 0
M  V30 33 H 1.879718 -0.708945 -3.373208 0
M  V30 34 H 2.374357 1.391700 -2.079501 0
M  V30 35 H 4.012684 3.771472 1.877725 0
M  V30 36 H -0.523805 2.465864 -0.689628 0
M  V30 37 H -2.833504 1.799035 -0.714727 0
M  V30 38 H -0.287320 1.448778 3.482373 0
M  V30 39 H 1.059605 -0.588160 1.464151 0
M  V30 END ATOM
M  V30 BEGIN BOND
M  V30 1 1 1 2
M  V30 2 1 2 3
M  V30 3 1 2 4
M  V30 4 2 4 5
M  V30 5 1 5 6
M  V30 6 2 6 7
M  V30 7 1 7 8
M  V30 8 2 8 9
M  V30 9 1 9 10
M  V30 10 1 10 11
M  V30 11 1 11 12
M  V30 12 1 12 13
M  V30 13 2 13 14
M  V30 14 1 14 15
M  V30 15 1 15 16
M  V30 16 2 16 17
M  V30 17 1 17 18
M  V30 18 2 18 19
M  V30 19 1 19 20
M  V30 20 1 19 21
M  V30 21 1 21 22
M  V30 22 2 21 23
M  V30 23 2 10 24
M  V30 24 1 24 25
M  V30 25 1 25 4
M  V30 26 1 25 7
M  V30 27 2 15 11
M  V30 28 1 23 16
M  V30 29 1 1 26
M  V30 30 1 1 27
M  V30 31 1 1 28
M  V30 32 1 2 29
M  V30 33 1 3 30
M  V30 34 1 3 31
M  V30 35 1 3 32
M  V30 36 1 8 33
M  V30 37 1 9 34
M  V30 38 1 13 35
M  V30 39 1 17 36
M  V30 40 1 18 37
M  V30 41 1 23 38
M  V30 42 1 24 39
M  V30 END BOND
M  V30 END CTAB
M  END
>  <Dataset>  (866) 
ChEMBL_Kinases

>  <Ligand_Instance>  (866) 
nan

>  <PDB_ID>  (866) 
nan

>  <Standardized_SMILES>  (866) 
CC(C)c1nnc2ccc(-c3ocnc3-c3ccc(Cl)c(F)c3)cn12

>  <Name>  (866) 
nan

>  <Pocket>  (866) 
nan

>  <ATP_Site>  (866) 
nan

>  <Peripheral>  (866) 
nan

>  <Num_H_Atoms_ProtBoundConf>  (866) 
nan

>  <Num_Resolved_Atoms>  (866) 
nan

>  <Num_Not_Resolved_Atoms>  (866) 
nan

$$$$
CHEMBL384964
     RDKit          3D

  0  0  0  0  0  0  0  0  0  0999 V3000
M  V30 BEGIN CTAB
M  V30 COUNTS 53 55 0 0 0
M  V30 BEGIN ATOM
M  V30 1 C 3.242140 -0.617263 -4.812369 0
M  V30 2 N 4.674991 -0.663292 -4.679359 0
M  V30 3 C 5.286391 -0.642709 -3.399700 0
M  V30 4 N 6.644347 -0.686213 -3.260849 0
M  V30 5 C 7.217619 -0.666579 -2.044110 0
M  V30 6 C 6.478584 -0.602454 -0.888899 0
M  V30 7 C 5.112503 -0.559647 -1.048839 0
M  V30 8 C 4.157362 -0.490000 0.083286 0
M  V30 9 C 4.359581 -0.458185 1.464661 0
M  V30 10 C 3.222367 -0.392535 2.231928 0
M  V30 11 C 2.036672 -0.363327 1.649888 0
M  V30 12 C 0.748875 -0.290185 2.434751 0
M  V30 13 O 0.706282 -0.253075 3.674610 0
M  V30 14 N -0.406034 -0.267891 1.620098 0
M  V30 15 C -1.799330 -0.207736 1.840902 0 CFG=1
M  V30 16 C -2.579132 0.913306 1.296090 0
M  V30 17 C -4.033335 0.852841 1.602473 0
M  V30 18 C -4.909343 0.463967 0.601882 0
M  V30 19 C -6.284204 0.364132 0.742957 0
M  V30 20 C -6.801671 0.680659 1.984578 0
M  V30 21 Cl -8.540420 0.574427 2.234114 0
M  V30 22 C -5.968453 1.075211 3.019113 0
M  V30 23 C -4.605530 1.157206 2.821586 0
M  V30 24 Cl -3.527422 1.653165 4.105607 0
M  V30 25 C -2.431226 -1.500417 1.373694 0
M  V30 26 N -1.876638 -2.628417 2.117715 0
M  V30 27 C -2.449778 -3.882622 1.645522 0
M  V30 28 C -2.092779 -2.506532 3.548529 0
M  V30 29 S 2.299550 -0.422739 -0.074698 0
M  V30 30 N 4.559701 -0.580129 -2.271850 0
M  V30 31 H 2.959370 -1.135522 -5.748255 0
M  V30 32 H 2.909572 0.436677 -4.914279 0
M  V30 33 H 2.713140 -1.127734 -3.998744 0
M  V30 34 H 5.298039 -0.712702 -5.520416 0
M  V30 35 H 8.289175 -0.698516 -1.862478 0
M  V30 36 H 6.759408 -0.578565 0.146811 0
M  V30 37 H 5.404172 -0.489762 1.744467 0
M  V30 38 H 3.396271 -0.369395 3.323788 0
M  V30 39 H -0.361283 -0.296669 0.556384 0
M  V30 40 H -1.921788 -0.206650 2.945756 0
M  V30 41 H -2.223428 1.879784 1.727732 0
M  V30 42 H -2.472009 1.103223 0.210676 0
M  V30 43 H -4.515168 0.214997 -0.365721 0
M  V30 44 H -6.896742 0.052558 -0.090058 0
M  V30 45 H -6.398452 1.317341 3.980201 0
M  V30 46 H -3.544982 -1.478610 1.537985 0
M  V30 47 H -2.192321 -1.728667 0.311701 0
M  V30 48 H -1.784167 -4.300842 0.839721 0
M  V30 49 H -2.391216 -4.601781 2.489667 0
M  V30 50 H -3.486834 -3.806601 1.323488 0
M  V30 51 H -2.440855 -3.496637 3.968359 0
M  V30 52 H -1.115029 -2.268103 4.007397 0
M  V30 53 H -2.840478 -1.774778 3.840109 0
M  V30 END ATOM
M  V30 BEGIN BOND
M  V30 1 1 1 2
M  V30 2 1 2 3
M  V30 3 2 3 4
M  V30 4 1 4 5
M  V30 5 2 5 6
M  V30 6 1 6 7
M  V30 7 1 7 8
M  V30 8 2 8 9
M  V30 9 1 9 10
M  V30 10 2 10 11
M  V30 11 1 11 12
M  V30 12 2 12 13
M  V30 13 1 12 14
M  V30 14 1 14 15
M  V30 15 1 15 16
M  V30 16 1 16 17
M  V30 17 2 17 18
M  V30 18 1 18 19
M  V30 19 2 19 20
M  V30 20 1 20 21
M  V30 21 1 20 22
M  V30 22 2 22 23
M  V30 23 1 23 24
M  V30 24 1 15 25
M  V30 25 1 25 26
M  V30 26 1 26 27
M  V30 27 1 26 28
M  V30 28 1 11 29
M  V30 29 2 7 30
M  V30 30 1 30 3
M  V30 31 1 29 8
M  V30 32 1 23 17
M  V30 33 1 1 31
M  V30 34 1 1 32
M  V30 35 1 1 33
M  V30 36 1 2 34
M  V30 37 1 5 35
M  V30 38 1 6 36
M  V30 39 1 9 37
M  V30 40 1 10 38
M  V30 41 1 14 39
M  V30 42 1 15 40 CFG=1
M  V30 43 1 16 41
M  V30 44 1 16 42
M  V30 45 1 18 43
M  V30 46 1 19 44
M  V30 47 1 22 45
M  V30 48 1 25 46
M  V30 49 1 25 47
M  V30 50 1 27 48
M  V30 51 1 27 49
M  V30 52 1 27 50
M  V30 53 1 28 51
M  V30 54 1 28 52
M  V30 55 1 28 53
M  V30 END BOND
M  V30 END CTAB
M  END
>  <Dataset>  (867) 
ChEMBL_Kinases

>  <Ligand_Instance>  (867) 
nan

>  <PDB_ID>  (867) 
nan

>  <Standardized_SMILES>  (867) 
CNc1nccc(-c2ccc(C(=O)N[C@@H](Cc3ccc(Cl)cc3Cl)CN(C)C)s2)n1

>  <Name>  (867) 
nan

>  <Pocket>  (867) 
nan

>  <ATP_Site>  (867) 
nan

>  <Peripheral>  (867) 
nan

>  <Num_H_Atoms_ProtBoundConf>  (867) 
nan

>  <Num_Resolved_Atoms>  (867) 
nan

>  <Num_Not_Resolved_Atoms>  (867) 
nan

$$$$
CHEMBL593951
     RDKit          3D

  0  0  0  0  0  0  0  0  0  0999 V3000
M  V30 BEGIN CTAB
M  V30 COUNTS 37 40 0 0 0
M  V30 BEGIN ATOM
M  V30 1 C 1.745626 -3.094062 1.888716 0
M  V30 2 N 0.495687 -2.397655 2.146550 0
M  V30 3 C 0.174574 -1.278341 1.458947 0
M  V30 4 C 0.938310 -0.590954 0.409129 0
M  V30 5 C 2.204020 -0.057287 0.615748 0
M  V30 6 C 2.867056 0.578639 -0.420481 0
M  V30 7 C 2.278834 0.689848 -1.670067 0
M  V30 8 N 2.914723 1.313029 -2.706244 0
M  V30 9 C 2.332861 1.414937 -3.915841 0
M  V30 10 C 1.062376 0.888015 -4.151293 0
M  V30 11 N 0.425379 0.267170 -3.124632 0
M  V30 12 C 1.012360 0.168309 -1.916965 0
M  V30 13 C 0.373533 -0.460992 -0.865402 0
M  V30 14 C -1.055449 -0.865747 1.931270 0
M  V30 15 C -1.835061 0.290475 1.513077 0
M  V30 16 C -1.393374 1.550322 1.666590 0
M  V30 17 C -2.184008 2.655022 1.245128 0
M  V30 18 S -3.720971 1.814947 0.556424 0
M  V30 19 C -3.104823 0.089326 0.922616 0
M  V30 20 C -1.443301 -1.758324 2.899953 0
M  V30 21 O -2.494161 -1.786186 3.608499 0
M  V30 22 N -0.464414 -2.696361 3.012831 0
M  V30 23 C -0.351410 -3.869186 3.879247 0
M  V30 24 H 2.556652 -2.749613 2.564254 0
M  V30 25 H 1.653426 -4.192224 2.069166 0
M  V30 26 H 2.084561 -2.972817 0.859211 0
M  V30 27 H 2.640802 -0.161528 1.612287 0
M  V30 28 H 3.858951 0.997370 -0.259377 0
M  V30 29 H 2.848392 1.916079 -4.743305 0
M  V30 30 H 0.654115 1.008254 -5.156455 0
M  V30 31 H -0.618606 -0.888574 -0.997436 0
M  V30 32 H -0.450288 1.840756 2.098872 0
M  V30 33 H -2.001397 3.719389 1.284618 0
M  V30 34 H -3.582770 -0.921894 0.741110 0
M  V30 35 H 0.550051 -3.695310 4.536470 0
M  V30 36 H -1.212052 -3.931239 4.548806 0
M  V30 37 H -0.162559 -4.790018 3.300950 0
M  V30 END ATOM
M  V30 BEGIN BOND
M  V30 1 1 1 2
M  V30 2 1 2 3
M  V30 3 1 3 4
M  V30 4 2 4 5
M  V30 5 1 5 6
M  V30 6 2 6 7
M  V30 7 1 7 8
M  V30 8 2 8 9
M  V30 9 1 9 10
M  V30 10 2 10 11
M  V30 11 1 11 12
M  V30 12 2 12 13
M  V30 13 2 3 14
M  V30 14 1 14 15
M  V30 15 1 15 16
M  V30 16 2 16 17
M  V30 17 1 17 18
M  V30 18 1 18 19
M  V30 19 1 14 20
M  V30 20 2 20 21
M  V30 21 1 20 22
M  V30 22 1 22 23
M  V30 23 1 22 2
M  V30 24 1 13 4
M  V30 25 2 19 15
M  V30 26 1 12 7
M  V30 27 1 1 24
M  V30 28 1 1 25
M  V30 29 1 1 26
M  V30 30 1 5 27
M  V30 31 1 6 28
M  V30 32 1 9 29
M  V30 33 1 10 30
M  V30 34 1 13 31
M  V30 35 1 16 32
M  V30 36 1 17 33
M  V30 37 1 19 34
M  V30 38 1 23 35
M  V30 39 1 23 36
M  V30 40 1 23 37
M  V30 END BOND
M  V30 END CTAB
M  END
>  <Dataset>  (868) 
ChEMBL_Kinases

>  <Ligand_Instance>  (868) 
nan

>  <PDB_ID>  (868) 
nan

>  <Standardized_SMILES>  (868) 
Cn1c(-c2ccc3nccnc3c2)c(-c2ccsc2)c(=O)n1C

>  <Name>  (868) 
nan

>  <Pocket>  (868) 
nan

>  <ATP_Site>  (868) 
nan

>  <Peripheral>  (868) 
nan

>  <Num_H_Atoms_ProtBoundConf>  (868) 
nan

>  <Num_Resolved_Atoms>  (868) 
nan

>  <Num_Not_Resolved_Atoms>  (868) 
nan

$$$$
CHEMBL493937
     RDKit          3D

  0  0  0  0  0  0  0  0  0  0999 V3000
M  V30 BEGIN CTAB
M  V30 COUNTS 47 49 0 0 0
M  V30 BEGIN ATOM
M  V30 1 C -2.645718 -4.416997 0.867580 0
M  V30 2 N -3.175776 -3.142922 0.491143 0
M  V30 3 C -3.369823 -3.001138 -0.929478 0
M  V30 4 C -4.029042 -1.715380 -1.264983 0
M  V30 5 C -3.165427 -0.511817 -1.366371 0
M  V30 6 N -1.973194 -0.527177 -0.593546 0
M  V30 7 C -1.247751 0.699881 -0.632538 0
M  V30 8 C -1.719830 1.762811 -1.374441 0
M  V30 9 N -0.999283 2.894996 -1.377473 0
M  V30 10 C 0.146542 2.978322 -0.674516 0
M  V30 11 C 0.642040 1.932811 0.075288 0
M  V30 12 C 1.883400 2.011419 0.841746 0
M  V30 13 C 2.690770 3.126030 0.901781 0
M  V30 14 C 3.855627 3.153284 1.640256 0
M  V30 15 C 4.199990 2.012632 2.332216 0
M  V30 16 C 3.428425 0.873615 2.305281 0
M  V30 17 C 3.773228 -0.343779 3.029145 0
M  V30 18 C 4.844365 -0.505467 3.785095 0
M  V30 19 C 5.117430 -1.760187 4.478187 0
M  V30 20 O 6.140290 -1.906882 5.196854 0
M  V30 21 O 4.211080 -2.825311 4.334196 0
M  V30 22 C 2.285384 0.914189 1.552885 0
M  V30 23 N -0.100806 0.814518 0.058241 0
M  V30 24 C -1.400641 -1.578931 0.207736 0
M  V30 25 C -2.511822 -2.050905 1.127167 0
M  V30 26 H -3.463706 -5.025756 1.302259 0
M  V30 27 H -2.167010 -4.966503 0.029466 0
M  V30 28 H -1.880883 -4.294343 1.666938 0
M  V30 29 H -2.497132 -3.232434 -1.549604 0
M  V30 30 H -4.114702 -3.809976 -1.187105 0
M  V30 31 H -4.542471 -1.833556 -2.261784 0
M  V30 32 H -4.881828 -1.576054 -0.540718 0
M  V30 33 H -2.914604 -0.243527 -2.414013 0
M  V30 34 H -3.788767 0.346873 -0.978219 0
M  V30 35 H -2.636080 1.722532 -1.947395 0
M  V30 36 H 0.685355 3.914021 -0.713510 0
M  V30 37 H 2.410850 3.997893 0.362148 0
M  V30 38 H 4.472614 4.052481 1.666584 0
M  V30 39 H 5.110831 2.044833 2.905149 0
M  V30 40 H 3.129585 -1.208987 2.971752 0
M  V30 41 H 5.527413 0.318046 3.885049 0
M  V30 42 H 4.484085 -3.782010 4.520423 0
M  V30 43 H 1.672391 0.024042 1.525391 0
M  V30 44 H -0.982634 -2.402933 -0.398311 0
M  V30 45 H -0.578037 -1.222296 0.860467 0
M  V30 46 H -3.239500 -1.231474 1.319173 0
M  V30 47 H -2.095144 -2.422758 2.086006 0
M  V30 END ATOM
M  V30 BEGIN BOND
M  V30 1 1 1 2
M  V30 2 1 2 3
M  V30 3 1 3 4
M  V30 4 1 4 5
M  V30 5 1 5 6
M  V30 6 1 6 7
M  V30 7 2 7 8
M  V30 8 1 8 9
M  V30 9 2 9 10
M  V30 10 1 10 11
M  V30 11 1 11 12
M  V30 12 2 12 13
M  V30 13 1 13 14
M  V30 14 2 14 15
M  V30 15 1 15 16
M  V30 16 1 16 17
M  V30 17 2 17 18
M  V30 18 1 18 19
M  V30 19 2 19 20
M  V30 20 1 19 21
M  V30 21 2 16 22
M  V30 22 2 11 23
M  V30 23 1 6 24
M  V30 24 1 24 25
M  V30 25 1 25 2
M  V30 26 1 23 7
M  V30 27 1 22 12
M  V30 28 1 1 26
M  V30 29 1 1 27
M  V30 30 1 1 28
M  V30 31 1 3 29
M  V30 32 1 3 30
M  V30 33 1 4 31
M  V30 34 1 4 32
M  V30 35 1 5 33
M  V30 36 1 5 34
M  V30 37 1 8 35
M  V30 38 1 10 36
M  V30 39 1 13 37
M  V30 40 1 14 38
M  V30 41 1 15 39
M  V30 42 1 17 40
M  V30 43 1 18 41
M  V30 44 1 21 42
M  V30 45 1 22 43
M  V30 46 1 24 44
M  V30 47 1 24 45
M  V30 48 1 25 46
M  V30 49 1 25 47
M  V30 END BOND
M  V30 END CTAB
M  END
>  <Dataset>  (869) 
ChEMBL_Kinases

>  <Ligand_Instance>  (869) 
nan

>  <PDB_ID>  (869) 
nan

>  <Standardized_SMILES>  (869) 
CN1CCCN(c2cncc(-c3cccc(/C=C/C(=O)O)c3)n2)CC1

>  <Name>  (869) 
nan

>  <Pocket>  (869) 
nan

>  <ATP_Site>  (869) 
nan

>  <Peripheral>  (869) 
nan

>  <Num_H_Atoms_ProtBoundConf>  (869) 
nan

>  <Num_Resolved_Atoms>  (869) 
nan

>  <Num_Not_Resolved_Atoms>  (869) 
nan

$$$$
CHEMBL593950
     RDKit          3D

  0  0  0  0  0  0  0  0  0  0999 V3000
M  V30 BEGIN CTAB
M  V30 COUNTS 46 49 0 0 0
M  V30 BEGIN ATOM
M  V30 1 C 2.250321 -6.182001 4.561413 0
M  V30 2 O 1.506687 -4.994740 4.350276 0
M  V30 3 C 1.273273 -4.474961 3.088196 0
M  V30 4 O 1.740395 -5.080561 2.086412 0
M  V30 5 C 0.495440 -3.239657 2.910263 0
M  V30 6 C -0.026287 -2.555888 3.987757 0
M  V30 7 C -0.771227 -1.380114 3.855176 0
M  V30 8 C -0.963554 -0.926549 2.566228 0
M  V30 9 C -0.457110 -1.584358 1.471458 0
M  V30 10 C -0.601349 -1.198517 0.072913 0
M  V30 11 C -0.245284 -0.125867 -0.717561 0
M  V30 12 C 0.465982 0.990658 -0.108996 0
M  V30 13 C 1.692390 1.022416 0.517719 0
M  V30 14 C 2.166182 2.217554 1.019861 0
M  V30 15 C 1.430818 3.376862 0.903078 0
M  V30 16 N 1.915378 4.538534 1.402187 0
M  V30 17 C 1.243834 5.698064 1.316617 0
M  V30 18 C -0.001307 5.694818 0.686739 0
M  V30 19 N -0.499245 4.531933 0.180608 0
M  V30 20 C 0.185269 3.378606 0.274029 0
M  V30 21 C -0.272150 2.169801 -0.222784 0
M  V30 22 N -0.665585 -0.356077 -1.976041 0
M  V30 23 C -0.446211 0.585799 -3.056901 0
M  V30 24 N -1.277359 -1.525497 -2.041940 0
M  V30 25 C -1.876204 -2.138712 -3.229375 0
M  V30 26 C -1.258790 -2.079432 -0.793027 0
M  V30 27 O -1.781287 -3.216573 -0.556680 0
M  V30 28 C 0.284239 -2.758971 1.640502 0
M  V30 29 H 2.539908 -6.305063 5.621057 0
M  V30 30 H 1.587409 -7.018827 4.245698 0
M  V30 31 H 3.128932 -6.159178 3.904013 0
M  V30 32 H 0.130725 -2.921551 5.000769 0
M  V30 33 H -1.181710 -0.841144 4.695098 0
M  V30 34 H -1.525297 -0.025624 2.346514 0
M  V30 35 H 2.166612 0.057509 0.545919 0
M  V30 36 H 3.137404 2.178346 1.502039 0
M  V30 37 H 1.600989 6.643722 1.704526 0
M  V30 38 H -0.637915 6.576838 0.557618 0
M  V30 39 H -1.251851 2.273795 -0.695318 0
M  V30 40 H 0.523143 1.110387 -2.894962 0
M  V30 41 H -1.280564 1.280938 -3.208795 0
M  V30 42 H -0.314839 0.008891 -3.998972 0
M  V30 43 H -2.810663 -2.606594 -2.908297 0
M  V30 44 H -1.955611 -1.377329 -4.007262 0
M  V30 45 H -1.189675 -2.979520 -3.516393 0
M  V30 46 H 0.714042 -3.328636 0.806526 0
M  V30 END ATOM
M  V30 BEGIN BOND
M  V30 1 1 1 2
M  V30 2 1 2 3
M  V30 3 2 3 4
M  V30 4 1 3 5
M  V30 5 2 5 6
M  V30 6 1 6 7
M  V30 7 2 7 8
M  V30 8 1 8 9
M  V30 9 1 9 10
M  V30 10 2 10 11
M  V30 11 1 11 12
M  V30 12 2 12 13
M  V30 13 1 13 14
M  V30 14 2 14 15
M  V30 15 1 15 16
M  V30 16 2 16 17
M  V30 17 1 17 18
M  V30 18 2 18 19
M  V30 19 1 19 20
M  V30 20 2 20 21
M  V30 21 1 11 22
M  V30 22 1 22 23
M  V30 23 1 22 24
M  V30 24 1 24 25
M  V30 25 1 24 26
M  V30 26 2 26 27
M  V30 27 2 9 28
M  V30 28 1 28 5
M  V30 29 1 26 10
M  V30 30 1 21 12
M  V30 31 1 20 15
M  V30 32 1 1 29
M  V30 33 1 1 30
M  V30 34 1 1 31
M  V30 35 1 6 32
M  V30 36 1 7 33
M  V30 37 1 8 34
M  V30 38 1 13 35
M  V30 39 1 14 36
M  V30 40 1 17 37
M  V30 41 1 18 38
M  V30 42 1 21 39
M  V30 43 1 23 40
M  V30 44 1 23 41
M  V30 45 1 23 42
M  V30 46 1 25 43
M  V30 47 1 25 44
M  V30 48 1 25 45
M  V30 49 1 28 46
M  V30 END BOND
M  V30 END CTAB
M  END
>  <Dataset>  (870) 
ChEMBL_Kinases

>  <Ligand_Instance>  (870) 
nan

>  <PDB_ID>  (870) 
nan

>  <Standardized_SMILES>  (870) 
COC(=O)c1cccc(-c2c(-c3ccc4nccnc4c3)n(C)n(C)c2=O)c1

>  <Name>  (870) 
nan

>  <Pocket>  (870) 
nan

>  <ATP_Site>  (870) 
nan

>  <Peripheral>  (870) 
nan

>  <Num_H_Atoms_ProtBoundConf>  (870) 
nan

>  <Num_Resolved_Atoms>  (870) 
nan

>  <Num_Not_Resolved_Atoms>  (870) 
nan

$$$$
CHEMBL384942
     RDKit          3D

  0  0  0  0  0  0  0  0  0  0999 V3000
M  V30 BEGIN CTAB
M  V30 COUNTS 72 76 0 0 0
M  V30 BEGIN ATOM
M  V30 1 C 3.078726 -1.950282 3.650113 0
M  V30 2 C 2.691033 -0.558182 3.250407 0
M  V30 3 C 3.395810 0.516657 3.776881 0
M  V30 4 C 3.025610 1.792280 3.401548 0
M  V30 5 C 1.982544 2.005769 2.525456 0
M  V30 6 C 1.658057 3.371909 2.180744 0
M  V30 7 O 2.341900 4.302419 2.678566 0
M  V30 8 N 0.603532 3.691352 1.307815 0
M  V30 9 C 0.167187 4.977782 0.876600 0
M  V30 10 C 0.782185 5.441114 -0.288256 0
M  V30 11 C 0.406784 6.672026 -0.754493 0
M  V30 12 C -0.533107 7.479242 -0.152489 0
M  V30 13 C -1.121465 6.998780 0.991016 0
M  V30 14 C -2.135519 7.815677 1.685243 0
M  V30 15 F -3.360363 7.185241 1.775316 0
M  V30 16 F -1.723778 8.189353 2.950541 0
M  V30 17 F -2.363752 9.011441 1.004964 0
M  V30 18 C -0.788781 5.767965 1.512845 0
M  V30 19 C -1.375972 5.188071 2.732585 0
M  V30 20 C 1.312696 0.919199 2.028447 0
M  V30 21 C 1.641950 -0.385638 2.371297 0
M  V30 22 C 0.877808 -1.481046 1.791177 0
M  V30 23 C 1.524352 -2.586849 1.272038 0
M  V30 24 C 0.751552 -3.602003 0.733394 0
M  V30 25 C -0.639254 -3.481370 0.729871 0
M  V30 26 N -1.383825 -4.487398 0.197658 0
M  V30 27 C -2.721261 -4.374535 0.193150 0
M  V30 28 N -3.386181 -5.483178 -0.383175 0
M  V30 29 C -2.895747 -6.656306 -1.013854 0
M  V30 30 C -2.506900 -6.650289 -2.422614 0
M  V30 31 N -1.541622 -5.852220 -2.995850 0
M  V30 32 C -1.697031 -4.477777 -3.205116 0
M  V30 33 C -0.389975 -3.752064 -3.097040 0
M  V30 34 C 0.678724 -4.355724 -3.991621 0
M  V30 35 C 0.788776 -5.826286 -3.635708 0
M  V30 36 C -0.534419 -6.499394 -3.782645 0
M  V30 37 N -3.321341 -3.298848 0.699075 0
M  V30 38 C -2.619630 -2.267890 1.241672 0
M  V30 39 C -1.241633 -2.360837 1.258004 0
M  V30 40 C -0.500944 -1.317374 1.809363 0
M  V30 41 H 3.319356 -1.850213 4.750505 0
M  V30 42 H 3.991802 -2.302805 3.172304 0
M  V30 43 H 2.223011 -2.653367 3.631630 0
M  V30 44 H 4.223699 0.388336 4.470458 0
M  V30 45 H 3.596788 2.630853 3.829603 0
M  V30 46 H 0.006638 2.981727 0.868347 0
M  V30 47 H 1.530555 4.854522 -0.810577 0
M  V30 48 H 0.863455 7.066780 -1.659145 0
M  V30 49 H -0.806397 8.447640 -0.547816 0
M  V30 50 H -0.669929 4.508185 3.263069 0
M  V30 51 H -2.277031 4.575692 2.503854 0
M  V30 52 H -1.712100 5.954153 3.454053 0
M  V30 53 H 0.490739 1.058713 1.339929 0
M  V30 54 H 2.596157 -2.695598 1.265979 0
M  V30 55 H 1.235491 -4.490430 0.314889 0
M  V30 56 H -4.447136 -5.396784 -0.321086 0
M  V30 57 H -2.081397 -7.046653 -0.328151 0
M  V30 58 H -3.676226 -7.490038 -0.902807 0
M  V30 59 H -2.299324 -7.725105 -2.783717 0
M  V30 60 H -3.479159 -6.450266 -3.008467 0
M  V30 61 H -2.422816 -4.034699 -2.530094 0
M  V30 62 H -2.019061 -4.299433 -4.296184 0
M  V30 63 H -0.597520 -2.696291 -3.375269 0
M  V30 64 H -0.016809 -3.782465 -2.080968 0
M  V30 65 H 0.514962 -4.171773 -5.056848 0
M  V30 66 H 1.637998 -3.883969 -3.696903 0
M  V30 67 H 1.233275 -5.859039 -2.633892 0
M  V30 68 H 1.499189 -6.350315 -4.318608 0
M  V30 69 H -0.500151 -7.555041 -3.534011 0
M  V30 70 H -0.832585 -6.384656 -4.857279 0
M  V30 71 H -3.177112 -1.430476 1.631380 0
M  V30 72 H -0.992819 -0.456106 2.213536 0
M  V30 END ATOM
M  V30 BEGIN BOND
M  V30 1 1 1 2
M  V30 2 2 2 3
M  V30 3 1 3 4
M  V30 4 2 4 5
M  V30 5 1 5 6
M  V30 6 2 6 7
M  V30 7 1 6 8
M  V30 8 1 8 9
M  V30 9 2 9 10
M  V30 10 1 10 11
M  V30 11 2 11 12
M  V30 12 1 12 13
M  V30 13 1 13 14
M  V30 14 1 14 15
M  V30 15 1 14 16
M  V30 16 1 14 17
M  V30 17 2 13 18
M  V30 18 1 18 19
M  V30 19 1 5 20
M  V30 20 2 20 21
M  V30 21 1 21 22
M  V30 22 2 22 23
M  V30 23 1 23 24
M  V30 24 2 24 25
M  V30 25 1 25 26
M  V30 26 2 26 27
M  V30 27 1 27 28
M  V30 28 1 28 29
M  V30 29 1 29 30
M  V30 30 1 30 31
M  V30 31 1 31 32
M  V30 32 1 32 33
M  V30 33 1 33 34
M  V30 34 1 34 35
M  V30 35 1 35 36
M  V30 36 1 27 37
M  V30 37 2 37 38
M  V30 38 1 38 39
M  V30 39 2 39 40
M  V30 40 1 21 2
M  V30 41 1 40 22
M  V30 42 1 18 9
M  V30 43 1 39 25
M  V30 44 1 36 31
M  V30 45 1 1 41
M  V30 46 1 1 42
M  V30 47 1 1 43
M  V30 48 1 3 44
M  V30 49 1 4 45
M  V30 50 1 8 46
M  V30 51 1 10 47
M  V30 52 1 11 48
M  V30 53 1 12 49
M  V30 54 1 19 50
M  V30 55 1 19 51
M  V30 56 1 19 52
M  V30 57 1 20 53
M  V30 58 1 23 54
M  V30 59 1 24 55
M  V30 60 1 28 56
M  V30 61 1 29 57
M  V30 62 1 29 58
M  V30 63 1 30 59
M  V30 64 1 30 60
M  V30 65 1 32 61
M  V30 66 1 32 62
M  V30 67 1 33 63
M  V30 68 1 33 64
M  V30 69 1 34 65
M  V30 70 1 34 66
M  V30 71 1 35 67
M  V30 72 1 35 68
M  V30 73 1 36 69
M  V30 74 1 36 70
M  V30 75 1 38 71
M  V30 76 1 40 72
M  V30 END BOND
M  V30 END CTAB
M  END
>  <Dataset>  (871) 
ChEMBL_Kinases

>  <Ligand_Instance>  (871) 
nan

>  <PDB_ID>  (871) 
nan

>  <Standardized_SMILES>  (871) 
Cc1ccc(C(=O)Nc2cccc(C(F)(F)F)c2C)cc1-c1ccc2nc(NCCN3CCCCC3)ncc2c1

>  <Name>  (871) 
nan

>  <Pocket>  (871) 
nan

>  <ATP_Site>  (871) 
nan

>  <Peripheral>  (871) 
nan

>  <Num_H_Atoms_ProtBoundConf>  (871) 
nan

>  <Num_Resolved_Atoms>  (871) 
nan

>  <Num_Not_Resolved_Atoms>  (871) 
nan

$$$$
CHEMBL384914
     RDKit          3D

  0  0  0  0  0  0  0  0  0  0999 V3000
M  V30 BEGIN CTAB
M  V30 COUNTS 37 42 0 0 0
M  V30 BEGIN ATOM
M  V30 1 O -3.330842 -0.024060 2.243424 0
M  V30 2 C -2.321398 -0.672027 1.949622 0
M  V30 3 N -2.363778 -1.994032 2.444841 0
M  V30 4 C -1.135802 -2.625259 2.031690 0
M  V30 5 C -0.434377 -1.550304 1.281191 0
M  V30 6 C 0.801717 -1.785306 0.721380 0
M  V30 7 C 1.357212 -0.716422 0.049407 0
M  V30 8 C 0.627790 0.464971 0.006504 0
M  V30 9 S 1.185079 1.912103 -0.801797 0
M  V30 10 C -0.367867 2.875587 -0.337717 0
M  V30 11 C -0.622484 4.189486 -0.675388 0
M  V30 12 C -1.804831 4.721010 -0.249736 0
M  V30 13 C -2.601468 3.873657 0.468556 0
M  V30 14 C -2.258006 2.589073 0.749451 0
M  V30 15 C -1.115793 1.953278 0.382029 0
M  V30 16 C -0.591651 0.717977 0.551170 0
M  V30 17 C -1.115987 -0.359572 1.210022 0
M  V30 18 C 2.688320 -1.065081 -0.519177 0
M  V30 19 C 2.868454 -2.473383 -0.109253 0
M  V30 20 C 3.952896 -3.271270 -0.388924 0
M  V30 21 C 3.905391 -4.573070 0.101513 0
M  V30 22 C 2.792201 -4.983269 0.828316 0
M  V30 23 C 1.714837 -4.162001 1.095931 0
M  V30 24 C 1.766109 -2.872987 0.608114 0
M  V30 25 H -2.996134 -2.584476 2.985463 0
M  V30 26 H -1.408062 -3.474669 1.363068 0
M  V30 27 H -0.511190 -2.941146 2.894554 0
M  V30 28 H 0.098258 4.743894 -1.249288 0
M  V30 29 H -1.962388 5.740674 -0.532647 0
M  V30 30 H -3.542927 4.351713 0.787853 0
M  V30 31 H -3.042389 2.149311 1.315471 0
M  V30 32 H 2.727365 -0.932722 -1.614048 0
M  V30 33 H 3.472809 -0.478269 0.020410 0
M  V30 34 H 4.809349 -2.938043 -0.954416 0
M  V30 35 H 4.713902 -5.271852 -0.069822 0
M  V30 36 H 2.792946 -6.006739 1.194047 0
M  V30 37 H 0.850385 -4.483202 1.661154 0
M  V30 END ATOM
M  V30 BEGIN BOND
M  V30 1 2 1 2
M  V30 2 1 2 3
M  V30 3 1 3 4
M  V30 4 1 4 5
M  V30 5 2 5 6
M  V30 6 1 6 7
M  V30 7 2 7 8
M  V30 8 1 8 9
M  V30 9 1 9 10
M  V30 10 2 10 11
M  V30 11 1 11 12
M  V30 12 2 12 13
M  V30 13 1 13 14
M  V30 14 2 14 15
M  V30 15 1 15 16
M  V30 16 2 16 17
M  V30 17 1 7 18
M  V30 18 1 18 19
M  V30 19 2 19 20
M  V30 20 1 20 21
M  V30 21 2 21 22
M  V30 22 1 22 23
M  V30 23 2 23 24
M  V30 24 1 17 2
M  V30 25 1 24 19
M  V30 26 1 17 5
M  V30 27 1 24 6
M  V30 28 1 16 8
M  V30 29 1 15 10
M  V30 30 1 3 25
M  V30 31 1 4 26
M  V30 32 1 4 27
M  V30 33 1 11 28
M  V30 34 1 12 29
M  V30 35 1 13 30
M  V30 36 1 14 31
M  V30 37 1 18 32
M  V30 38 1 18 33
M  V30 39 1 20 34
M  V30 40 1 21 35
M  V30 41 1 22 36
M  V30 42 1 23 37
M  V30 END BOND
M  V30 END CTAB
M  END
>  <Dataset>  (872) 
ChEMBL_Kinases

>  <Ligand_Instance>  (872) 
nan

>  <PDB_ID>  (872) 
nan

>  <Standardized_SMILES>  (872) 
O=C1NCc2c3c(c4sc5ccccc5c4c21)Cc1ccccc1-3

>  <Name>  (872) 
nan

>  <Pocket>  (872) 
nan

>  <ATP_Site>  (872) 
nan

>  <Peripheral>  (872) 
nan

>  <Num_H_Atoms_ProtBoundConf>  (872) 
nan

>  <Num_Resolved_Atoms>  (872) 
nan

>  <Num_Not_Resolved_Atoms>  (872) 
nan

$$$$
CHEMBL384831
     RDKit          3D

  0  0  0  0  0  0  0  0  0  0999 V3000
M  V30 BEGIN CTAB
M  V30 COUNTS 52 56 0 0 0
M  V30 BEGIN ATOM
M  V30 1 C 1.817376 0.336963 5.303720 0
M  V30 2 C 2.491300 0.156723 3.936779 0
M  V30 3 C 2.977566 -1.253292 3.894354 0
M  V30 4 C 1.467861 0.459168 2.866053 0
M  V30 5 C 2.012730 0.316300 1.461198 0
M  V30 6 N 0.951771 0.628176 0.521285 0
M  V30 7 C 0.627752 1.837931 -0.016606 0
M  V30 8 C 1.262363 3.061217 0.228315 0
M  V30 9 C 0.826714 4.216386 -0.388783 0
M  V30 10 C -0.262751 4.108988 -1.257704 0
M  V30 11 O -0.688407 5.275678 -1.869200 0
M  V30 12 C -0.834689 2.872791 -1.448342 0
M  V30 13 C -0.445538 1.715635 -0.868914 0
M  V30 14 C -0.771839 0.393810 -0.838904 0
M  V30 15 C -1.756547 -0.277173 -1.495115 0
M  V30 16 C -1.893338 -1.629907 -1.302800 0
M  V30 17 C -1.033609 -2.313142 -0.444260 0
M  V30 18 C -1.157495 -3.749366 -0.222565 0
M  V30 19 C -1.961804 -4.255898 0.793471 0
M  V30 20 C -2.050125 -5.640871 0.968826 0
M  V30 21 C -1.337217 -6.496635 0.130854 0
M  V30 22 C -0.543237 -5.954018 -0.874179 0
M  V30 23 C -0.441803 -4.584514 -1.064959 0
M  V30 24 Cl 0.581387 -4.014692 -2.353920 0
M  V30 25 C -0.043629 -1.624677 0.212335 0
M  V30 26 C 0.084731 -0.266291 0.011838 0
M  V30 27 C -2.994919 -2.207003 -2.075943 0
M  V30 28 O -3.369087 -3.401239 -2.113893 0
M  V30 29 N -3.539323 -1.069738 -2.778177 0
M  V30 30 C -2.786195 0.075196 -2.418478 0
M  V30 31 O -3.141862 1.130450 -2.947533 0
M  V30 32 H 0.713665 0.214376 5.226761 0
M  V30 33 H 2.180763 -0.405173 6.027297 0
M  V30 34 H 1.975132 1.386109 5.666162 0
M  V30 35 H 3.281930 0.903787 3.880850 0
M  V30 36 H 3.900057 -1.269637 3.281061 0
M  V30 37 H 2.199253 -1.950295 3.581276 0
M  V30 38 H 3.274941 -1.563761 4.929636 0
M  V30 39 H 0.618670 -0.240901 3.017327 0
M  V30 40 H 1.067851 1.482443 3.012512 0
M  V30 41 H 2.468243 -0.649936 1.271153 0
M  V30 42 H 2.839288 1.078042 1.355192 0
M  V30 43 H 2.101624 3.104579 0.906542 0
M  V30 44 H 1.350950 5.118767 -0.162118 0
M  V30 45 H -0.686010 5.433793 -2.862519 0
M  V30 46 H -1.652097 2.902622 -2.125129 0
M  V30 47 H -2.519990 -3.592482 1.449902 0
M  V30 48 H -2.670956 -6.082836 1.755525 0
M  V30 49 H -1.395712 -7.578693 0.254885 0
M  V30 50 H -0.008231 -6.680533 -1.498994 0
M  V30 51 H 0.633566 -2.128033 0.880755 0
M  V30 52 H -4.356736 -1.225738 -3.413142 0
M  V30 END ATOM
M  V30 BEGIN BOND
M  V30 1 1 1 2
M  V30 2 1 2 3
M  V30 3 1 2 4
M  V30 4 1 4 5
M  V30 5 1 5 6
M  V30 6 1 6 7
M  V30 7 2 7 8
M  V30 8 1 8 9
M  V30 9 2 9 10
M  V30 10 1 10 11
M  V30 11 1 10 12
M  V30 12 2 12 13
M  V30 13 1 13 14
M  V30 14 2 14 15
M  V30 15 1 15 16
M  V30 16 2 16 17
M  V30 17 1 17 18
M  V30 18 2 18 19
M  V30 19 1 19 20
M  V30 20 2 20 21
M  V30 21 1 21 22
M  V30 22 2 22 23
M  V30 23 1 23 24
M  V30 24 1 17 25
M  V30 25 2 25 26
M  V30 26 1 16 27
M  V30 27 2 27 28
M  V30 28 1 27 29
M  V30 29 1 29 30
M  V30 30 2 30 31
M  V30 31 1 26 6
M  V30 32 1 13 7
M  V30 33 1 26 14
M  V30 34 1 30 15
M  V30 35 1 23 18
M  V30 36 1 1 32
M  V30 37 1 1 33
M  V30 38 1 1 34
M  V30 39 1 2 35
M  V30 40 1 3 36
M  V30 41 1 3 37
M  V30 42 1 3 38
M  V30 43 1 4 39
M  V30 44 1 4 40
M  V30 45 1 5 41
M  V30 46 1 5 42
M  V30 47 1 8 43
M  V30 48 1 9 44
M  V30 49 1 11 45
M  V30 50 1 12 46
M  V30 51 1 19 47
M  V30 52 1 20 48
M  V30 53 1 21 49
M  V30 54 1 22 50
M  V30 55 1 25 51
M  V30 56 1 29 52
M  V30 END BOND
M  V30 END CTAB
M  END
>  <Dataset>  (873) 
ChEMBL_Kinases

>  <Ligand_Instance>  (873) 
nan

>  <PDB_ID>  (873) 
nan

>  <Standardized_SMILES>  (873) 
CC(C)CCn1c2ccc(O)cc2c2c3c(c(-c4ccccc4Cl)cc21)C(=O)NC3=O

>  <Name>  (873) 
nan

>  <Pocket>  (873) 
nan

>  <ATP_Site>  (873) 
nan

>  <Peripheral>  (873) 
nan

>  <Num_H_Atoms_ProtBoundConf>  (873) 
nan

>  <Num_Resolved_Atoms>  (873) 
nan

>  <Num_Not_Resolved_Atoms>  (873) 
nan

$$$$
CHEMBL385703
     RDKit          3D

  0  0  0  0  0  0  0  0  0  0999 V3000
M  V30 BEGIN CTAB
M  V30 COUNTS 55 57 0 0 0
M  V30 BEGIN ATOM
M  V30 1 C 3.751062 -2.139374 2.557107 0
M  V30 2 C 4.517380 -1.814029 1.321042 0
M  V30 3 C 5.984506 -1.877952 1.658487 0
M  V30 4 O 6.812172 -1.802307 0.542370 0
M  V30 5 N 4.131716 -0.601406 0.649294 0
M  V30 6 C 3.166616 0.160842 0.938758 0
M  V30 7 N 2.312190 -0.123514 2.025707 0
M  V30 8 C 2.779057 1.385323 0.266815 0
M  V30 9 C 3.564216 1.736523 -0.801985 0
M  V30 10 O 4.688646 1.126364 -1.382831 0
M  V30 11 N 3.429217 2.826591 -1.599786 0
M  V30 12 S 1.930015 3.596422 -0.787858 0
M  V30 13 C 1.806697 2.289657 0.447595 0
M  V30 14 N 0.847936 2.157190 1.491996 0
M  V30 15 C -0.400227 1.493210 1.199089 0
M  V30 16 C -1.361389 1.263499 2.186581 0
M  V30 17 C -2.536693 0.634068 1.864595 0
M  V30 18 C -2.785244 0.221723 0.571281 0
M  V30 19 C -4.028368 -0.476492 0.106481 0
M  V30 20 C -4.715205 0.351412 -0.951676 0
M  V30 21 C -4.976600 -0.590335 1.296512 0
M  V30 22 C -3.725796 -1.817039 -0.428701 0
M  V30 23 C -3.185307 -2.818607 0.349865 0
M  V30 24 C -2.910925 -4.072506 -0.184822 0
M  V30 25 C -3.185650 -4.314267 -1.516918 0
M  V30 26 C -3.729867 -3.347931 -2.352891 0
M  V30 27 C -3.976932 -2.122581 -1.751442 0
M  V30 28 C -1.860857 0.430713 -0.430464 0
M  V30 29 C -0.674813 1.066269 -0.103521 0
M  V30 30 H 3.865685 -1.346116 3.342574 0
M  V30 31 H 2.720472 -2.473906 2.401916 0
M  V30 32 H 4.286493 -3.018474 3.020229 0
M  V30 33 H 4.330187 -2.637386 0.596765 0
M  V30 34 H 6.156743 -2.904165 2.079595 0
M  V30 35 H 6.257703 -1.158520 2.434563 0
M  V30 36 H 6.601987 -2.543121 -0.073697 0
M  V30 37 H 2.233966 0.414862 2.914370 0
M  V30 38 H 1.684179 -0.347092 2.804259 0
M  V30 39 H 4.631007 0.214027 -1.817201 0
M  V30 40 H 0.963198 2.501340 2.469628 0
M  V30 41 H -1.167881 1.588077 3.209091 0
M  V30 42 H -3.313466 0.434491 2.600588 0
M  V30 43 H -5.035373 1.337112 -0.543832 0
M  V30 44 H -5.616446 -0.205063 -1.265800 0
M  V30 45 H -4.032556 0.594008 -1.791494 0
M  V30 46 H -4.476647 -1.168314 2.124087 0
M  V30 47 H -5.220937 0.416835 1.672640 0
M  V30 48 H -5.898518 -1.111421 1.040513 0
M  V30 49 H -2.962413 -2.660882 1.384514 0
M  V30 50 H -2.481776 -4.876852 0.423152 0
M  V30 51 H -2.972577 -5.288031 -1.934278 0
M  V30 52 H -3.946877 -3.529450 -3.392790 0
M  V30 53 H -4.408186 -1.370634 -2.430625 0
M  V30 54 H -1.991818 0.132649 -1.468628 0
M  V30 55 H 0.071379 1.243624 -0.873567 0
M  V30 END ATOM
M  V30 BEGIN BOND
M  V30 1 1 1 2
M  V30 2 1 2 3
M  V30 3 1 3 4
M  V30 4 1 2 5
M  V30 5 2 5 6
M  V30 6 1 6 7
M  V30 7 1 6 8
M  V30 8 1 8 9
M  V30 9 1 9 10
M  V30 10 2 9 11
M  V30 11 1 11 12
M  V30 12 1 12 13
M  V30 13 1 13 14
M  V30 14 1 14 15
M  V30 15 2 15 16
M  V30 16 1 16 17
M  V30 17 2 17 18
M  V30 18 1 18 19
M  V30 19 1 19 20
M  V30 20 1 19 21
M  V30 21 1 19 22
M  V30 22 2 22 23
M  V30 23 1 23 24
M  V30 24 2 24 25
M  V30 25 1 25 26
M  V30 26 2 26 27
M  V30 27 1 18 28
M  V30 28 2 28 29
M  V30 29 2 13 8
M  V30 30 1 29 15
M  V30 31 1 27 22
M  V30 32 1 1 30
M  V30 33 1 1 31
M  V30 34 1 1 32
M  V30 35 1 2 33
M  V30 36 1 3 34
M  V30 37 1 3 35
M  V30 38 1 4 36
M  V30 39 1 7 37
M  V30 40 1 7 38
M  V30 41 1 10 39
M  V30 42 1 14 40
M  V30 43 1 16 41
M  V30 44 1 17 42
M  V30 45 1 20 43
M  V30 46 1 20 44
M  V30 47 1 20 45
M  V30 48 1 21 46
M  V30 49 1 21 47
M  V30 50 1 21 48
M  V30 51 1 23 49
M  V30 52 1 24 50
M  V30 53 1 25 51
M  V30 54 1 26 52
M  V30 55 1 27 53
M  V30 56 1 28 54
M  V30 57 1 29 55
M  V30 END BOND
M  V30 END CTAB
M  END
>  <Dataset>  (874) 
ChEMBL_Kinases

>  <Ligand_Instance>  (874) 
nan

>  <PDB_ID>  (874) 
nan

>  <Standardized_SMILES>  (874) 
CC(CO)/N=C(\N)c1c(O)nsc1Nc1ccc(C(C)(C)c2ccccc2)cc1

>  <Name>  (874) 
nan

>  <Pocket>  (874) 
nan

>  <ATP_Site>  (874) 
nan

>  <Peripheral>  (874) 
nan

>  <Num_H_Atoms_ProtBoundConf>  (874) 
nan

>  <Num_Resolved_Atoms>  (874) 
nan

>  <Num_Not_Resolved_Atoms>  (874) 
nan

$$$$
CHEMBL384795
     RDKit          3D

  0  0  0  0  0  0  0  0  0  0999 V3000
M  V30 BEGIN CTAB
M  V30 COUNTS 43 47 0 0 0
M  V30 BEGIN ATOM
M  V30 1 C 0.728347 -3.852984 3.376318 0
M  V30 2 C 0.545740 -2.894455 2.186941 0
M  V30 3 C 1.753209 -2.113039 2.027157 0
M  V30 4 N 2.867626 -2.197079 2.782662 0
M  V30 5 N 3.771336 -1.360878 2.382997 0
M  V30 6 C 3.267904 -0.690808 1.334249 0
M  V30 7 C 3.807107 0.292685 0.553900 0
M  V30 8 C 3.111188 0.856166 -0.489402 0
M  V30 9 C 1.823657 0.390188 -0.732109 0
M  V30 10 C 0.979710 0.907478 -1.810512 0
M  V30 11 O 1.089318 0.945377 -3.133026 0
M  V30 12 C 0.048633 1.525137 -3.652851 0
M  V30 13 N -0.782986 1.886424 -2.648515 0
M  V30 14 C -0.235190 1.516677 -1.476354 0
M  V30 15 C -0.833168 1.734743 -0.165852 0
M  V30 16 C -0.083463 2.567345 0.666665 0
M  V30 17 C -0.535535 2.850879 1.924210 0
M  V30 18 C -1.708434 2.365812 2.452756 0
M  V30 19 F -2.129864 2.662630 3.698110 0
M  V30 20 C -2.439773 1.536411 1.601886 0
M  V30 21 C -2.016905 1.227333 0.327372 0
M  V30 22 F -2.690556 0.431391 -0.527616 0
M  V30 23 C 1.362141 -0.611833 0.115088 0
M  V30 24 N 2.024771 -1.168925 1.131519 0
M  V30 25 C -0.793785 -2.411417 2.071454 0
M  V30 26 C -1.173201 -3.597953 1.256138 0
M  V30 27 C 0.306230 -3.747951 0.954443 0
M  V30 28 H 1.741652 -4.239470 3.452631 0
M  V30 29 H 0.545589 -3.218288 4.283849 0
M  V30 30 H -0.049549 -4.635019 3.362882 0
M  V30 31 H 4.804630 0.681329 0.710847 0
M  V30 32 H 3.491335 1.635471 -1.135424 0
M  V30 33 H -0.014081 1.635507 -4.733773 0
M  V30 34 H 0.855689 3.011330 0.367822 0
M  V30 35 H 0.036375 3.498333 2.587214 0
M  V30 36 H -3.365969 1.124113 1.953419 0
M  V30 37 H 0.372265 -0.954281 -0.088751 0
M  V30 38 H -1.086869 -1.414526 1.726981 0
M  V30 39 H -1.358023 -2.523211 3.052387 0
M  V30 40 H -1.686024 -3.416563 0.297086 0
M  V30 41 H -1.612700 -4.468604 1.773377 0
M  V30 42 H 0.647342 -3.315590 -0.008255 0
M  V30 43 H 0.589248 -4.829264 1.078869 0
M  V30 END ATOM
M  V30 BEGIN BOND
M  V30 1 1 1 2
M  V30 2 1 2 3
M  V30 3 2 3 4
M  V30 4 1 4 5
M  V30 5 2 5 6
M  V30 6 1 6 7
M  V30 7 2 7 8
M  V30 8 1 8 9
M  V30 9 1 9 10
M  V30 10 1 10 11
M  V30 11 1 11 12
M  V30 12 2 12 13
M  V30 13 1 13 14
M  V30 14 1 14 15
M  V30 15 2 15 16
M  V30 16 1 16 17
M  V30 17 2 17 18
M  V30 18 1 18 19
M  V30 19 1 18 20
M  V30 20 2 20 21
M  V30 21 1 21 22
M  V30 22 2 9 23
M  V30 23 1 23 24
M  V30 24 1 2 25
M  V30 25 1 25 26
M  V30 26 1 26 27
M  V30 27 1 27 2
M  V30 28 1 24 3
M  V30 29 1 24 6
M  V30 30 2 14 10
M  V30 31 1 21 15
M  V30 32 1 1 28
M  V30 33 1 1 29
M  V30 34 1 1 30
M  V30 35 1 7 31
M  V30 36 1 8 32
M  V30 37 1 12 33
M  V30 38 1 16 34
M  V30 39 1 17 35
M  V30 40 1 20 36
M  V30 41 1 23 37
M  V30 42 1 25 38
M  V30 43 1 25 39
M  V30 44 1 26 40
M  V30 45 1 26 41
M  V30 46 1 27 42
M  V30 47 1 27 43
M  V30 END BOND
M  V30 END CTAB
M  END
>  <Dataset>  (875) 
ChEMBL_Kinases

>  <Ligand_Instance>  (875) 
nan

>  <PDB_ID>  (875) 
nan

>  <Standardized_SMILES>  (875) 
CC1(c2nnc3ccc(-c4ocnc4-c4ccc(F)cc4F)cn23)CCC1

>  <Name>  (875) 
nan

>  <Pocket>  (875) 
nan

>  <ATP_Site>  (875) 
nan

>  <Peripheral>  (875) 
nan

>  <Num_H_Atoms_ProtBoundConf>  (875) 
nan

>  <Num_Resolved_Atoms>  (875) 
nan

>  <Num_Not_Resolved_Atoms>  (875) 
nan

$$$$
CHEMBL384784
     RDKit          3D

  0  0  0  0  0  0  0  0  0  0999 V3000
M  V30 BEGIN CTAB
M  V30 COUNTS 47 49 0 0 0
M  V30 BEGIN ATOM
M  V30 1 C 3.497920 -2.067728 -0.315249 0
M  V30 2 C 4.482766 -1.180048 0.434137 0
M  V30 3 C 5.824766 -1.349762 -0.208060 0
M  V30 4 O 6.247247 -2.664367 -0.020022 0
M  V30 5 N 3.966743 0.169836 0.276126 0
M  V30 6 C 2.978740 0.625627 0.937986 0
M  V30 7 N 2.296689 -0.157191 1.893065 0
M  V30 8 C 2.406494 1.950911 0.825384 0
M  V30 9 C 3.040613 2.754665 -0.085289 0
M  V30 10 O 4.152464 2.568561 -0.936202 0
M  V30 11 N 2.735889 4.042475 -0.430526 0
M  V30 12 S 1.273278 4.295304 0.684085 0
M  V30 13 C 1.374284 2.616096 1.385125 0
M  V30 14 N 0.613310 1.945728 2.357595 0
M  V30 15 C -0.370247 1.000530 1.933214 0
M  V30 16 C -0.682652 0.889810 0.595409 0
M  V30 17 C -1.616102 -0.089557 0.239913 0
M  V30 18 C -2.209675 -0.920039 1.185859 0
M  V30 19 O -3.070726 -1.777033 0.558577 0
M  V30 20 C -4.400009 -1.807503 0.800891 0
M  V30 21 C -5.245604 -1.093040 1.616695 0
M  V30 22 C -6.622244 -1.350581 1.669318 0
M  V30 23 C -7.130234 -2.356604 0.870740 0
M  V30 24 F -8.481713 -2.583154 0.944086 0
M  V30 25 C -6.329848 -3.126017 0.014739 0
M  V30 26 C -4.972704 -2.813867 0.015189 0
M  V30 27 Cl -4.116469 -3.873838 -1.120390 0
M  V30 28 C -1.860579 -0.765549 2.520550 0
M  V30 29 Cl -2.662679 -1.883354 3.586745 0
M  V30 30 C -0.942038 0.189502 2.918485 0
M  V30 31 H 3.468598 -3.057875 0.192669 0
M  V30 32 H 3.897412 -2.241561 -1.337806 0
M  V30 33 H 2.492522 -1.591349 -0.339523 0
M  V30 34 H 4.548480 -1.514388 1.483124 0
M  V30 35 H 6.618898 -0.701104 0.233715 0
M  V30 36 H 5.780216 -1.176063 -1.320882 0
M  V30 37 H 5.494760 -3.212487 0.307598 0
M  V30 38 H 3.002845 -0.040735 2.680452 0
M  V30 39 H 1.796011 -0.724534 2.575518 0
M  V30 40 H 3.984385 2.144721 -1.866672 0
M  V30 41 H 0.809472 2.182670 3.345127 0
M  V30 42 H -0.185794 1.562717 -0.075684 0
M  V30 43 H -1.775841 -0.076325 -0.845789 0
M  V30 44 H -4.735696 -0.330661 2.185368 0
M  V30 45 H -7.217319 -0.745459 2.331367 0
M  V30 46 H -6.844451 -3.867382 -0.545830 0
M  V30 47 H -0.722094 0.255730 3.970669 0
M  V30 END ATOM
M  V30 BEGIN BOND
M  V30 1 1 1 2
M  V30 2 1 2 3
M  V30 3 1 3 4
M  V30 4 1 2 5
M  V30 5 2 5 6
M  V30 6 1 6 7
M  V30 7 1 6 8
M  V30 8 1 8 9
M  V30 9 1 9 10
M  V30 10 2 9 11
M  V30 11 1 11 12
M  V30 12 1 12 13
M  V30 13 1 13 14
M  V30 14 1 14 15
M  V30 15 2 15 16
M  V30 16 1 16 17
M  V30 17 2 17 18
M  V30 18 1 18 19
M  V30 19 1 19 20
M  V30 20 2 20 21
M  V30 21 1 21 22
M  V30 22 2 22 23
M  V30 23 1 23 24
M  V30 24 1 23 25
M  V30 25 2 25 26
M  V30 26 1 26 27
M  V30 27 1 18 28
M  V30 28 1 28 29
M  V30 29 2 28 30
M  V30 30 2 13 8
M  V30 31 1 30 15
M  V30 32 1 26 20
M  V30 33 1 1 31
M  V30 34 1 1 32
M  V30 35 1 1 33
M  V30 36 1 2 34
M  V30 37 1 3 35
M  V30 38 1 3 36
M  V30 39 1 4 37
M  V30 40 1 7 38
M  V30 41 1 7 39
M  V30 42 1 10 40
M  V30 43 1 14 41
M  V30 44 1 16 42
M  V30 45 1 17 43
M  V30 46 1 21 44
M  V30 47 1 22 45
M  V30 48 1 25 46
M  V30 49 1 30 47
M  V30 END BOND
M  V30 END CTAB
M  END
>  <Dataset>  (876) 
ChEMBL_Kinases

>  <Ligand_Instance>  (876) 
nan

>  <PDB_ID>  (876) 
nan

>  <Standardized_SMILES>  (876) 
CC(CO)/N=C(\N)c1c(O)nsc1Nc1ccc(Oc2ccc(F)cc2Cl)c(Cl)c1

>  <Name>  (876) 
nan

>  <Pocket>  (876) 
nan

>  <ATP_Site>  (876) 
nan

>  <Peripheral>  (876) 
nan

>  <Num_H_Atoms_ProtBoundConf>  (876) 
nan

>  <Num_Resolved_Atoms>  (876) 
nan

>  <Num_Not_Resolved_Atoms>  (876) 
nan

$$$$
CHEMBL384635
     RDKit          3D

  0  0  0  0  0  0  0  0  0  0999 V3000
M  V30 BEGIN CTAB
M  V30 COUNTS 43 47 0 0 0
M  V30 BEGIN ATOM
M  V30 1 C 2.756749 -5.547312 -0.594373 0
M  V30 2 C 2.764181 -4.401205 0.375661 0
M  V30 3 C 3.646554 -4.414009 1.425313 0
M  V30 4 C 3.607788 -3.335698 2.282985 0
M  V30 5 C 2.708459 -2.310743 2.061728 0
M  V30 6 C 2.725545 -1.172293 3.036958 0
M  V30 7 C 1.818685 -2.303013 0.998923 0
M  V30 8 C 0.904689 -1.182851 0.839780 0
M  V30 9 C 1.314964 -0.104439 0.083973 0
M  V30 10 C 0.466631 0.970849 -0.082352 0
M  V30 11 N 0.616424 2.119633 -0.753288 0
M  V30 12 C -0.536543 2.833886 -0.588442 0
M  V30 13 C -0.833295 4.097778 -1.111022 0
M  V30 14 C -2.066788 4.706124 -0.853153 0
M  V30 15 C -2.978917 4.001507 -0.058526 0
M  V30 16 O -4.202858 4.596157 0.202052 0
M  V30 17 C -2.612125 2.764282 0.417392 0
M  V30 18 C -1.426595 2.132895 0.193978 0
M  V30 19 C -0.779845 0.974072 0.498139 0
M  V30 20 C -1.186350 -0.087297 1.243269 0
M  V30 21 C -0.357762 -1.166772 1.421009 0
M  V30 22 C -0.946463 -2.216515 2.245161 0
M  V30 23 O -0.432888 -3.314615 2.579778 0
M  V30 24 N -2.241201 -1.689379 2.574105 0
M  V30 25 C -2.380022 -0.415546 1.972517 0
M  V30 26 O -3.456411 0.157579 2.175418 0
M  V30 27 C 1.871401 -3.402283 0.140445 0
M  V30 28 H 3.230557 -5.270883 -1.557624 0
M  V30 29 H 1.712897 -5.892172 -0.682165 0
M  V30 30 H 3.367948 -6.376784 -0.187218 0
M  V30 31 H 4.321607 -5.244444 1.540154 0
M  V30 32 H 4.286072 -3.292404 3.134410 0
M  V30 33 H 1.722150 -0.788565 3.238967 0
M  V30 34 H 3.158373 -1.505719 4.004882 0
M  V30 35 H 3.425084 -0.404638 2.646860 0
M  V30 36 H 2.274643 -0.082619 -0.375660 0
M  V30 37 H 1.480869 2.378718 -1.292575 0
M  V30 38 H -0.096417 4.602670 -1.719310 0
M  V30 39 H -2.232895 5.668322 -1.278926 0
M  V30 40 H -4.359890 4.871706 1.176209 0
M  V30 41 H -3.362397 2.308554 1.006219 0
M  V30 42 H -2.887039 -2.273926 3.181564 0
M  V30 43 H 1.169396 -3.367988 -0.674424 0
M  V30 END ATOM
M  V30 BEGIN BOND
M  V30 1 1 1 2
M  V30 2 2 2 3
M  V30 3 1 3 4
M  V30 4 2 4 5
M  V30 5 1 5 6
M  V30 6 1 5 7
M  V30 7 1 7 8
M  V30 8 2 8 9
M  V30 9 1 9 10
M  V30 10 1 10 11
M  V30 11 1 11 12
M  V30 12 2 12 13
M  V30 13 1 13 14
M  V30 14 2 14 15
M  V30 15 1 15 16
M  V30 16 1 15 17
M  V30 17 2 17 18
M  V30 18 1 18 19
M  V30 19 1 19 20
M  V30 20 2 20 21
M  V30 21 1 21 22
M  V30 22 2 22 23
M  V30 23 1 22 24
M  V30 24 1 24 25
M  V30 25 2 25 26
M  V30 26 2 7 27
M  V30 27 1 27 2
M  V30 28 1 21 8
M  V30 29 2 19 10
M  V30 30 1 25 20
M  V30 31 1 18 12
M  V30 32 1 1 28
M  V30 33 1 1 29
M  V30 34 1 1 30
M  V30 35 1 3 31
M  V30 36 1 4 32
M  V30 37 1 6 33
M  V30 38 1 6 34
M  V30 39 1 6 35
M  V30 40 1 9 36
M  V30 41 1 11 37
M  V30 42 1 13 38
M  V30 43 1 14 39
M  V30 44 1 16 40
M  V30 45 1 17 41
M  V30 46 1 24 42
M  V30 47 1 27 43
M  V30 END BOND
M  V30 END CTAB
M  END
>  <Dataset>  (877) 
ChEMBL_Kinases

>  <Ligand_Instance>  (877) 
nan

>  <PDB_ID>  (877) 
nan

>  <Standardized_SMILES>  (877) 
Cc1ccc(C)c(-c2cc3[nH]c4ccc(O)cc4c3c3c2C(=O)NC3=O)c1

>  <Name>  (877) 
nan

>  <Pocket>  (877) 
nan

>  <ATP_Site>  (877) 
nan

>  <Peripheral>  (877) 
nan

>  <Num_H_Atoms_ProtBoundConf>  (877) 
nan

>  <Num_Resolved_Atoms>  (877) 
nan

>  <Num_Not_Resolved_Atoms>  (877) 
nan

$$$$
CHEMBL493974
     RDKit          3D

  0  0  0  0  0  0  0  0  0  0999 V3000
M  V30 BEGIN CTAB
M  V30 COUNTS 45 48 0 0 0
M  V30 BEGIN ATOM
M  V30 1 C 0.003388 -5.919010 -5.029292 0
M  V30 2 N 0.910801 -4.791122 -4.935837 0
M  V30 3 C 0.777946 -3.776260 -3.955523 0
M  V30 4 N -0.243180 -3.872728 -3.072727 0
M  V30 5 C -0.435083 -2.948904 -2.113318 0
M  V30 6 S -1.669359 -2.773273 -0.800017 0
M  V30 7 C -0.909405 -1.174208 -0.170420 0
M  V30 8 C -1.580939 -0.537238 1.000226 0
M  V30 9 C -2.683198 -1.038639 1.618467 0
M  V30 10 C -3.159018 -0.299343 2.690537 0
M  V30 11 C -2.531277 0.875243 3.087444 0
M  V30 12 C -1.410775 1.353224 2.432249 0
M  V30 13 C -0.757415 2.612115 2.875974 0
M  V30 14 N -1.282453 3.776111 2.225790 0
M  V30 15 S -0.460123 5.190392 2.807239 0
M  V30 16 C -0.781317 5.294162 4.550438 0
M  V30 17 O 1.007800 5.056127 2.508576 0
M  V30 18 O -0.951685 6.417894 2.116520 0
M  V30 19 C -0.917482 0.619062 1.348006 0
M  V30 20 N -0.007353 -1.041562 -0.910353 0
M  V30 21 C 0.329379 -1.839972 -1.900892 0
M  V30 22 C 1.380161 -1.716636 -2.789051 0
M  V30 23 C 1.566250 -2.662341 -3.761402 0
M  V30 24 N 2.660077 -2.317739 -4.503818 0
M  V30 25 C 3.172157 -1.171842 -4.021980 0
M  V30 26 N 2.386091 -0.824881 -2.987562 0
M  V30 27 C 2.604175 0.357573 -2.197389 0
M  V30 28 H -0.732164 -5.933063 -4.206735 0
M  V30 29 H 0.545368 -6.897668 -4.957921 0
M  V30 30 H -0.582953 -5.904488 -5.987198 0
M  V30 31 H 1.688077 -4.744372 -5.630216 0
M  V30 32 H -3.109765 -1.959054 1.245771 0
M  V30 33 H -4.044251 -0.680502 3.205188 0
M  V30 34 H -2.922332 1.443600 3.935479 0
M  V30 35 H -0.847110 2.738800 3.985537 0
M  V30 36 H 0.350158 2.496254 2.709537 0
M  V30 37 H -1.051592 3.706136 1.211123 0
M  V30 38 H -0.061402 4.651879 5.088606 0
M  V30 39 H -1.819201 4.911019 4.716727 0
M  V30 40 H -0.745004 6.352578 4.883448 0
M  V30 41 H -0.041655 1.033906 0.870610 0
M  V30 42 H 4.036243 -0.628050 -4.379685 0
M  V30 43 H 3.087610 1.148757 -2.820542 0
M  V30 44 H 1.680877 0.792036 -1.788479 0
M  V30 45 H 3.292590 0.081408 -1.363604 0
M  V30 END ATOM
M  V30 BEGIN BOND
M  V30 1 1 1 2
M  V30 2 1 2 3
M  V30 3 2 3 4
M  V30 4 1 4 5
M  V30 5 1 5 6
M  V30 6 1 6 7
M  V30 7 1 7 8
M  V30 8 2 8 9
M  V30 9 1 9 10
M  V30 10 2 10 11
M  V30 11 1 11 12
M  V30 12 1 12 13
M  V30 13 1 13 14
M  V30 14 1 14 15
M  V30 15 1 15 16
M  V30 16 2 15 17
M  V30 17 2 15 18
M  V30 18 2 12 19
M  V30 19 2 7 20
M  V30 20 1 20 21
M  V30 21 1 21 22
M  V30 22 2 22 23
M  V30 23 1 23 24
M  V30 24 2 24 25
M  V30 25 1 25 26
M  V30 26 1 26 27
M  V30 27 1 23 3
M  V30 28 2 21 5
M  V30 29 1 26 22
M  V30 30 1 19 8
M  V30 31 1 1 28
M  V30 32 1 1 29
M  V30 33 1 1 30
M  V30 34 1 2 31
M  V30 35 1 9 32
M  V30 36 1 10 33
M  V30 37 1 11 34
M  V30 38 1 13 35
M  V30 39 1 13 36
M  V30 40 1 14 37
M  V30 41 1 16 38
M  V30 42 1 16 39
M  V30 43 1 16 40
M  V30 44 1 19 41
M  V30 45 1 25 42
M  V30 46 1 27 43
M  V30 47 1 27 44
M  V30 48 1 27 45
M  V30 END BOND
M  V30 END CTAB
M  END
>  <Dataset>  (878) 
ChEMBL_Kinases

>  <Ligand_Instance>  (878) 
nan

>  <PDB_ID>  (878) 
nan

>  <Standardized_SMILES>  (878) 
CNc1nc2sc(-c3cccc(CNS(C)(=O)=O)c3)nc2c2c1ncn2C

>  <Name>  (878) 
nan

>  <Pocket>  (878) 
nan

>  <ATP_Site>  (878) 
nan

>  <Peripheral>  (878) 
nan

>  <Num_H_Atoms_ProtBoundConf>  (878) 
nan

>  <Num_Resolved_Atoms>  (878) 
nan

>  <Num_Not_Resolved_Atoms>  (878) 
nan

$$$$
CHEMBL593945
     RDKit          3D

  0  0  0  0  0  0  0  0  0  0999 V3000
M  V30 BEGIN CTAB
M  V30 COUNTS 47 50 0 0 0
M  V30 BEGIN ATOM
M  V30 1 C 1.264724 -2.243276 6.040890 0
M  V30 2 C 1.820653 -2.367809 4.670357 0
M  V30 3 O 2.320538 -3.400727 4.166779 0
M  V30 4 N 1.791731 -1.209967 3.830463 0
M  V30 5 C 2.241223 -1.021276 2.493142 0
M  V30 6 C 3.556643 -0.601838 2.283888 0
M  V30 7 C 4.039856 -0.404696 1.001881 0
M  V30 8 C 3.240885 -0.615391 -0.105382 0
M  V30 9 C 1.941128 -1.029551 0.093557 0
M  V30 10 C 0.906268 -1.317658 -0.911702 0
M  V30 11 C -0.338012 -0.709033 -1.111152 0
M  V30 12 C -0.722284 0.387131 -0.212867 0
M  V30 13 C 0.054502 1.529706 -0.221834 0
M  V30 14 C -0.333149 2.541334 0.634091 0
M  V30 15 C -1.428607 2.399307 1.437597 0
M  V30 16 N -1.736956 3.443366 2.247176 0
M  V30 17 C -2.825426 3.291422 3.039641 0
M  V30 18 C -3.605701 2.152912 3.053576 0
M  V30 19 N -3.280814 1.133220 2.243826 0
M  V30 20 C -2.200674 1.251769 1.440082 0
M  V30 21 C -1.841492 0.208444 0.589968 0
M  V30 22 N -0.942668 -1.303921 -2.149376 0
M  V30 23 C -2.239918 -0.857437 -2.556079 0
M  V30 24 N -0.164648 -2.261636 -2.634640 0
M  V30 25 C -0.562828 -3.064729 -3.752993 0
M  V30 26 C 0.952967 -2.291705 -1.909503 0
M  V30 27 O 1.927463 -3.085873 -2.088838 0
M  V30 28 C 1.449772 -1.229326 1.378714 0
M  V30 29 H 2.031190 -1.953871 6.793958 0
M  V30 30 H 0.804758 -3.234834 6.280029 0
M  V30 31 H 0.420801 -1.527424 6.071641 0
M  V30 32 H 1.383385 -0.323191 4.207813 0
M  V30 33 H 4.243930 -0.416300 3.113043 0
M  V30 34 H 5.037718 -0.084263 0.780113 0
M  V30 35 H 3.498976 -0.497760 -1.136836 0
M  V30 36 H 0.914271 1.570582 -0.890461 0
M  V30 37 H 0.257343 3.445935 0.646761 0
M  V30 38 H -3.052826 4.150148 3.684417 0
M  V30 39 H -4.473226 2.086715 3.714740 0
M  V30 40 H -2.432279 -0.686320 0.582686 0
M  V30 41 H -2.590373 -1.413485 -3.462658 0
M  V30 42 H -2.279042 0.213417 -2.816452 0
M  V30 43 H -3.010392 -1.135455 -1.779643 0
M  V30 44 H -0.526655 -2.488449 -4.720448 0
M  V30 45 H -1.547119 -3.524716 -3.675459 0
M  V30 46 H 0.175889 -3.895205 -3.909264 0
M  V30 47 H 0.448564 -1.552556 1.646354 0
M  V30 END ATOM
M  V30 BEGIN BOND
M  V30 1 1 1 2
M  V30 2 2 2 3
M  V30 3 1 2 4
M  V30 4 1 4 5
M  V30 5 2 5 6
M  V30 6 1 6 7
M  V30 7 2 7 8
M  V30 8 1 8 9
M  V30 9 1 9 10
M  V30 10 2 10 11
M  V30 11 1 11 12
M  V30 12 2 12 13
M  V30 13 1 13 14
M  V30 14 2 14 15
M  V30 15 1 15 16
M  V30 16 2 16 17
M  V30 17 1 17 18
M  V30 18 2 18 19
M  V30 19 1 19 20
M  V30 20 2 20 21
M  V30 21 1 11 22
M  V30 22 1 22 23
M  V30 23 1 22 24
M  V30 24 1 24 25
M  V30 25 1 24 26
M  V30 26 2 26 27
M  V30 27 2 9 28
M  V30 28 1 28 5
M  V30 29 1 26 10
M  V30 30 1 21 12
M  V30 31 1 20 15
M  V30 32 1 1 29
M  V30 33 1 1 30
M  V30 34 1 1 31
M  V30 35 1 4 32
M  V30 36 1 6 33
M  V30 37 1 7 34
M  V30 38 1 8 35
M  V30 39 1 13 36
M  V30 40 1 14 37
M  V30 41 1 17 38
M  V30 42 1 18 39
M  V30 43 1 21 40
M  V30 44 1 23 41
M  V30 45 1 23 42
M  V30 46 1 23 43
M  V30 47 1 25 44
M  V30 48 1 25 45
M  V30 49 1 25 46
M  V30 50 1 28 47
M  V30 END BOND
M  V30 END CTAB
M  END
>  <Dataset>  (879) 
ChEMBL_Kinases

>  <Ligand_Instance>  (879) 
nan

>  <PDB_ID>  (879) 
nan

>  <Standardized_SMILES>  (879) 
CC(=O)Nc1cccc(-c2c(-c3ccc4nccnc4c3)n(C)n(C)c2=O)c1

>  <Name>  (879) 
nan

>  <Pocket>  (879) 
nan

>  <ATP_Site>  (879) 
nan

>  <Peripheral>  (879) 
nan

>  <Num_H_Atoms_ProtBoundConf>  (879) 
nan

>  <Num_Resolved_Atoms>  (879) 
nan

>  <Num_Not_Resolved_Atoms>  (879) 
nan

$$$$
CHEMBL593725
     RDKit          3D

  0  0  0  0  0  0  0  0  0  0999 V3000
M  V30 BEGIN CTAB
M  V30 COUNTS 39 42 0 0 0
M  V30 BEGIN ATOM
M  V30 1 C 1.435498 -2.305489 3.481463 0
M  V30 2 N 0.288670 -1.470834 3.162636 0
M  V30 3 C 0.150247 -1.038944 1.891034 0
M  V30 4 C 0.916604 -1.214915 0.681074 0
M  V30 5 C 1.115286 -2.467006 0.144210 0
M  V30 6 C 1.822287 -2.777787 -0.999244 0
M  V30 7 C 2.376293 -1.694544 -1.649738 0
M  V30 8 N 3.078838 -1.921823 -2.770975 0
M  V30 9 C 3.652098 -0.906596 -3.463550 0
M  V30 10 C 3.504090 0.372608 -2.999446 0
M  V30 11 N 2.801110 0.617956 -1.874267 0
M  V30 12 C 2.224946 -0.391624 -1.176138 0
M  V30 13 C 1.492536 -0.167071 -0.009604 0
M  V30 14 C -1.012896 -0.265599 1.840908 0
M  V30 15 C -1.698197 0.469565 0.769197 0
M  V30 16 C -1.772600 1.835865 1.043884 0
M  V30 17 C -2.387019 2.707249 0.147307 0
M  V30 18 C -2.941805 2.238182 -1.043946 0
M  V30 19 C -2.806744 0.858857 -1.207957 0
M  V30 20 N -2.230673 0.000663 -0.379900 0
M  V30 21 C -1.529931 -0.274339 3.131306 0
M  V30 22 O -2.579673 0.288187 3.590664 0
M  V30 23 N -0.705784 -1.022299 3.911485 0
M  V30 24 C -0.823026 -1.329826 5.340038 0
M  V30 25 H 1.678643 -2.252185 4.575329 0
M  V30 26 H 1.250202 -3.380765 3.278427 0
M  V30 27 H 2.356269 -1.935463 2.984857 0
M  V30 28 H 0.664610 -3.305302 0.681185 0
M  V30 29 H 1.911007 -3.789290 -1.322887 0
M  V30 30 H 4.189498 -1.225132 -4.348053 0
M  V30 31 H 3.975692 1.145932 -3.580794 0
M  V30 32 H 1.374771 0.838352 0.357382 0
M  V30 33 H -1.382515 2.324377 1.930099 0
M  V30 34 H -2.458893 3.770693 0.334825 0
M  V30 35 H -3.427172 2.851646 -1.774874 0
M  V30 36 H -3.215954 0.421444 -2.114632 0
M  V30 37 H -1.818431 -1.005555 5.724421 0
M  V30 38 H -0.814923 -2.436817 5.513773 0
M  V30 39 H -0.065997 -0.803171 5.946614 0
M  V30 END ATOM
M  V30 BEGIN BOND
M  V30 1 1 1 2
M  V30 2 1 2 3
M  V30 3 1 3 4
M  V30 4 2 4 5
M  V30 5 1 5 6
M  V30 6 2 6 7
M  V30 7 1 7 8
M  V30 8 2 8 9
M  V30 9 1 9 10
M  V30 10 2 10 11
M  V30 11 1 11 12
M  V30 12 2 12 13
M  V30 13 2 3 14
M  V30 14 1 14 15
M  V30 15 2 15 16
M  V30 16 1 16 17
M  V30 17 2 17 18
M  V30 18 1 18 19
M  V30 19 2 19 20
M  V30 20 1 14 21
M  V30 21 2 21 22
M  V30 22 1 21 23
M  V30 23 1 23 24
M  V30 24 1 23 2
M  V30 25 1 13 4
M  V30 26 1 20 15
M  V30 27 1 12 7
M  V30 28 1 1 25
M  V30 29 1 1 26
M  V30 30 1 1 27
M  V30 31 1 5 28
M  V30 32 1 6 29
M  V30 33 1 9 30
M  V30 34 1 10 31
M  V30 35 1 13 32
M  V30 36 1 16 33
M  V30 37 1 17 34
M  V30 38 1 18 35
M  V30 39 1 19 36
M  V30 40 1 24 37
M  V30 41 1 24 38
M  V30 42 1 24 39
M  V30 END BOND
M  V30 END CTAB
M  END
>  <Dataset>  (880) 
ChEMBL_Kinases

>  <Ligand_Instance>  (880) 
nan

>  <PDB_ID>  (880) 
nan

>  <Standardized_SMILES>  (880) 
Cn1c(-c2ccc3nccnc3c2)c(-c2ccccn2)c(=O)n1C

>  <Name>  (880) 
nan

>  <Pocket>  (880) 
nan

>  <ATP_Site>  (880) 
nan

>  <Peripheral>  (880) 
nan

>  <Num_H_Atoms_ProtBoundConf>  (880) 
nan

>  <Num_Resolved_Atoms>  (880) 
nan

>  <Num_Not_Resolved_Atoms>  (880) 
nan

$$$$
CHEMBL593710
     RDKit          3D

  0  0  0  0  0  0  0  0  0  0999 V3000
M  V30 BEGIN CTAB
M  V30 COUNTS 44 47 0 0 0
M  V30 BEGIN ATOM
M  V30 1 C 1.324615 -2.156727 -2.285001 0
M  V30 2 N 1.042767 -2.380184 -0.876175 0
M  V30 3 C 0.718759 -1.391849 -0.024582 0
M  V30 4 C 0.596344 0.010255 -0.309906 0
M  V30 5 C -0.444369 0.881712 -0.197642 0
M  V30 6 C -0.335168 2.210485 -0.550664 0
M  V30 7 C 0.846722 2.726175 -1.039712 0
M  V30 8 N 0.955680 4.025610 -1.389211 0
M  V30 9 C 2.147543 4.486578 -1.870829 0
M  V30 10 C 3.236381 3.651749 -2.006051 0
M  V30 11 N 3.091845 2.363860 -1.648612 0
M  V30 12 C 1.915399 1.866892 -1.162853 0
M  V30 13 C 1.808643 0.519199 -0.805952 0
M  V30 14 C 0.508284 -1.888019 1.230250 0
M  V30 15 C 0.141224 -1.382209 2.543180 0
M  V30 16 C 0.982591 -1.076956 3.596465 0
M  V30 17 C 0.426898 -0.612518 4.794583 0
M  V30 18 C -0.941445 -0.474852 4.883857 0
M  V30 19 C -1.809127 -0.768589 3.856799 0
M  V30 20 C -3.265625 -0.589383 4.059410 0
M  V30 21 C -3.689090 0.762227 3.691439 0
M  V30 22 N -4.016959 1.826063 3.385001 0
M  V30 23 C -1.224904 -1.227817 2.679469 0
M  V30 24 C 0.720424 -3.260207 1.120782 0
M  V30 25 O 0.674856 -4.236669 1.931141 0
M  V30 26 N 1.040832 -3.515453 -0.167319 0
M  V30 27 C 1.359797 -4.759068 -0.845631 0
M  V30 28 H 0.748254 -1.284991 -2.660273 0
M  V30 29 H 2.414077 -2.067264 -2.497445 0
M  V30 30 H 0.979730 -3.031021 -2.897919 0
M  V30 31 H -1.332016 0.404088 0.190964 0
M  V30 32 H -1.220316 2.843041 -0.429135 0
M  V30 33 H 2.344737 5.504603 -2.178450 0
M  V30 34 H 4.212630 3.958701 -2.383379 0
M  V30 35 H 2.727859 -0.039548 -0.953225 0
M  V30 36 H 2.019744 -1.226646 3.398996 0
M  V30 37 H 1.123487 -0.386386 5.594646 0
M  V30 38 H -1.347642 -0.115764 5.818728 0
M  V30 39 H -3.538972 -0.856454 5.091674 0
M  V30 40 H -3.783261 -1.311235 3.385875 0
M  V30 41 H -1.971059 -1.443218 1.900786 0
M  V30 42 H 2.125427 -4.604936 -1.631646 0
M  V30 43 H 1.654794 -5.529200 -0.117307 0
M  V30 44 H 0.427493 -5.094896 -1.347539 0
M  V30 END ATOM
M  V30 BEGIN BOND
M  V30 1 1 1 2
M  V30 2 1 2 3
M  V30 3 1 3 4
M  V30 4 2 4 5
M  V30 5 1 5 6
M  V30 6 2 6 7
M  V30 7 1 7 8
M  V30 8 2 8 9
M  V30 9 1 9 10
M  V30 10 2 10 11
M  V30 11 1 11 12
M  V30 12 2 12 13
M  V30 13 2 3 14
M  V30 14 1 14 15
M  V30 15 2 15 16
M  V30 16 1 16 17
M  V30 17 2 17 18
M  V30 18 1 18 19
M  V30 19 1 19 20
M  V30 20 1 20 21
M  V30 21 3 21 22
M  V30 22 2 19 23
M  V30 23 1 14 24
M  V30 24 2 24 25
M  V30 25 1 24 26
M  V30 26 1 26 27
M  V30 27 1 26 2
M  V30 28 1 13 4
M  V30 29 1 23 15
M  V30 30 1 12 7
M  V30 31 1 1 28
M  V30 32 1 1 29
M  V30 33 1 1 30
M  V30 34 1 5 31
M  V30 35 1 6 32
M  V30 36 1 9 33
M  V30 37 1 10 34
M  V30 38 1 13 35
M  V30 39 1 16 36
M  V30 40 1 17 37
M  V30 41 1 18 38
M  V30 42 1 20 39
M  V30 43 1 20 40
M  V30 44 1 23 41
M  V30 45 1 27 42
M  V30 46 1 27 43
M  V30 47 1 27 44
M  V30 END BOND
M  V30 END CTAB
M  END
>  <Dataset>  (881) 
ChEMBL_Kinases

>  <Ligand_Instance>  (881) 
nan

>  <PDB_ID>  (881) 
nan

>  <Standardized_SMILES>  (881) 
Cn1c(-c2ccc3nccnc3c2)c(-c2cccc(CC#N)c2)c(=O)n1C

>  <Name>  (881) 
nan

>  <Pocket>  (881) 
nan

>  <ATP_Site>  (881) 
nan

>  <Peripheral>  (881) 
nan

>  <Num_H_Atoms_ProtBoundConf>  (881) 
nan

>  <Num_Resolved_Atoms>  (881) 
nan

>  <Num_Not_Resolved_Atoms>  (881) 
nan

$$$$
CHEMBL494001
     RDKit          3D

  0  0  0  0  0  0  0  0  0  0999 V3000
M  V30 BEGIN CTAB
M  V30 COUNTS 49 52 0 0 0
M  V30 BEGIN ATOM
M  V30 1 C -2.584430 -5.196205 -0.250925 0
M  V30 2 O -1.214026 -5.175283 -0.501719 0
M  V30 3 C -0.431842 -4.055050 -0.562049 0
M  V30 4 C -1.088435 -2.860598 -0.351600 0
M  V30 5 C -0.389867 -1.676018 -0.391615 0
M  V30 6 C 0.964899 -1.663928 -0.640087 0
M  V30 7 C 1.940907 -0.588394 -0.728619 0
M  V30 8 C 2.835793 -0.500560 -1.784547 0
M  V30 9 N 3.749479 0.478001 -1.900150 0
M  V30 10 C 3.839779 1.444307 -0.969792 0
M  V30 11 C 2.969328 1.404697 0.106901 0
M  V30 12 C 3.113922 2.470672 1.075014 0
M  V30 13 N 3.224981 3.314721 1.864030 0
M  V30 14 C 2.031326 0.400064 0.225570 0
M  V30 15 N 1.221462 0.488822 1.361640 0
M  V30 16 C 0.050316 1.083253 1.857322 0
M  V30 17 C -0.391130 0.808561 3.134314 0
M  V30 18 C -1.551608 1.465890 3.480067 0
M  V30 19 C -2.079129 1.203111 4.862448 0
M  V30 20 C -2.230007 2.326261 2.642875 0
M  V30 21 N -3.363186 3.013073 2.883342 0
M  V30 22 C -3.634538 3.720010 1.757633 0
M  V30 23 C -2.648106 3.457988 0.815630 0
M  V30 24 C -1.748332 2.569165 1.373712 0
M  V30 25 C -0.585065 1.937118 0.968532 0
M  V30 26 C 1.621221 -2.883298 -0.852545 0
M  V30 27 C 0.921918 -4.093641 -0.814450 0
M  V30 28 O 1.429850 -5.366457 -1.003743 0
M  V30 29 C 2.756317 -5.701636 -1.274554 0
M  V30 30 H -2.855977 -4.753985 0.735723 0
M  V30 31 H -3.176793 -4.663993 -1.032695 0
M  V30 32 H -2.973726 -6.233559 -0.228337 0
M  V30 33 H -2.145915 -2.745018 -0.148169 0
M  V30 34 H -0.764449 -0.677408 -0.253458 0
M  V30 35 H 2.808859 -1.264808 -2.577440 0
M  V30 36 H 4.580560 2.233487 -1.067953 0
M  V30 37 H 1.788484 -0.152555 1.993563 0
M  V30 38 H 0.161022 0.129761 3.767331 0
M  V30 39 H -2.733827 1.993333 5.233327 0
M  V30 40 H -1.201100 1.092447 5.553221 0
M  V30 41 H -2.537133 0.194208 4.808749 0
M  V30 42 H -3.973788 3.060190 3.717506 0
M  V30 43 H -4.490450 4.389726 1.610614 0
M  V30 44 H -2.548961 3.855444 -0.203408 0
M  V30 45 H -0.226854 2.140366 -0.023390 0
M  V30 46 H 2.679798 -3.053940 -1.060898 0
M  V30 47 H 2.929340 -6.012125 -2.325920 0
M  V30 48 H 3.047842 -6.554283 -0.592697 0
M  V30 49 H 3.494172 -4.909390 -1.042702 0
M  V30 END ATOM
M  V30 BEGIN BOND
M  V30 1 1 1 2
M  V30 2 1 2 3
M  V30 3 2 3 4
M  V30 4 1 4 5
M  V30 5 2 5 6
M  V30 6 1 6 7
M  V30 7 2 7 8
M  V30 8 1 8 9
M  V30 9 2 9 10
M  V30 10 1 10 11
M  V30 11 1 11 12
M  V30 12 3 12 13
M  V30 13 2 11 14
M  V30 14 1 14 15
M  V30 15 1 15 16
M  V30 16 2 16 17
M  V30 17 1 17 18
M  V30 18 1 18 19
M  V30 19 2 18 20
M  V30 20 1 20 21
M  V30 21 1 21 22
M  V30 22 2 22 23
M  V30 23 1 23 24
M  V30 24 2 24 25
M  V30 25 1 6 26
M  V30 26 2 26 27
M  V30 27 1 27 28
M  V30 28 1 28 29
M  V30 29 1 27 3
M  V30 30 1 14 7
M  V30 31 1 25 16
M  V30 32 1 24 20
M  V30 33 1 1 30
M  V30 34 1 1 31
M  V30 35 1 1 32
M  V30 36 1 4 33
M  V30 37 1 5 34
M  V30 38 1 8 35
M  V30 39 1 10 36
M  V30 40 1 15 37
M  V30 41 1 17 38
M  V30 42 1 19 39
M  V30 43 1 19 40
M  V30 44 1 19 41
M  V30 45 1 21 42
M  V30 46 1 22 43
M  V30 47 1 23 44
M  V30 48 1 25 45
M  V30 49 1 26 46
M  V30 50 1 29 47
M  V30 51 1 29 48
M  V30 52 1 29 49
M  V30 END BOND
M  V30 END CTAB
M  END
>  <Dataset>  (882) 
ChEMBL_Kinases

>  <Ligand_Instance>  (882) 
nan

>  <PDB_ID>  (882) 
nan

>  <Standardized_SMILES>  (882) 
COc1ccc(-c2cncc(C#N)c2Nc2cc(C)c3[nH]ccc3c2)cc1OC

>  <Name>  (882) 
nan

>  <Pocket>  (882) 
nan

>  <ATP_Site>  (882) 
nan

>  <Peripheral>  (882) 
nan

>  <Num_H_Atoms_ProtBoundConf>  (882) 
nan

>  <Num_Resolved_Atoms>  (882) 
nan

>  <Num_Not_Resolved_Atoms>  (882) 
nan

$$$$
CHEMBL494041
     RDKit          3D

  0  0  0  0  0  0  0  0  0  0999 V3000
M  V30 BEGIN CTAB
M  V30 COUNTS 39 44 0 0 0
M  V30 BEGIN ATOM
M  V30 1 C 2.423299 -4.812644 1.044560 0
M  V30 2 N 1.812364 -3.490874 0.878276 0
M  V30 3 C 0.902497 -2.834433 1.778572 0
M  V30 4 O 0.598923 -3.443844 2.803771 0
M  V30 5 C 0.551584 -1.551809 1.225108 0
M  V30 6 C 1.218706 -1.421141 0.029570 0
M  V30 7 C 1.025458 -0.267123 -0.666922 0
M  V30 8 C 1.521180 0.176194 -1.858219 0
M  V30 9 C 2.357658 -0.243041 -2.847100 0
M  V30 10 N 2.689808 0.414229 -3.960491 0
M  V30 11 C 2.178346 1.641707 -4.205527 0
M  V30 12 C 1.317022 2.158396 -3.261634 0
M  V30 13 C 1.008561 1.426532 -2.121376 0
M  V30 14 N 0.190796 1.803023 -1.125427 0
M  V30 15 C 0.211558 0.760288 -0.246747 0
M  V30 16 C -0.453601 0.618929 0.954962 0
M  V30 17 N -1.304063 1.480386 1.579607 0
M  V30 18 C -1.642532 0.823984 2.702480 0
M  V30 19 C -2.512899 1.315704 3.682888 0
M  V30 20 C -2.787031 0.550703 4.796517 0
M  V30 21 O -3.646898 1.042583 5.759757 0
M  V30 22 C -2.175606 -0.702145 4.901732 0
M  V30 23 C -1.337457 -1.104782 3.895596 0
M  V30 24 C -1.022264 -0.403525 2.771190 0
M  V30 25 C -0.256914 -0.549246 1.658268 0
M  V30 26 C 2.012306 -2.597982 -0.226982 0
M  V30 27 O 2.766593 -2.958793 -1.133784 0
M  V30 28 H 3.463007 -4.763656 1.375831 0
M  V30 29 H 1.770980 -5.475677 1.648866 0
M  V30 30 H 2.419437 -5.267718 0.020160 0
M  V30 31 H 2.814480 -1.195231 -2.754367 0
M  V30 32 H 2.446702 2.171746 -5.104207 0
M  V30 33 H 0.921970 3.133277 -3.474322 0
M  V30 34 H -0.341769 2.694880 -1.042609 0
M  V30 35 H -1.605852 2.414224 1.251671 0
M  V30 36 H -2.989399 2.281797 3.609893 0
M  V30 37 H -4.652814 0.886121 5.591197 0
M  V30 38 H -2.391223 -1.300277 5.774535 0
M  V30 39 H -0.915950 -2.051564 4.040819 0
M  V30 END ATOM
M  V30 BEGIN BOND
M  V30 1 1 1 2
M  V30 2 1 2 3
M  V30 3 2 3 4
M  V30 4 1 3 5
M  V30 5 2 5 6
M  V30 6 1 6 7
M  V30 7 1 7 8
M  V30 8 2 8 9
M  V30 9 1 9 10
M  V30 10 2 10 11
M  V30 11 1 11 12
M  V30 12 2 12 13
M  V30 13 1 13 14
M  V30 14 1 14 15
M  V30 15 1 15 16
M  V30 16 1 16 17
M  V30 17 1 17 18
M  V30 18 2 18 19
M  V30 19 1 19 20
M  V30 20 1 20 21
M  V30 21 2 20 22
M  V30 22 1 22 23
M  V30 23 2 23 24
M  V30 24 1 24 25
M  V30 25 1 6 26
M  V30 26 2 26 27
M  V30 27 1 26 2
M  V30 28 1 25 5
M  V30 29 2 15 7
M  V30 30 2 25 16
M  V30 31 1 13 8
M  V30 32 1 24 18
M  V30 33 1 1 28
M  V30 34 1 1 29
M  V30 35 1 1 30
M  V30 36 1 9 31
M  V30 37 1 11 32
M  V30 38 1 12 33
M  V30 39 1 14 34
M  V30 40 1 17 35
M  V30 41 1 19 36
M  V30 42 1 21 37
M  V30 43 1 22 38
M  V30 44 1 23 39
M  V30 END BOND
M  V30 END CTAB
M  END
>  <Dataset>  (883) 
ChEMBL_Kinases

>  <Ligand_Instance>  (883) 
nan

>  <PDB_ID>  (883) 
nan

>  <Standardized_SMILES>  (883) 
CN1C(=O)c2c(c3c4cnccc4[nH]c3c3[nH]c4cc(O)ccc4c23)C1=O

>  <Name>  (883) 
nan

>  <Pocket>  (883) 
nan

>  <ATP_Site>  (883) 
nan

>  <Peripheral>  (883) 
nan

>  <Num_H_Atoms_ProtBoundConf>  (883) 
nan

>  <Num_Resolved_Atoms>  (883) 
nan

>  <Num_Not_Resolved_Atoms>  (883) 
nan

$$$$
CHEMBL384117
     RDKit          3D

  0  0  0  0  0  0  0  0  0  0999 V3000
M  V30 BEGIN CTAB
M  V30 COUNTS 39 42 0 0 0
M  V30 BEGIN ATOM
M  V30 1 C 1.834799 -4.433553 1.121191 0
M  V30 2 C 0.759655 -3.388300 1.152045 0
M  V30 3 C -0.513521 -4.019935 1.669412 0
M  V30 4 C 0.561790 -2.798570 -0.198560 0
M  V30 5 N 0.146061 -3.544414 -1.241424 0
M  V30 6 N 0.069092 -2.749277 -2.277142 0
M  V30 7 C 0.429467 -1.516898 -1.902121 0
M  V30 8 C 0.533222 -0.316921 -2.556945 0
M  V30 9 C 0.936184 0.859718 -1.955658 0
M  V30 10 C 1.244569 0.772142 -0.603675 0
M  V30 11 C 1.681531 1.940848 0.146891 0
M  V30 12 O 2.694493 2.793799 0.094729 0
M  V30 13 C 2.604528 3.679712 1.027652 0
M  V30 14 N 1.486598 3.424388 1.747369 0
M  V30 15 C 0.894772 2.332034 1.204500 0
M  V30 16 C -0.335982 1.834710 1.788934 0
M  V30 17 C -0.423436 1.385427 3.102329 0
M  V30 18 C -1.639502 0.919500 3.601460 0
M  V30 19 C -2.770275 0.895760 2.807234 0
M  V30 20 C -2.688596 1.342687 1.496575 0
M  V30 21 F -3.832210 1.298422 0.755463 0
M  V30 22 C -1.470720 1.807105 1.003524 0
M  V30 23 C 1.151193 -0.423317 0.090052 0
M  V30 24 N 0.747463 -1.515556 -0.590538 0
M  V30 25 H 1.820472 -4.987276 2.091240 0
M  V30 26 H 1.508815 -5.203694 0.364747 0
M  V30 27 H 2.830975 -4.046353 0.873634 0
M  V30 28 H 1.104214 -2.569729 1.837720 0
M  V30 29 H -0.653377 -3.679581 2.713964 0
M  V30 30 H -0.445514 -5.129439 1.693025 0
M  V30 31 H -1.383661 -3.793051 1.026110 0
M  V30 32 H 0.289542 -0.262324 -3.611668 0
M  V30 33 H 1.024869 1.812703 -2.449907 0
M  V30 34 H 3.387015 4.452072 1.096987 0
M  V30 35 H 0.487107 1.421932 3.687864 0
M  V30 36 H -1.689487 0.572752 4.628208 0
M  V30 37 H -3.729648 0.531780 3.189810 0
M  V30 38 H -1.458900 2.144983 -0.024922 0
M  V30 39 H 1.393370 -0.485090 1.146004 0
M  V30 END ATOM
M  V30 BEGIN BOND
M  V30 1 1 1 2
M  V30 2 1 2 3
M  V30 3 1 2 4
M  V30 4 2 4 5
M  V30 5 1 5 6
M  V30 6 2 6 7
M  V30 7 1 7 8
M  V30 8 2 8 9
M  V30 9 1 9 10
M  V30 10 1 10 11
M  V30 11 1 11 12
M  V30 12 1 12 13
M  V30 13 2 13 14
M  V30 14 1 14 15
M  V30 15 1 15 16
M  V30 16 2 16 17
M  V30 17 1 17 18
M  V30 18 2 18 19
M  V30 19 1 19 20
M  V30 20 1 20 21
M  V30 21 2 20 22
M  V30 22 2 10 23
M  V30 23 1 23 24
M  V30 24 1 24 4
M  V30 25 1 24 7
M  V30 26 2 15 11
M  V30 27 1 22 16
M  V30 28 1 1 25
M  V30 29 1 1 26
M  V30 30 1 1 27
M  V30 31 1 2 28
M  V30 32 1 3 29
M  V30 33 1 3 30
M  V30 34 1 3 31
M  V30 35 1 8 32
M  V30 36 1 9 33
M  V30 37 1 13 34
M  V30 38 1 17 35
M  V30 39 1 18 36
M  V30 40 1 19 37
M  V30 41 1 22 38
M  V30 42 1 23 39
M  V30 END BOND
M  V30 END CTAB
M  END
>  <Dataset>  (884) 
ChEMBL_Kinases

>  <Ligand_Instance>  (884) 
nan

>  <PDB_ID>  (884) 
nan

>  <Standardized_SMILES>  (884) 
CC(C)c1nnc2ccc(-c3ocnc3-c3cccc(F)c3)cn12

>  <Name>  (884) 
nan

>  <Pocket>  (884) 
nan

>  <ATP_Site>  (884) 
nan

>  <Peripheral>  (884) 
nan

>  <Num_H_Atoms_ProtBoundConf>  (884) 
nan

>  <Num_Resolved_Atoms>  (884) 
nan

>  <Num_Not_Resolved_Atoms>  (884) 
nan

$$$$
CHEMBL493940
     RDKit          3D

  0  0  0  0  0  0  0  0  0  0999 V3000
M  V30 BEGIN CTAB
M  V30 COUNTS 34 37 0 0 0
M  V30 BEGIN ATOM
M  V30 1 C -4.635295 -1.685599 2.780162 0
M  V30 2 N -3.527490 -2.265950 2.034774 0
M  V30 3 C -2.855077 -0.954542 1.666728 0
M  V30 4 N -1.780685 -1.833849 1.299635 0
M  V30 5 C -0.579202 -1.383586 0.783242 0
M  V30 6 O 0.551549 -2.043951 0.386578 0
M  V30 7 C 1.409595 -1.129871 -0.027210 0
M  V30 8 C 2.708191 -1.457021 -0.509332 0
M  V30 9 C 3.546546 -0.518298 -1.146082 0
M  V30 10 C 4.813018 -0.808290 -1.604058 0
M  V30 11 C 5.283842 -2.139938 -1.412809 0
M  V30 12 C 4.524023 -3.120296 -0.797557 0
M  V30 13 C 3.328192 -2.683644 -0.413340 0
M  V30 14 N 0.890498 0.100409 0.080574 0
M  V30 15 C -0.337401 0.001717 0.578649 0
M  V30 16 C -1.365039 0.780587 0.930971 0
M  V30 17 C -2.341143 0.017037 1.384090 0
M  V30 18 N -3.385613 0.919024 1.717854 0
M  V30 19 C -2.928438 2.183031 1.426884 0
M  V30 20 N -1.657012 2.055603 0.932874 0
M  V30 21 C -0.713816 3.034757 0.475886 0
M  V30 22 H -5.320180 -2.529084 3.097711 0
M  V30 23 H -5.279968 -1.093532 2.088139 0
M  V30 24 H -4.368999 -1.153203 3.690665 0
M  V30 25 H -3.537478 -3.265857 1.981421 0
M  V30 26 H 3.190088 0.475513 -1.291364 0
M  V30 27 H 5.495465 -0.147233 -2.095308 0
M  V30 28 H 6.270249 -2.514897 -1.745090 0
M  V30 29 H 4.881166 -4.121570 -0.651779 0
M  V30 30 H 2.643712 -3.397292 0.087119 0
M  V30 31 H -3.448503 3.137978 1.553626 0
M  V30 32 H 0.255355 2.580667 0.298815 0
M  V30 33 H -0.646219 3.828745 1.294631 0
M  V30 34 H -1.085536 3.588949 -0.418856 0
M  V30 END ATOM
M  V30 BEGIN BOND
M  V30 1 1 1 2
M  V30 2 1 2 3
M  V30 3 2 3 4
M  V30 4 1 4 5
M  V30 5 1 5 6
M  V30 6 1 6 7
M  V30 7 1 7 8
M  V30 8 2 8 9
M  V30 9 1 9 10
M  V30 10 2 10 11
M  V30 11 1 11 12
M  V30 12 2 12 13
M  V30 13 2 7 14
M  V30 14 1 14 15
M  V30 15 1 15 16
M  V30 16 2 16 17
M  V30 17 1 17 18
M  V30 18 2 18 19
M  V30 19 1 19 20
M  V30 20 1 20 21
M  V30 21 1 17 3
M  V30 22 2 15 5
M  V30 23 1 20 16
M  V30 24 1 13 8
M  V30 25 1 1 22
M  V30 26 1 1 23
M  V30 27 1 1 24
M  V30 28 1 2 25
M  V30 29 1 9 26
M  V30 30 1 10 27
M  V30 31 1 11 28
M  V30 32 1 12 29
M  V30 33 1 13 30
M  V30 34 1 19 31
M  V30 35 1 21 32
M  V30 36 1 21 33
M  V30 37 1 21 34
M  V30 END BOND
M  V30 END CTAB
M  END
>  <Dataset>  (885) 
ChEMBL_Kinases

>  <Ligand_Instance>  (885) 
nan

>  <PDB_ID>  (885) 
nan

>  <Standardized_SMILES>  (885) 
CNc1nc2oc(-c3ccccc3)nc2c2c1ncn2C

>  <Name>  (885) 
nan

>  <Pocket>  (885) 
nan

>  <ATP_Site>  (885) 
nan

>  <Peripheral>  (885) 
nan

>  <Num_H_Atoms_ProtBoundConf>  (885) 
nan

>  <Num_Resolved_Atoms>  (885) 
nan

>  <Num_Not_Resolved_Atoms>  (885) 
nan

$$$$
CHEMBL3856095
     RDKit          3D

  0  0  0  0  0  0  0  0  0  0999 V3000
M  V30 BEGIN CTAB
M  V30 COUNTS 38 40 0 0 0
M  V30 BEGIN ATOM
M  V30 1 N 3.086890 -2.342840 4.848156 0
M  V30 2 C 3.588252 -2.441828 3.512675 0
M  V30 3 S 5.007149 -3.218370 3.286540 0
M  V30 4 N 2.709026 -1.810247 2.576194 0
M  V30 5 N 2.849205 -0.631009 2.038206 0
M  V30 6 C 1.841487 -0.337737 1.196067 0
M  V30 7 C 1.667738 0.866128 0.431529 0
M  V30 8 C 0.642458 1.143045 -0.413623 0
M  V30 9 C 0.569649 2.351771 -1.112247 0
M  V30 10 C 1.542188 3.319499 -0.971377 0
M  V30 11 N 1.419172 4.528261 -1.704150 0 CHG=1 VAL=4
M  V30 12 O 2.297723 5.424374 -1.588703 0
M  V30 13 O 0.411032 4.876414 -2.575920 0 CHG=-1 VAL=1
M  V30 14 C 2.602861 3.080924 -0.122775 0
M  V30 15 C 2.623289 1.879260 0.536477 0
M  V30 16 C 1.049451 -1.458938 1.260010 0
M  V30 17 N -0.165323 -1.682243 0.554575 0
M  V30 18 N -1.288038 -1.737801 1.175745 0
M  V30 19 C -2.464819 -1.964006 0.408981 0
M  V30 20 C -2.992454 -1.233342 -0.635587 0
M  V30 21 C -4.162730 -1.657170 -1.230609 0
M  V30 22 C -4.810741 -2.797353 -0.797480 0
M  V30 23 Cl -6.300544 -3.293126 -1.591831 0
M  V30 24 C -4.296857 -3.551413 0.255610 0
M  V30 25 C -3.119782 -3.116252 0.846617 0
M  V30 26 C 1.573633 -2.419720 2.132068 0
M  V30 27 O 1.072778 -3.545373 2.396230 0
M  V30 28 H 2.832439 -2.217242 5.848182 0
M  V30 29 H 2.126873 -2.695382 5.087313 0
M  V30 30 H 3.670369 -0.012514 2.264008 0
M  V30 31 H -0.132031 0.415312 -0.548858 0
M  V30 32 H -0.264564 2.541262 -1.780656 0
M  V30 33 H 3.381083 3.807339 0.015704 0
M  V30 34 H 3.473938 1.720770 1.199408 0
M  V30 35 H -2.394599 -0.366322 -0.879457 0
M  V30 36 H -4.524954 -1.035496 -2.048824 0
M  V30 37 H -4.839554 -4.433228 0.556828 0
M  V30 38 H -2.806976 -3.776542 1.657153 0
M  V30 END ATOM
M  V30 BEGIN BOND
M  V30 1 1 1 2
M  V30 2 2 2 3
M  V30 3 1 2 4
M  V30 4 1 4 5
M  V30 5 1 5 6
M  V30 6 1 6 7
M  V30 7 2 7 8
M  V30 8 1 8 9
M  V30 9 2 9 10
M  V30 10 1 10 11
M  V30 11 2 11 12
M  V30 12 1 11 13
M  V30 13 1 10 14
M  V30 14 2 14 15
M  V30 15 2 6 16
M  V30 16 1 16 17
M  V30 17 2 17 18
M  V30 18 1 18 19
M  V30 19 2 19 20
M  V30 20 1 20 21
M  V30 21 2 21 22
M  V30 22 1 22 23
M  V30 23 1 22 24
M  V30 24 2 24 25
M  V30 25 1 16 26
M  V30 26 2 26 27
M  V30 27 1 26 4
M  V30 28 1 15 7
M  V30 29 1 25 19
M  V30 30 1 1 28
M  V30 31 1 1 29
M  V30 32 1 5 30
M  V30 33 1 8 31
M  V30 34 1 9 32
M  V30 35 1 14 33
M  V30 36 1 15 34
M  V30 37 1 20 35
M  V30 38 1 21 36
M  V30 39 1 24 37
M  V30 40 1 25 38
M  V30 END BOND
M  V30 END CTAB
M  END
>  <Dataset>  (886) 
ChEMBL_Kinases

>  <Ligand_Instance>  (886) 
nan

>  <PDB_ID>  (886) 
nan

>  <Standardized_SMILES>  (886) 
NC(=S)n1[nH]c(-c2ccc([N+](=O)[O-])cc2)c(/N=N/c2ccc(Cl)cc2)c1=O

>  <Name>  (886) 
nan

>  <Pocket>  (886) 
nan

>  <ATP_Site>  (886) 
nan

>  <Peripheral>  (886) 
nan

>  <Num_H_Atoms_ProtBoundConf>  (886) 
nan

>  <Num_Resolved_Atoms>  (886) 
nan

>  <Num_Not_Resolved_Atoms>  (886) 
nan

$$$$
CHEMBL385598
     RDKit          3D

  0  0  0  0  0  0  0  0  0  0999 V3000
M  V30 BEGIN CTAB
M  V30 COUNTS 64 68 0 0 0
M  V30 BEGIN ATOM
M  V30 1 C 6.409192 -1.531162 6.678832 0
M  V30 2 N 6.078616 -0.124856 6.449718 0
M  V30 3 C 5.090601 0.119948 5.457962 0
M  V30 4 N 3.765640 0.196116 5.657016 0
M  V30 5 C 2.878384 0.431300 4.679789 0
M  V30 6 C 3.316765 0.612219 3.371366 0
M  V30 7 C 2.444703 0.857644 2.331618 0
M  V30 8 C 2.909530 1.037354 1.022588 0
M  V30 9 C 1.916762 1.283733 -0.017006 0
M  V30 10 C 0.817872 0.482980 -0.096251 0
M  V30 11 C -0.195711 0.588646 -1.024883 0
M  V30 12 C -1.376626 -0.253992 -1.134307 0
M  V30 13 O -2.236739 -0.066030 -2.020147 0
M  V30 14 N -1.783044 -1.337401 -0.374676 0
M  V30 15 C -2.705633 -2.345737 -0.111213 0
M  V30 16 C -2.537372 -3.214808 0.934359 0
M  V30 17 C -3.461600 -4.196347 1.159742 0
M  V30 18 C -3.179486 -5.081063 2.320796 0
M  V30 19 F -3.582203 -4.507174 3.501583 0
M  V30 20 F -3.872852 -6.242875 2.153994 0
M  V30 21 F -1.831211 -5.407653 2.385385 0
M  V30 22 C -4.561230 -4.319650 0.344272 0
M  V30 23 C -4.728477 -3.426415 -0.725490 0
M  V30 24 C -3.765889 -2.430998 -0.931925 0
M  V30 25 N -4.304170 -1.786334 -2.066725 0
M  V30 26 C -5.303937 -0.707754 -1.968157 0
M  V30 27 C -5.782291 -0.506528 -3.367324 0
M  V30 28 N -4.701950 -0.984672 -4.203584 0
M  V30 29 C -4.297100 -0.518344 -5.512588 0
M  V30 30 C -4.083758 -2.034928 -3.477667 0
M  V30 31 O -3.446386 -3.028817 -3.919159 0
M  V30 32 C -0.092582 1.593188 -1.959331 0
M  V30 33 C 1.000660 2.429176 -1.919914 0
M  V30 34 C 1.999524 2.283174 -0.961970 0
M  V30 35 C 3.156124 3.214007 -0.954494 0
M  V30 36 C 4.256845 0.950821 0.874205 0
M  V30 37 C 5.161765 0.708090 1.882703 0
M  V30 38 C 4.677271 0.533705 3.169139 0
M  V30 39 N 5.520506 0.293713 4.195889 0
M  V30 40 H 6.824528 -1.982556 5.745264 0
M  V30 41 H 5.476839 -2.068530 6.939651 0
M  V30 42 H 7.108232 -1.672462 7.525140 0
M  V30 43 H 6.598210 0.571643 7.033757 0
M  V30 44 H 1.817213 0.481880 4.896245 0
M  V30 45 H 1.384235 0.907447 2.558769 0
M  V30 46 H 0.717547 -0.311565 0.629718 0
M  V30 47 H -0.969266 -1.371992 0.318906 0
M  V30 48 H -1.674571 -3.122625 1.579184 0
M  V30 49 H -5.191518 -5.147122 0.662333 0
M  V30 50 H -5.666424 -3.737614 -1.207238 0
M  V30 51 H -6.146314 -1.058710 -1.300719 0
M  V30 52 H -4.901372 0.221660 -1.570754 0
M  V30 53 H -6.070129 0.535403 -3.614049 0
M  V30 54 H -6.644520 -1.199655 -3.591330 0
M  V30 55 H -5.016146 -0.705338 -6.311181 0
M  V30 56 H -4.131760 0.593718 -5.512186 0
M  V30 57 H -3.338390 -0.982345 -5.818994 0
M  V30 58 H -0.849612 1.745329 -2.728884 0
M  V30 59 H 1.055913 3.211707 -2.669596 0
M  V30 60 H 2.867318 4.234798 -1.280280 0
M  V30 61 H 3.931382 2.774606 -1.630850 0
M  V30 62 H 3.589882 3.205459 0.063739 0
M  V30 63 H 4.654929 1.079265 -0.120788 0
M  V30 64 H 6.213748 0.649943 1.713711 0
M  V30 END ATOM
M  V30 BEGIN BOND
M  V30 1 1 1 2
M  V30 2 1 2 3
M  V30 3 2 3 4
M  V30 4 1 4 5
M  V30 5 2 5 6
M  V30 6 1 6 7
M  V30 7 2 7 8
M  V30 8 1 8 9
M  V30 9 2 9 10
M  V30 10 1 10 11
M  V30 11 1 11 12
M  V30 12 2 12 13
M  V30 13 1 12 14
M  V30 14 1 14 15
M  V30 15 2 15 16
M  V30 16 1 16 17
M  V30 17 1 17 18
M  V30 18 1 18 19
M  V30 19 1 18 20
M  V30 20 1 18 21
M  V30 21 2 17 22
M  V30 22 1 22 23
M  V30 23 2 23 24
M  V30 24 1 24 25
M  V30 25 1 25 26
M  V30 26 1 26 27
M  V30 27 1 27 28
M  V30 28 1 28 29
M  V30 29 1 28 30
M  V30 30 2 30 31
M  V30 31 2 11 32
M  V30 32 1 32 33
M  V30 33 2 33 34
M  V30 34 1 34 35
M  V30 35 1 8 36
M  V30 36 2 36 37
M  V30 37 1 37 38
M  V30 38 2 38 39
M  V30 39 1 39 3
M  V30 40 1 38 6
M  V30 41 1 34 9
M  V30 42 1 24 15
M  V30 43 1 30 25
M  V30 44 1 1 40
M  V30 45 1 1 41
M  V30 46 1 1 42
M  V30 47 1 2 43
M  V30 48 1 5 44
M  V30 49 1 7 45
M  V30 50 1 10 46
M  V30 51 1 14 47
M  V30 52 1 16 48
M  V30 53 1 22 49
M  V30 54 1 23 50
M  V30 55 1 26 51
M  V30 56 1 26 52
M  V30 57 1 27 53
M  V30 58 1 27 54
M  V30 59 1 29 55
M  V30 60 1 29 56
M  V30 61 1 29 57
M  V30 62 1 32 58
M  V30 63 1 33 59
M  V30 64 1 35 60
M  V30 65 1 35 61
M  V30 66 1 35 62
M  V30 67 1 36 63
M  V30 68 1 37 64
M  V30 END BOND
M  V30 END CTAB
M  END
>  <Dataset>  (887) 
ChEMBL_Kinases

>  <Ligand_Instance>  (887) 
nan

>  <PDB_ID>  (887) 
nan

>  <Standardized_SMILES>  (887) 
CNc1ncc2cc(-c3cc(C(=O)Nc4cc(C(F)(F)F)ccc4N4CCN(C)C4=O)ccc3C)ccc2n1

>  <Name>  (887) 
nan

>  <Pocket>  (887) 
nan

>  <ATP_Site>  (887) 
nan

>  <Peripheral>  (887) 
nan

>  <Num_H_Atoms_ProtBoundConf>  (887) 
nan

>  <Num_Resolved_Atoms>  (887) 
nan

>  <Num_Not_Resolved_Atoms>  (887) 
nan

$$$$
CHEMBL385597
     RDKit          3D

  0  0  0  0  0  0  0  0  0  0999 V3000
M  V30 BEGIN CTAB
M  V30 COUNTS 79 83 0 0 0
M  V30 BEGIN ATOM
M  V30 1 C -7.772896 -5.107301 -4.264375 0
M  V30 2 O -6.583661 -4.973409 -3.536086 0
M  V30 3 C -5.337496 -4.738577 -4.090405 0
M  V30 4 C -5.185945 -4.610675 -5.474970 0
M  V30 5 C -3.914566 -4.379447 -5.949765 0
M  V30 6 C -2.881364 -4.289191 -5.044471 0
M  V30 7 C -2.974853 -4.405126 -3.697204 0
M  V30 8 N -1.939957 -4.310265 -2.744916 0
M  V30 9 C -0.570716 -4.064592 -2.898972 0
M  V30 10 O -0.148615 -3.898406 -4.070910 0
M  V30 11 C 0.366062 -3.994325 -1.755542 0
M  V30 12 C 1.745556 -3.702300 -2.152900 0
M  V30 13 C 2.227830 -2.419336 -2.419825 0
M  V30 14 C 3.564862 -2.349263 -2.755939 0
M  V30 15 N 4.401619 -1.250133 -3.100040 0
M  V30 16 C 3.557602 -0.108152 -3.189715 0
M  V30 17 N 3.169840 0.188326 -4.449269 0
M  V30 18 C 2.316489 1.236311 -4.648907 0
M  V30 19 N 1.880549 1.951976 -3.577048 0
M  V30 20 C 2.268045 1.654949 -2.329599 0
M  V30 21 C 1.846732 2.341720 -1.212661 0
M  V30 22 C 2.204147 2.075197 0.087109 0
M  V30 23 O 1.828397 2.694541 1.220480 0
M  V30 24 C 0.966605 3.739288 1.483435 0
M  V30 25 C -0.479920 3.430429 1.118847 0
M  V30 26 C -0.952617 2.223545 1.943558 0
M  V30 27 N -0.911669 2.483263 3.358605 0
M  V30 28 C -1.904490 3.415792 3.805064 0
M  V30 29 C -1.521548 3.917011 5.180603 0
M  V30 30 C -1.521789 2.762043 6.128030 0
M  V30 31 C -0.213918 2.682636 6.893464 0
M  V30 32 O -0.008939 3.860074 7.637107 0
M  V30 33 C -1.731188 1.471365 5.401331 0
M  V30 34 C -0.881611 1.312024 4.169306 0
M  V30 35 C 3.082977 0.998934 0.266131 0
M  V30 36 O 3.523618 0.626507 1.505968 0
M  V30 37 C 4.410237 -0.457448 1.694226 0
M  V30 38 C 3.547764 0.260447 -0.822714 0
M  V30 39 C 3.135350 0.597201 -2.089206 0
M  V30 40 N 3.892169 -3.679986 -2.683294 0
M  V30 41 N 2.871365 -4.444451 -2.344442 0
M  V30 42 C -4.259025 -4.636638 -3.243985 0
M  V30 43 H -8.613512 -5.468876 -3.632734 0
M  V30 44 H -8.093525 -4.162114 -4.701827 0
M  V30 45 H -7.633681 -5.897127 -5.044349 0
M  V30 46 H -6.100906 -4.708680 -6.039603 0
M  V30 47 H -3.806186 -4.283510 -7.014099 0
M  V30 48 H -1.922703 -4.110979 -5.484114 0
M  V30 49 H -2.191114 -4.441091 -1.717060 0
M  V30 50 H 0.324863 -4.864723 -1.073716 0
M  V30 51 H 0.023357 -3.119401 -1.126380 0
M  V30 52 H 1.559634 -1.555421 -2.355741 0
M  V30 53 H 5.412078 -1.467313 -3.215659 0
M  V30 54 H 1.931151 1.575466 -5.616824 0
M  V30 55 H 1.189614 3.166297 -1.416976 0
M  V30 56 H 1.244327 4.643626 0.862894 0
M  V30 57 H 0.965093 4.098445 2.517034 0
M  V30 58 H -0.521515 3.123392 0.082357 0
M  V30 59 H -1.142096 4.264826 1.380502 0
M  V30 60 H -2.030320 2.079614 1.652088 0
M  V30 61 H -0.377989 1.317911 1.664992 0
M  V30 62 H -2.878041 2.869463 3.931947 0
M  V30 63 H -2.100822 4.261157 3.114922 0
M  V30 64 H -0.463978 4.307625 5.134327 0
M  V30 65 H -2.142719 4.764958 5.498635 0
M  V30 66 H -2.368475 2.846519 6.859305 0
M  V30 67 H 0.603176 2.644510 6.147054 0
M  V30 68 H -0.173808 1.819715 7.557560 0
M  V30 69 H 0.965503 3.959812 7.732615 0
M  V30 70 H -2.814854 1.298457 5.177294 0
M  V30 71 H -1.402440 0.647521 6.097750 0
M  V30 72 H 0.154387 0.988389 4.431717 0
M  V30 73 H -1.314588 0.465035 3.559904 0
M  V30 74 H 4.540629 -0.653191 2.781041 0
M  V30 75 H 5.422094 -0.243035 1.277682 0
M  V30 76 H 4.057420 -1.395127 1.185645 0
M  V30 77 H 4.237447 -0.585822 -0.702185 0
M  V30 78 H 4.867929 -4.058799 -2.880199 0
M  V30 79 H -4.449066 -4.746523 -2.165858 0
M  V30 END ATOM
M  V30 BEGIN BOND
M  V30 1 1 1 2
M  V30 2 1 2 3
M  V30 3 2 3 4
M  V30 4 1 4 5
M  V30 5 2 5 6
M  V30 6 1 6 7
M  V30 7 1 7 8
M  V30 8 1 8 9
M  V30 9 2 9 10
M  V30 10 1 9 11
M  V30 11 1 11 12
M  V30 12 1 12 13
M  V30 13 2 13 14
M  V30 14 1 14 15
M  V30 15 1 15 16
M  V30 16 2 16 17
M  V30 17 1 17 18
M  V30 18 2 18 19
M  V30 19 1 19 20
M  V30 20 2 20 21
M  V30 21 1 21 22
M  V30 22 1 22 23
M  V30 23 1 23 24
M  V30 24 1 24 25
M  V30 25 1 25 26
M  V30 26 1 26 27
M  V30 27 1 27 28
M  V30 28 1 28 29
M  V30 29 1 29 30
M  V30 30 1 30 31
M  V30 31 1 31 32
M  V30 32 1 30 33
M  V30 33 1 33 34
M  V30 34 2 22 35
M  V30 35 1 35 36
M  V30 36 1 36 37
M  V30 37 1 35 38
M  V30 38 2 38 39
M  V30 39 1 14 40
M  V30 40 1 40 41
M  V30 41 2 7 42
M  V30 42 1 42 3
M  V30 43 2 41 12
M  V30 44 1 39 16
M  V30 45 1 39 20
M  V30 46 1 34 27
M  V30 47 1 1 43
M  V30 48 1 1 44
M  V30 49 1 1 45
M  V30 50 1 4 46
M  V30 51 1 5 47
M  V30 52 1 6 48
M  V30 53 1 8 49
M  V30 54 1 11 50
M  V30 55 1 11 51
M  V30 56 1 13 52
M  V30 57 1 15 53
M  V30 58 1 18 54
M  V30 59 1 21 55
M  V30 60 1 24 56
M  V30 61 1 24 57
M  V30 62 1 25 58
M  V30 63 1 25 59
M  V30 64 1 26 60
M  V30 65 1 26 61
M  V30 66 1 28 62
M  V30 67 1 28 63
M  V30 68 1 29 64
M  V30 69 1 29 65
M  V30 70 1 30 66
M  V30 71 1 31 67
M  V30 72 1 31 68
M  V30 73 1 32 69
M  V30 74 1 33 70
M  V30 75 1 33 71
M  V30 76 1 34 72
M  V30 77 1 34 73
M  V30 78 1 37 74
M  V30 79 1 37 75
M  V30 80 1 37 76
M  V30 81 1 38 77
M  V30 82 1 40 78
M  V30 83 1 42 79
M  V30 END BOND
M  V30 END CTAB
M  END
>  <Dataset>  (888) 
ChEMBL_Kinases

>  <Ligand_Instance>  (888) 
nan

>  <PDB_ID>  (888) 
nan

>  <Standardized_SMILES>  (888) 
COc1cccc(NC(=O)Cc2cc(Nc3ncnc4cc(OCCCN5CCC(CO)CC5)c(OC)cc34)[nH]n2)c1

>  <Name>  (888) 
nan

>  <Pocket>  (888) 
nan

>  <ATP_Site>  (888) 
nan

>  <Peripheral>  (888) 
nan

>  <Num_H_Atoms_ProtBoundConf>  (888) 
nan

>  <Num_Resolved_Atoms>  (888) 
nan

>  <Num_Not_Resolved_Atoms>  (888) 
nan

$$$$
CHEMBL385446
     RDKit          3D

  0  0  0  0  0  0  0  0  0  0999 V3000
M  V30 BEGIN CTAB
M  V30 COUNTS 47 49 0 0 0
M  V30 BEGIN ATOM
M  V30 1 C 2.046526 -1.027048 -2.608874 0
M  V30 2 C 2.769637 -0.762318 -1.287186 0
M  V30 3 C 4.225112 -1.055125 -1.519730 0
M  V30 4 O 4.368111 -2.411802 -1.803777 0
M  V30 5 N 2.505604 0.636919 -0.974922 0
M  V30 6 C 2.236284 0.894621 0.260681 0
M  V30 7 N 2.229526 -0.189350 1.157621 0
M  V30 8 C 1.923572 2.145950 0.911607 0
M  V30 9 C 1.912947 3.213207 0.057397 0
M  V30 10 O 2.149857 3.351085 -1.326522 0
M  V30 11 N 1.643144 4.535384 0.358130 0
M  V30 12 S 1.341749 4.270019 2.183116 0
M  V30 13 C 1.622484 2.524654 2.187417 0
M  V30 14 N 1.608123 1.509099 3.169993 0
M  V30 15 C 0.400029 0.758416 3.218604 0
M  V30 16 C 0.312663 -0.370914 4.035704 0
M  V30 17 C -0.849387 -1.135791 4.104305 0
M  V30 18 C -1.955261 -0.783024 3.352017 0
M  V30 19 O -3.149621 -1.511092 3.380821 0
M  V30 20 C -3.622426 -2.111698 2.224614 0
M  V30 21 C -2.994139 -2.102942 0.994394 0
M  V30 22 C -3.470259 -2.696476 -0.138301 0
M  V30 23 Cl -2.551012 -2.594036 -1.631217 0
M  V30 24 C -4.693293 -3.368222 -0.046349 0
M  V30 25 C -5.365881 -3.404299 1.178041 0
M  V30 26 C -4.826971 -2.781826 2.285536 0
M  V30 27 Cl -5.809478 -2.927006 3.718281 0
M  V30 28 C -1.906870 0.326247 2.533894 0
M  V30 29 F -2.926490 0.779930 1.754555 0
M  V30 30 C -0.736271 1.053198 2.496434 0
M  V30 31 H 2.762929 -0.748894 -3.412558 0
M  V30 32 H 1.690531 -2.078097 -2.678147 0
M  V30 33 H 1.163025 -0.331248 -2.717802 0
M  V30 34 H 2.365467 -1.465894 -0.540149 0
M  V30 35 H 4.887633 -0.827349 -0.672283 0
M  V30 36 H 4.601470 -0.502485 -2.415767 0
M  V30 37 H 3.588294 -2.922623 -1.494268 0
M  V30 38 H 2.497023 -0.851691 1.914561 0
M  V30 39 H 2.232410 -0.969654 1.809435 0
M  V30 40 H 1.673972 2.760929 -2.008521 0
M  V30 41 H 2.371992 1.270687 3.839407 0
M  V30 42 H 1.210411 -0.621416 4.621402 0
M  V30 43 H -0.880847 -2.012530 4.754351 0
M  V30 44 H -2.031852 -1.583655 0.919122 0
M  V30 45 H -5.012685 -3.815021 -0.978031 0
M  V30 46 H -6.295828 -3.954229 1.104630 0
M  V30 47 H -0.671867 1.943139 1.849931 0
M  V30 END ATOM
M  V30 BEGIN BOND
M  V30 1 1 1 2
M  V30 2 1 2 3
M  V30 3 1 3 4
M  V30 4 1 2 5
M  V30 5 2 5 6
M  V30 6 1 6 7
M  V30 7 1 6 8
M  V30 8 1 8 9
M  V30 9 1 9 10
M  V30 10 2 9 11
M  V30 11 1 11 12
M  V30 12 1 12 13
M  V30 13 1 13 14
M  V30 14 1 14 15
M  V30 15 2 15 16
M  V30 16 1 16 17
M  V30 17 2 17 18
M  V30 18 1 18 19
M  V30 19 1 19 20
M  V30 20 2 20 21
M  V30 21 1 21 22
M  V30 22 1 22 23
M  V30 23 2 22 24
M  V30 24 1 24 25
M  V30 25 2 25 26
M  V30 26 1 26 27
M  V30 27 1 18 28
M  V30 28 1 28 29
M  V30 29 2 28 30
M  V30 30 2 13 8
M  V30 31 1 30 15
M  V30 32 1 26 20
M  V30 33 1 1 31
M  V30 34 1 1 32
M  V30 35 1 1 33
M  V30 36 1 2 34
M  V30 37 1 3 35
M  V30 38 1 3 36
M  V30 39 1 4 37
M  V30 40 1 7 38
M  V30 41 1 7 39
M  V30 42 1 10 40
M  V30 43 1 14 41
M  V30 44 1 16 42
M  V30 45 1 17 43
M  V30 46 1 21 44
M  V30 47 1 24 45
M  V30 48 1 25 46
M  V30 49 1 30 47
M  V30 END BOND
M  V30 END CTAB
M  END
>  <Dataset>  (889) 
ChEMBL_Kinases

>  <Ligand_Instance>  (889) 
nan

>  <PDB_ID>  (889) 
nan

>  <Standardized_SMILES>  (889) 
CC(CO)/N=C(\N)c1c(O)nsc1Nc1ccc(Oc2cc(Cl)ccc2Cl)c(F)c1

>  <Name>  (889) 
nan

>  <Pocket>  (889) 
nan

>  <ATP_Site>  (889) 
nan

>  <Peripheral>  (889) 
nan

>  <Num_H_Atoms_ProtBoundConf>  (889) 
nan

>  <Num_Resolved_Atoms>  (889) 
nan

>  <Num_Not_Resolved_Atoms>  (889) 
nan

$$$$
CHEMBL385415
     RDKit          3D

  0  0  0  0  0  0  0  0  0  0999 V3000
M  V30 BEGIN CTAB
M  V30 COUNTS 48 53 0 0 0
M  V30 BEGIN ATOM
M  V30 1 O 4.134129 0.893701 0.204311 0
M  V30 2 C 3.052625 0.391715 -0.503963 0
M  V30 3 N 3.089323 -0.237607 -1.715818 0
M  V30 4 C 1.959736 -0.685894 -2.307167 0
M  V30 5 C 2.103729 -1.320398 -3.547776 0
M  V30 6 C 0.947200 -1.791822 -4.170774 0
M  V30 7 C -0.294033 -1.638554 -3.585789 0
M  V30 8 C -0.417552 -1.013728 -2.368616 0
M  V30 9 C 0.702840 -0.553194 -1.758138 0
M  V30 10 N 0.662542 0.066162 -0.565537 0
M  V30 11 C 1.775227 0.498046 -0.001211 0
M  V30 12 C 1.636399 1.156251 1.292136 0
M  V30 13 C 2.328024 2.343335 1.394953 0
M  V30 14 C 2.184985 2.961667 2.646656 0
M  V30 15 C 1.415647 2.407397 3.660231 0
M  V30 16 C 0.738352 1.210989 3.508417 0
M  V30 17 C -0.087825 0.351281 4.200034 0
M  V30 18 O -0.466995 0.630948 5.511428 0
M  V30 19 N -0.387351 -0.693567 3.369899 0
M  V30 20 N 0.214460 -0.516545 2.204241 0
M  V30 21 C 0.888768 0.615478 2.273773 0
M  V30 22 C -1.228791 -1.829745 3.688110 0
M  V30 23 C -1.471724 -2.714728 2.526954 0
M  V30 24 N -2.094735 -2.270159 1.384301 0
M  V30 25 C -3.197821 -1.422529 1.349880 0
M  V30 26 C -3.417974 -1.173883 -0.159990 0
M  V30 27 C -1.926256 -1.039112 -0.514533 0 CFG=1
M  V30 28 C -1.431852 -2.316326 0.127742 0
M  V30 29 O -1.701855 -0.909062 -1.865317 0
M  V30 30 H 5.083380 0.589875 0.095754 0
M  V30 31 H 3.053156 -1.452129 -4.022752 0
M  V30 32 H 1.085972 -2.278002 -5.128139 0
M  V30 33 H -1.122975 -2.041199 -4.155253 0
M  V30 34 H 2.916904 2.763139 0.592566 0
M  V30 35 H 2.693900 3.905021 2.826181 0
M  V30 36 H 1.301677 2.879277 4.626848 0
M  V30 37 H 0.078423 0.169872 6.247350 0
M  V30 38 H -2.136344 -1.535067 4.250708 0
M  V30 39 H -0.645622 -2.437706 4.430207 0
M  V30 40 H -0.451602 -3.119241 2.238760 0
M  V30 41 H -1.995948 -3.656689 2.875294 0
M  V30 42 H -4.131102 -1.905388 1.700103 0
M  V30 43 H -3.071626 -0.398377 1.745384 0
M  V30 44 H -3.942181 -0.224339 -0.328004 0
M  V30 45 H -3.875016 -2.032766 -0.651155 0
M  V30 46 H -1.579656 -0.205595 0.099542 0
M  V30 47 H -1.875504 -3.186635 -0.442729 0
M  V30 48 H -0.351034 -2.401380 0.215623 0
M  V30 END ATOM
M  V30 BEGIN BOND
M  V30 1 1 1 2
M  V30 2 2 2 3
M  V30 3 1 3 4
M  V30 4 2 4 5
M  V30 5 1 5 6
M  V30 6 2 6 7
M  V30 7 1 7 8
M  V30 8 2 8 9
M  V30 9 1 9 10
M  V30 10 2 10 11
M  V30 11 1 11 12
M  V30 12 2 12 13
M  V30 13 1 13 14
M  V30 14 2 14 15
M  V30 15 1 15 16
M  V30 16 2 16 17
M  V30 17 1 17 18
M  V30 18 1 17 19
M  V30 19 1 19 20
M  V30 20 2 20 21
M  V30 21 1 19 22
M  V30 22 1 22 23
M  V30 23 1 23 24
M  V30 24 1 24 25
M  V30 25 1 25 26
M  V30 26 1 26 27
M  V30 27 1 27 28
M  V30 28 1 27 29
M  V30 29 1 11 2
M  V30 30 1 21 12
M  V30 31 1 28 24
M  V30 32 1 9 4
M  V30 33 1 21 16
M  V30 34 1 29 8
M  V30 35 1 1 30
M  V30 36 1 5 31
M  V30 37 1 6 32
M  V30 38 1 7 33
M  V30 39 1 13 34
M  V30 40 1 14 35
M  V30 41 1 15 36
M  V30 42 1 18 37
M  V30 43 1 22 38
M  V30 44 1 22 39
M  V30 45 1 23 40
M  V30 46 1 23 41
M  V30 47 1 25 42
M  V30 48 1 25 43
M  V30 49 1 26 44
M  V30 50 1 26 45
M  V30 51 1 27 46 CFG=1
M  V30 52 1 28 47
M  V30 53 1 28 48
M  V30 END BOND
M  V30 END CTAB
M  END
>  <Dataset>  (890) 
ChEMBL_Kinases

>  <Ligand_Instance>  (890) 
nan

>  <PDB_ID>  (890) 
nan

>  <Standardized_SMILES>  (890) 
Oc1nc2cccc3c2nc1-c1cccc2c(O)n(nc12)CCN1CC[C@@H](C1)O3

>  <Name>  (890) 
nan

>  <Pocket>  (890) 
nan

>  <ATP_Site>  (890) 
nan

>  <Peripheral>  (890) 
nan

>  <Num_H_Atoms_ProtBoundConf>  (890) 
nan

>  <Num_Resolved_Atoms>  (890) 
nan

>  <Num_Not_Resolved_Atoms>  (890) 
nan

$$$$
CHEMBL594957
     RDKit          3D

  0  0  0  0  0  0  0  0  0  0999 V3000
M  V30 BEGIN CTAB
M  V30 COUNTS 27 28 0 0 0
M  V30 BEGIN ATOM
M  V30 1 C 2.335902 0.087585 3.458249 0
M  V30 2 C 1.512614 -0.905779 2.699185 0
M  V30 3 N 1.002637 -2.091913 3.065743 0
M  V30 4 N 0.334862 -2.643804 2.078138 0
M  V30 5 C 0.407194 -1.801492 1.038117 0
M  V30 6 C 1.150584 -0.666160 1.373964 0
M  V30 7 C 1.368522 0.408090 0.385793 0
M  V30 8 O 2.236593 1.246083 0.691460 0
M  V30 9 C 0.571655 0.444185 -0.887550 0
M  V30 10 C -0.662738 -0.405441 -0.600112 0
M  V30 11 C -1.601233 -0.301050 -1.747973 0
M  V30 12 C -1.298871 0.052747 0.713743 0
M  V30 13 C -0.123752 -1.813807 -0.372276 0
M  V30 14 H 2.240105 -0.062829 4.553436 0
M  V30 15 H 3.384098 0.070695 3.099944 0
M  V30 16 H 1.952678 1.130093 3.280297 0
M  V30 17 H -0.172813 -3.563685 2.060469 0
M  V30 18 H 1.164119 -0.112699 -1.638829 0
M  V30 19 H 0.322583 1.471482 -1.200744 0
M  V30 20 H -2.315479 0.550651 -1.551427 0
M  V30 21 H -2.214155 -1.213545 -1.886475 0
M  V30 22 H -1.077391 -0.019702 -2.680551 0
M  V30 23 H -2.364325 0.329657 0.537119 0
M  V30 24 H -0.743876 0.909826 1.123560 0
M  V30 25 H -1.319394 -0.747248 1.472045 0
M  V30 26 H -0.949473 -2.531374 -0.498888 0
M  V30 27 H 0.705012 -1.964931 -1.088204 0
M  V30 END ATOM
M  V30 BEGIN BOND
M  V30 1 1 1 2
M  V30 2 2 2 3
M  V30 3 1 3 4
M  V30 4 1 4 5
M  V30 5 2 5 6
M  V30 6 1 6 7
M  V30 7 2 7 8
M  V30 8 1 7 9
M  V30 9 1 9 10
M  V30 10 1 10 11
M  V30 11 1 10 12
M  V30 12 1 10 13
M  V30 13 1 6 2
M  V30 14 1 13 5
M  V30 15 1 1 14
M  V30 16 1 1 15
M  V30 17 1 1 16
M  V30 18 1 4 17
M  V30 19 1 9 18
M  V30 20 1 9 19
M  V30 21 1 11 20
M  V30 22 1 11 21
M  V30 23 1 11 22
M  V30 24 1 12 23
M  V30 25 1 12 24
M  V30 26 1 12 25
M  V30 27 1 13 26
M  V30 28 1 13 27
M  V30 END BOND
M  V30 END CTAB
M  END
>  <Dataset>  (891) 
ChEMBL_Kinases

>  <Ligand_Instance>  (891) 
nan

>  <PDB_ID>  (891) 
nan

>  <Standardized_SMILES>  (891) 
Cc1n[nH]c2c1C(=O)CC(C)(C)C2

>  <Name>  (891) 
nan

>  <Pocket>  (891) 
nan

>  <ATP_Site>  (891) 
nan

>  <Peripheral>  (891) 
nan

>  <Num_H_Atoms_ProtBoundConf>  (891) 
nan

>  <Num_Resolved_Atoms>  (891) 
nan

>  <Num_Not_Resolved_Atoms>  (891) 
nan

$$$$
CHEMBL594933
     RDKit          3D

  0  0  0  0  0  0  0  0  0  0999 V3000
M  V30 BEGIN CTAB
M  V30 COUNTS 59 64 0 0 0
M  V30 BEGIN ATOM
M  V30 1 C 0.788045 -5.051025 1.572748 0
M  V30 2 C 2.189563 -4.557086 1.712761 0
M  V30 3 N 3.191137 -5.155128 2.423451 0
M  V30 4 N 4.298435 -4.409870 2.306371 0
M  V30 5 C 4.039914 -3.327512 1.527296 0
M  V30 6 C 4.803223 -2.261324 1.092190 0
M  V30 7 N 4.212031 -1.340310 0.308315 0
M  V30 8 C 2.919781 -1.401759 -0.073928 0
M  V30 9 C 2.420220 -0.329661 -0.923986 0
M  V30 10 C 1.383218 0.408811 -0.404345 0
M  V30 11 C 0.755567 1.460049 -1.020433 0
M  V30 12 O -0.208941 2.339547 -0.841964 0
M  V30 13 C -1.165491 2.746113 0.006746 0
M  V30 14 C -2.312289 1.855188 0.354469 0 CFG=1
M  V30 15 N -3.096592 1.501367 -0.824903 0
M  V30 16 C -1.960281 0.628130 1.146076 0
M  V30 17 C -3.204805 -0.173481 1.456923 0
M  V30 18 C -3.649693 -1.352390 0.867046 0
M  V30 19 N -4.806583 -1.674319 1.486937 0
M  V30 20 C -5.092094 -0.753650 2.425107 0
M  V30 21 C -6.196750 -0.742185 3.267270 0
M  V30 22 C -6.301422 0.312722 4.174335 0
M  V30 23 C -5.312459 1.269312 4.179386 0
M  V30 24 C -4.222603 1.249586 3.341894 0
M  V30 25 C -4.100042 0.214460 2.436819 0
M  V30 26 C 1.271618 1.758732 -2.301711 0
M  V30 27 N 2.306918 1.053951 -2.869524 0
M  V30 28 C 2.864634 0.024541 -2.177395 0
M  V30 29 C 3.964169 -0.779416 -2.696472 0
M  V30 30 C 5.230816 -0.363842 -3.044485 0
M  V30 31 C 5.918055 -1.495361 -3.486266 0
M  V30 32 O 5.134328 -2.545359 -3.418798 0
M  V30 33 C 3.955153 -2.152936 -2.949479 0
M  V30 34 C 2.112667 -2.457311 0.340029 0
M  V30 35 C 2.710745 -3.410004 1.146537 0
M  V30 36 H 0.680074 -5.588630 0.608304 0
M  V30 37 H 0.505063 -5.711673 2.394334 0
M  V30 38 H 0.094058 -4.169926 1.492154 0
M  V30 39 H 5.229270 -4.608619 2.737422 0
M  V30 40 H 5.836223 -2.162458 1.366085 0
M  V30 41 H 0.963265 0.244858 0.560324 0
M  V30 42 H -1.628699 3.699874 -0.435275 0
M  V30 43 H -0.784250 3.143209 0.998362 0
M  V30 44 H -3.035312 2.446113 0.991134 0
M  V30 45 H -2.858905 2.154786 -1.623793 0
M  V30 46 H -2.912925 0.529065 -1.124551 0
M  V30 47 H -1.310222 -0.024941 0.503950 0
M  V30 48 H -1.389167 0.846468 2.058982 0
M  V30 49 H -3.080240 -1.817076 0.072605 0
M  V30 50 H -5.332065 -2.551202 1.194751 0
M  V30 51 H -6.952878 -1.513709 3.231916 0
M  V30 52 H -7.156599 0.353046 4.851163 0
M  V30 53 H -5.344860 2.105706 4.860643 0
M  V30 54 H -3.448125 2.010488 3.355169 0
M  V30 55 H 1.016217 2.519262 -3.062630 0
M  V30 56 H 5.618624 0.661159 -2.983764 0
M  V30 57 H 6.954058 -1.406799 -3.817746 0
M  V30 58 H 3.085023 -2.785496 -2.775008 0
M  V30 59 H 1.081048 -2.477024 0.015997 0
M  V30 END ATOM
M  V30 BEGIN BOND
M  V30 1 1 1 2
M  V30 2 2 2 3
M  V30 3 1 3 4
M  V30 4 1 4 5
M  V30 5 2 5 6
M  V30 6 1 6 7
M  V30 7 2 7 8
M  V30 8 1 8 9
M  V30 9 2 9 10
M  V30 10 1 10 11
M  V30 11 1 11 12
M  V30 12 1 12 13
M  V30 13 1 13 14
M  V30 14 1 14 15
M  V30 15 1 14 16
M  V30 16 1 16 17
M  V30 17 2 17 18
M  V30 18 1 18 19
M  V30 19 1 19 20
M  V30 20 2 20 21
M  V30 21 1 21 22
M  V30 22 2 22 23
M  V30 23 1 23 24
M  V30 24 2 24 25
M  V30 25 2 11 26
M  V30 26 1 26 27
M  V30 27 2 27 28
M  V30 28 1 28 29
M  V30 29 1 29 30
M  V30 30 2 30 31
M  V30 31 1 31 32
M  V30 32 1 32 33
M  V30 33 1 8 34
M  V30 34 2 34 35
M  V30 35 1 35 2
M  V30 36 1 35 5
M  V30 37 1 28 9
M  V30 38 2 33 29
M  V30 39 1 25 17
M  V30 40 1 25 20
M  V30 41 1 1 36
M  V30 42 1 1 37
M  V30 43 1 1 38
M  V30 44 1 4 39
M  V30 45 1 6 40
M  V30 46 1 10 41
M  V30 47 1 13 42
M  V30 48 1 13 43
M  V30 49 1 14 44 CFG=1
M  V30 50 1 15 45
M  V30 51 1 15 46
M  V30 52 1 16 47
M  V30 53 1 16 48
M  V30 54 1 18 49
M  V30 55 1 19 50
M  V30 56 1 21 51
M  V30 57 1 22 52
M  V30 58 1 23 53
M  V30 59 1 24 54
M  V30 60 1 26 55
M  V30 61 1 30 56
M  V30 62 1 31 57
M  V30 63 1 33 58
M  V30 64 1 34 59
M  V30 END BOND
M  V30 END CTAB
M  END
>  <Dataset>  (892) 
ChEMBL_Kinases

>  <Ligand_Instance>  (892) 
nan

>  <PDB_ID>  (892) 
nan

>  <Standardized_SMILES>  (892) 
Cc1n[nH]c2cnc(-c3cc(OC[C@@H](N)Cc4c[nH]c5ccccc45)cnc3-c3ccoc3)cc12

>  <Name>  (892) 
nan

>  <Pocket>  (892) 
nan

>  <ATP_Site>  (892) 
nan

>  <Peripheral>  (892) 
nan

>  <Num_H_Atoms_ProtBoundConf>  (892) 
nan

>  <Num_Resolved_Atoms>  (892) 
nan

>  <Num_Not_Resolved_Atoms>  (892) 
nan

$$$$
CHEMBL385362
     RDKit          3D

  0  0  0  0  0  0  0  0  0  0999 V3000
M  V30 BEGIN CTAB
M  V30 COUNTS 39 43 0 0 0
M  V30 BEGIN ATOM
M  V30 1 O -0.073782 -5.003932 3.341529 0
M  V30 2 C -0.060342 -3.855337 2.882255 0
M  V30 3 C -0.205469 -3.561727 1.427877 0
M  V30 4 C -0.407424 -4.398586 0.354826 0
M  V30 5 C -0.548122 -3.677142 -0.863575 0
M  V30 6 C -0.461584 -2.273852 -0.851854 0
M  V30 7 C -0.237997 -1.462097 0.300864 0
M  V30 8 C -0.014025 -0.248950 -0.403240 0
M  V30 9 N 0.833994 0.287819 -1.286485 0
M  V30 10 C 0.830738 1.586651 -1.640025 0
M  V30 11 C 1.716389 2.025021 -2.600980 0
M  V30 12 C 1.686901 3.324194 -2.995631 0
M  V30 13 C 0.761630 4.228490 -2.434723 0
M  V30 14 C -0.164093 3.833640 -1.453025 0
M  V30 15 C -0.008143 2.487087 -1.154576 0
M  V30 16 N -0.918859 2.034273 -0.243538 0
M  V30 17 C -0.916734 0.696039 0.116557 0
M  V30 18 O -1.955266 0.544532 1.044762 0
M  V30 19 C -0.127840 -2.195113 1.399503 0
M  V30 20 C -0.030560 -1.541569 2.692307 0
M  V30 21 C 1.140291 -0.732052 3.027459 0
M  V30 22 C 1.365770 -1.016185 4.517855 0
M  V30 23 C 0.282468 -1.984482 4.890758 0
M  V30 24 N 0.085241 -2.688141 3.620680 0
M  V30 25 H -0.441437 -5.441464 0.493800 0
M  V30 26 H -0.709553 -4.432463 -1.660553 0
M  V30 27 H -0.622679 -2.104037 -1.956657 0
M  V30 28 H 2.446587 1.367359 -3.074101 0
M  V30 29 H 2.392064 3.660618 -3.781179 0
M  V30 30 H 0.823741 5.248957 -2.826469 0
M  V30 31 H -0.842895 4.547012 -1.055094 0
M  V30 32 H -2.481673 -0.302206 1.014946 0
M  V30 33 H -1.003437 -1.064540 3.004555 0
M  V30 34 H 0.861003 0.365920 2.911833 0
M  V30 35 H 1.996913 -1.021495 2.418917 0
M  V30 36 H 1.286370 -0.088991 5.098423 0
M  V30 37 H 2.360907 -1.527362 4.626288 0
M  V30 38 H 0.618811 -2.749911 5.645933 0
M  V30 39 H -0.670938 -1.506785 5.195889 0
M  V30 END ATOM
M  V30 BEGIN BOND
M  V30 1 2 1 2
M  V30 2 1 2 3
M  V30 3 2 3 4
M  V30 4 1 4 5
M  V30 5 2 5 6
M  V30 6 1 6 7
M  V30 7 1 7 8
M  V30 8 2 8 9
M  V30 9 1 9 10
M  V30 10 2 10 11
M  V30 11 1 11 12
M  V30 12 2 12 13
M  V30 13 1 13 14
M  V30 14 2 14 15
M  V30 15 1 15 16
M  V30 16 2 16 17
M  V30 17 1 17 18
M  V30 18 2 7 19
M  V30 19 1 19 20
M  V30 20 1 20 21
M  V30 21 1 21 22
M  V30 22 1 22 23
M  V30 23 1 23 24
M  V30 24 1 24 2
M  V30 25 1 19 3
M  V30 26 1 24 20
M  V30 27 1 17 8
M  V30 28 1 15 10
M  V30 29 1 4 25
M  V30 30 1 5 26
M  V30 31 1 6 27
M  V30 32 1 11 28
M  V30 33 1 12 29
M  V30 34 1 13 30
M  V30 35 1 14 31
M  V30 36 1 18 32
M  V30 37 1 20 33
M  V30 38 1 21 34
M  V30 39 1 21 35
M  V30 40 1 22 36
M  V30 41 1 22 37
M  V30 42 1 23 38
M  V30 43 1 23 39
M  V30 END BOND
M  V30 END CTAB
M  END
>  <Dataset>  (893) 
ChEMBL_Kinases

>  <Ligand_Instance>  (893) 
nan

>  <PDB_ID>  (893) 
nan

>  <Standardized_SMILES>  (893) 
O=C1c2cccc(-c3nc4ccccc4nc3O)c2C2CCCN12

>  <Name>  (893) 
nan

>  <Pocket>  (893) 
nan

>  <ATP_Site>  (893) 
nan

>  <Peripheral>  (893) 
nan

>  <Num_H_Atoms_ProtBoundConf>  (893) 
nan

>  <Num_Resolved_Atoms>  (893) 
nan

>  <Num_Not_Resolved_Atoms>  (893) 
nan

$$$$
CHEMBL385352
     RDKit          3D

  0  0  0  0  0  0  0  0  0  0999 V3000
M  V30 BEGIN CTAB
M  V30 COUNTS 39 42 0 0 0
M  V30 BEGIN ATOM
M  V30 1 C -0.492848 -3.433174 1.335277 0
M  V30 2 C 0.585772 -3.725394 0.280194 0
M  V30 3 C -0.012128 -3.529492 -1.034719 0
M  V30 4 C 1.798526 -2.990538 0.636893 0
M  V30 5 N 2.942858 -3.545347 1.107431 0
M  V30 6 N 3.836063 -2.605317 1.326099 0
M  V30 7 C 3.305637 -1.421383 1.007425 0
M  V30 8 C 3.798266 -0.117182 1.042153 0
M  V30 9 C 2.964070 0.912510 0.630569 0
M  V30 10 C 1.667821 0.659862 0.192903 0
M  V30 11 C 0.795462 1.744827 -0.239402 0
M  V30 12 O 1.244751 2.433181 -1.285066 0
M  V30 13 C 0.353582 3.381212 -1.563685 0
M  V30 14 N -0.683210 3.322405 -0.706567 0
M  V30 15 C -0.413887 2.299516 0.126563 0
M  V30 16 C -1.099918 1.699225 1.263989 0
M  V30 17 C -0.692710 1.608460 2.578296 0
M  V30 18 C -1.502722 0.992884 3.508052 0
M  V30 19 C -2.729232 0.458308 3.145937 0
M  V30 20 F -3.500961 -0.141682 4.092475 0
M  V30 21 C -3.151341 0.544857 1.816851 0
M  V30 22 F -4.356285 -0.001735 1.556888 0
M  V30 23 C -2.334732 1.163441 0.888880 0
M  V30 24 F -2.854008 1.187378 -0.379628 0
M  V30 25 C 1.244465 -0.668620 0.185768 0
M  V30 26 N 2.049101 -1.660899 0.582671 0
M  V30 27 H -0.033083 -3.631451 2.311445 0
M  V30 28 H -1.364222 -4.108207 1.104943 0
M  V30 29 H -0.851594 -2.404144 1.250442 0
M  V30 30 H 0.815675 -4.800256 0.434944 0
M  V30 31 H 0.655266 -3.254576 -1.875052 0
M  V30 32 H -0.916040 -2.861983 -0.989920 0
M  V30 33 H -0.456574 -4.494377 -1.366859 0
M  V30 34 H 4.823918 0.073639 1.389350 0
M  V30 35 H 3.341850 1.946574 0.653190 0
M  V30 36 H 0.439726 4.117079 -2.378114 0
M  V30 37 H 0.281497 2.057441 2.756660 0
M  V30 38 H -1.132870 0.949335 4.526587 0
M  V30 39 H 0.221022 -0.797181 -0.167750 0
M  V30 END ATOM
M  V30 BEGIN BOND
M  V30 1 1 1 2
M  V30 2 1 2 3
M  V30 3 1 2 4
M  V30 4 2 4 5
M  V30 5 1 5 6
M  V30 6 2 6 7
M  V30 7 1 7 8
M  V30 8 2 8 9
M  V30 9 1 9 10
M  V30 10 1 10 11
M  V30 11 1 11 12
M  V30 12 1 12 13
M  V30 13 2 13 14
M  V30 14 1 14 15
M  V30 15 1 15 16
M  V30 16 2 16 17
M  V30 17 1 17 18
M  V30 18 2 18 19
M  V30 19 1 19 20
M  V30 20 1 19 21
M  V30 21 1 21 22
M  V30 22 2 21 23
M  V30 23 1 23 24
M  V30 24 2 10 25
M  V30 25 1 25 26
M  V30 26 1 26 4
M  V30 27 1 26 7
M  V30 28 2 15 11
M  V30 29 1 23 16
M  V30 30 1 1 27
M  V30 31 1 1 28
M  V30 32 1 1 29
M  V30 33 1 2 30
M  V30 34 1 3 31
M  V30 35 1 3 32
M  V30 36 1 3 33
M  V30 37 1 8 34
M  V30 38 1 9 35
M  V30 39 1 13 36
M  V30 40 1 17 37
M  V30 41 1 18 38
M  V30 42 1 25 39
M  V30 END BOND
M  V30 END CTAB
M  END
>  <Dataset>  (894) 
ChEMBL_Kinases

>  <Ligand_Instance>  (894) 
nan

>  <PDB_ID>  (894) 
nan

>  <Standardized_SMILES>  (894) 
CC(C)c1nnc2ccc(-c3ocnc3-c3ccc(F)c(F)c3F)cn12

>  <Name>  (894) 
nan

>  <Pocket>  (894) 
nan

>  <ATP_Site>  (894) 
nan

>  <Peripheral>  (894) 
nan

>  <Num_H_Atoms_ProtBoundConf>  (894) 
nan

>  <Num_Resolved_Atoms>  (894) 
nan

>  <Num_Not_Resolved_Atoms>  (894) 
nan

$$$$
CHEMBL594867
     RDKit          3D

  0  0  0  0  0  0  0  0  0  0999 V3000
M  V30 BEGIN CTAB
M  V30 COUNTS 43 46 0 0 0
M  V30 BEGIN ATOM
M  V30 1 C 1.995984 -3.506651 -0.442142 0
M  V30 2 N 1.217795 -3.037044 0.681050 0
M  V30 3 C 0.705449 -1.803715 0.860196 0
M  V30 4 C 0.835996 -0.651502 -0.063120 0
M  V30 5 C -0.085371 -0.042473 -0.867043 0
M  V30 6 C 0.300669 1.044860 -1.623635 0
M  V30 7 C 1.610014 1.510411 -1.564362 0
M  V30 8 N 1.912085 2.581291 -2.331669 0
M  V30 9 C 3.180604 3.056598 -2.289032 0
M  V30 10 C 4.115765 2.460428 -1.490156 0
M  V30 11 N 3.819023 1.390124 -0.722548 0
M  V30 12 C 2.561887 0.907440 -0.755175 0
M  V30 13 C 2.156326 -0.186879 -0.000504 0
M  V30 14 C 0.008017 -1.735877 2.071964 0
M  V30 15 C -0.655291 -0.513067 2.524196 0
M  V30 16 C -0.152983 0.447023 3.382504 0
M  V30 17 C -0.928898 1.543539 3.692546 0
M  V30 18 C -2.205738 1.710760 3.164554 0
M  V30 19 C -2.723991 0.764300 2.306695 0
M  V30 20 C -4.087067 0.905482 1.717653 0
M  V30 21 F -4.231206 2.169911 1.205617 0
M  V30 22 F -5.010141 0.679459 2.723417 0
M  V30 23 F -4.254341 -0.004123 0.705035 0
M  V30 24 C -1.928993 -0.336367 2.003361 0
M  V30 25 C 0.154823 -3.002197 2.569721 0
M  V30 26 O -0.364461 -3.313441 3.689003 0
M  V30 27 N 0.875429 -3.771420 1.737638 0
M  V30 28 C 1.216443 -5.177998 1.979810 0
M  V30 29 H 3.085258 -3.454108 -0.274713 0
M  V30 30 H 1.650813 -4.526333 -0.760600 0
M  V30 31 H 1.781963 -2.867809 -1.349405 0
M  V30 32 H -1.040917 -0.525647 -0.791851 0
M  V30 33 H -0.484609 1.464848 -2.231239 0
M  V30 34 H 3.578394 3.901967 -2.840852 0
M  V30 35 H 5.170709 2.729536 -1.349570 0
M  V30 36 H 2.971239 -0.588899 0.599738 0
M  V30 37 H 0.842426 0.250489 3.753560 0
M  V30 38 H -0.519947 2.286329 4.365455 0
M  V30 39 H -2.814438 2.563784 3.400274 0
M  V30 40 H -2.389670 -1.056001 1.319846 0
M  V30 41 H 0.526790 -5.871726 1.501077 0
M  V30 42 H 2.257778 -5.398415 1.593759 0
M  V30 43 H 1.321350 -5.376268 3.087736 0
M  V30 END ATOM
M  V30 BEGIN BOND
M  V30 1 1 1 2
M  V30 2 1 2 3
M  V30 3 1 3 4
M  V30 4 2 4 5
M  V30 5 1 5 6
M  V30 6 2 6 7
M  V30 7 1 7 8
M  V30 8 2 8 9
M  V30 9 1 9 10
M  V30 10 2 10 11
M  V30 11 1 11 12
M  V30 12 2 12 13
M  V30 13 2 3 14
M  V30 14 1 14 15
M  V30 15 2 15 16
M  V30 16 1 16 17
M  V30 17 2 17 18
M  V30 18 1 18 19
M  V30 19 1 19 20
M  V30 20 1 20 21
M  V30 21 1 20 22
M  V30 22 1 20 23
M  V30 23 2 19 24
M  V30 24 1 14 25
M  V30 25 2 25 26
M  V30 26 1 25 27
M  V30 27 1 27 28
M  V30 28 1 27 2
M  V30 29 1 13 4
M  V30 30 1 24 15
M  V30 31 1 12 7
M  V30 32 1 1 29
M  V30 33 1 1 30
M  V30 34 1 1 31
M  V30 35 1 5 32
M  V30 36 1 6 33
M  V30 37 1 9 34
M  V30 38 1 10 35
M  V30 39 1 13 36
M  V30 40 1 16 37
M  V30 41 1 17 38
M  V30 42 1 18 39
M  V30 43 1 24 40
M  V30 44 1 28 41
M  V30 45 1 28 42
M  V30 46 1 28 43
M  V30 END BOND
M  V30 END CTAB
M  END
>  <Dataset>  (895) 
ChEMBL_Kinases

>  <Ligand_Instance>  (895) 
nan

>  <PDB_ID>  (895) 
nan

>  <Standardized_SMILES>  (895) 
Cn1c(-c2ccc3nccnc3c2)c(-c2cccc(C(F)(F)F)c2)c(=O)n1C

>  <Name>  (895) 
nan

>  <Pocket>  (895) 
nan

>  <ATP_Site>  (895) 
nan

>  <Peripheral>  (895) 
nan

>  <Num_H_Atoms_ProtBoundConf>  (895) 
nan

>  <Num_Resolved_Atoms>  (895) 
nan

>  <Num_Not_Resolved_Atoms>  (895) 
nan

$$$$
CHEMBL594600
     RDKit          3D

  0  0  0  0  0  0  0  0  0  0999 V3000
M  V30 BEGIN CTAB
M  V30 COUNTS 41 45 0 0 0
M  V30 BEGIN ATOM
M  V30 1 C 3.658427 -0.673602 2.155838 0
M  V30 2 N 2.372380 -1.265027 2.360800 0
M  V30 3 C 1.289806 -1.037562 1.594172 0
M  V30 4 C 1.131161 -0.176647 0.410262 0
M  V30 5 C 0.802637 -0.946235 -0.706026 0
M  V30 6 C 0.599681 -0.351305 -1.955522 0
M  V30 7 C 0.739175 1.037361 -2.036832 0
M  V30 8 N 0.562200 1.691369 -3.197262 0
M  V30 9 C 0.707038 3.040290 -3.233212 0
M  V30 10 C 1.031952 3.774623 -2.115060 0
M  V30 11 N 1.209474 3.112736 -0.948055 0
M  V30 12 C 1.066016 1.775202 -0.911700 0
M  V30 13 C 1.263993 1.173905 0.317960 0
M  V30 14 C 0.249495 -1.796919 2.123796 0
M  V30 15 C -1.118989 -1.855435 1.602853 0
M  V30 16 C -1.840307 -2.911584 1.109633 0
M  V30 17 C -3.123747 -2.699808 0.677881 0
M  V30 18 C -3.738110 -1.487829 0.708008 0
M  V30 19 N -4.954069 -1.034914 0.352701 0
M  V30 20 O -5.010352 0.242609 0.604116 0
M  V30 21 N -3.868219 0.636717 1.112550 0
M  V30 22 C -3.021210 -0.411400 1.203880 0
M  V30 23 C -1.716228 -0.593477 1.650002 0
M  V30 24 C 0.744711 -2.480623 3.225090 0
M  V30 25 O 0.034855 -3.247205 3.908225 0
M  V30 26 N 2.054609 -2.113251 3.320604 0
M  V30 27 C 2.930061 -2.629523 4.370851 0
M  V30 28 H 4.506539 -1.377907 2.200847 0
M  V30 29 H 3.698592 -0.088516 1.218710 0
M  V30 30 H 3.806133 0.073273 2.986776 0
M  V30 31 H 0.671651 -2.032495 -0.743449 0
M  V30 32 H 0.344148 -0.912174 -2.843562 0
M  V30 33 H 0.548796 3.498456 -4.204091 0
M  V30 34 H 1.138928 4.842013 -2.178629 0
M  V30 35 H 1.518202 1.656052 1.240778 0
M  V30 36 H -1.272512 -3.830081 1.124797 0
M  V30 37 H -3.639990 -3.587356 0.296866 0
M  V30 38 H -1.270582 0.325670 2.011634 0
M  V30 39 H 3.792869 -1.951306 4.483929 0
M  V30 40 H 3.273935 -3.626713 3.968174 0
M  V30 41 H 2.379688 -2.857432 5.286750 0
M  V30 END ATOM
M  V30 BEGIN BOND
M  V30 1 1 1 2
M  V30 2 1 2 3
M  V30 3 1 3 4
M  V30 4 2 4 5
M  V30 5 1 5 6
M  V30 6 2 6 7
M  V30 7 1 7 8
M  V30 8 2 8 9
M  V30 9 1 9 10
M  V30 10 2 10 11
M  V30 11 1 11 12
M  V30 12 2 12 13
M  V30 13 2 3 14
M  V30 14 1 14 15
M  V30 15 1 15 16
M  V30 16 2 16 17
M  V30 17 1 17 18
M  V30 18 2 18 19
M  V30 19 1 19 20
M  V30 20 1 20 21
M  V30 21 2 21 22
M  V30 22 1 22 23
M  V30 23 1 14 24
M  V30 24 2 24 25
M  V30 25 1 24 26
M  V30 26 1 26 27
M  V30 27 1 26 2
M  V30 28 1 13 4
M  V30 29 2 23 15
M  V30 30 1 12 7
M  V30 31 1 22 18
M  V30 32 1 1 28
M  V30 33 1 1 29
M  V30 34 1 1 30
M  V30 35 1 5 31
M  V30 36 1 6 32
M  V30 37 1 9 33
M  V30 38 1 10 34
M  V30 39 1 13 35
M  V30 40 1 16 36
M  V30 41 1 17 37
M  V30 42 1 23 38
M  V30 43 1 27 39
M  V30 44 1 27 40
M  V30 45 1 27 41
M  V30 END BOND
M  V30 END CTAB
M  END
>  <Dataset>  (896) 
ChEMBL_Kinases

>  <Ligand_Instance>  (896) 
nan

>  <PDB_ID>  (896) 
nan

>  <Standardized_SMILES>  (896) 
Cn1c(-c2ccc3nccnc3c2)c(-c2ccc3nonc3c2)c(=O)n1C

>  <Name>  (896) 
nan

>  <Pocket>  (896) 
nan

>  <ATP_Site>  (896) 
nan

>  <Peripheral>  (896) 
nan

>  <Num_H_Atoms_ProtBoundConf>  (896) 
nan

>  <Num_Resolved_Atoms>  (896) 
nan

>  <Num_Not_Resolved_Atoms>  (896) 
nan

$$$$
CHEMBL594371
     RDKit          3D

  0  0  0  0  0  0  0  0  0  0999 V3000
M  V30 BEGIN CTAB
M  V30 COUNTS 46 49 0 0 0
M  V30 BEGIN ATOM
M  V30 1 C -0.856208 -6.276577 0.824548 0
M  V30 2 C 0.227433 -5.473665 0.103148 0
M  V30 3 C 0.365762 -4.205858 0.904041 0
M  V30 4 C 1.269156 -4.157329 1.944708 0
M  V30 5 C 1.449670 -3.013847 2.730277 0
M  V30 6 C 0.681917 -1.907809 2.430449 0
M  V30 7 C -0.227601 -1.934912 1.393853 0
M  V30 8 C -1.100789 -0.849362 0.966655 0
M  V30 9 C -0.642442 0.359639 0.487461 0
M  V30 10 C 0.711226 0.865366 0.286215 0
M  V30 11 C 1.703462 0.386509 -0.542795 0
M  V30 12 C 2.931100 1.014323 -0.592556 0
M  V30 13 C 3.168820 2.127274 0.190525 0
M  V30 14 N 4.369383 2.733840 0.134941 0
M  V30 15 C 4.653731 3.831052 0.883655 0
M  V30 16 C 3.678184 4.341920 1.730778 0
M  V30 17 N 2.465983 3.727645 1.785438 0
M  V30 18 C 2.205480 2.641291 1.034635 0
M  V30 19 C 0.987305 1.995376 1.065746 0
M  V30 20 N -1.736808 1.119285 0.188634 0
M  V30 21 C -1.722022 2.483649 -0.351403 0
M  V30 22 N -2.827093 0.424979 0.465296 0
M  V30 23 C -4.184472 0.948599 0.260710 0
M  V30 24 C -2.461508 -0.780348 0.941685 0
M  V30 25 O -3.239974 -1.693810 1.304486 0
M  V30 26 C -0.394377 -3.087893 0.618831 0
M  V30 27 H -0.800228 -7.349230 0.600378 0
M  V30 28 H -0.630530 -6.150293 1.920512 0
M  V30 29 H -1.825958 -5.799115 0.661326 0
M  V30 30 H 1.163765 -6.019705 -0.007902 0
M  V30 31 H -0.203785 -5.169055 -0.873289 0
M  V30 32 H 1.893735 -5.003873 2.215587 0
M  V30 33 H 2.149849 -2.990044 3.529523 0
M  V30 34 H 0.745991 -0.988380 2.970768 0
M  V30 35 H 1.398488 -0.485961 -1.103185 0
M  V30 36 H 3.668794 0.591703 -1.261704 0
M  V30 37 H 5.596768 4.360932 0.882476 0
M  V30 38 H 3.752315 5.199136 2.382474 0
M  V30 39 H 0.265473 2.452985 1.756532 0
M  V30 40 H -0.709823 2.684564 -0.796151 0
M  V30 41 H -1.841675 3.247511 0.450654 0
M  V30 42 H -2.508241 2.613010 -1.131147 0
M  V30 43 H -4.939602 0.261244 0.687265 0
M  V30 44 H -4.304478 1.915133 0.826917 0
M  V30 45 H -4.376709 1.167049 -0.801333 0
M  V30 46 H -1.081171 -3.203413 -0.211760 0
M  V30 END ATOM
M  V30 BEGIN BOND
M  V30 1 1 1 2
M  V30 2 1 2 3
M  V30 3 2 3 4
M  V30 4 1 4 5
M  V30 5 2 5 6
M  V30 6 1 6 7
M  V30 7 1 7 8
M  V30 8 2 8 9
M  V30 9 1 9 10
M  V30 10 2 10 11
M  V30 11 1 11 12
M  V30 12 2 12 13
M  V30 13 1 13 14
M  V30 14 2 14 15
M  V30 15 1 15 16
M  V30 16 2 16 17
M  V30 17 1 17 18
M  V30 18 2 18 19
M  V30 19 1 9 20
M  V30 20 1 20 21
M  V30 21 1 20 22
M  V30 22 1 22 23
M  V30 23 1 22 24
M  V30 24 2 24 25
M  V30 25 2 7 26
M  V30 26 1 26 3
M  V30 27 1 24 8
M  V30 28 1 19 10
M  V30 29 1 18 13
M  V30 30 1 1 27
M  V30 31 1 1 28
M  V30 32 1 1 29
M  V30 33 1 2 30
M  V30 34 1 2 31
M  V30 35 1 4 32
M  V30 36 1 5 33
M  V30 37 1 6 34
M  V30 38 1 11 35
M  V30 39 1 12 36
M  V30 40 1 15 37
M  V30 41 1 16 38
M  V30 42 1 19 39
M  V30 43 1 21 40
M  V30 44 1 21 41
M  V30 45 1 21 42
M  V30 46 1 23 43
M  V30 47 1 23 44
M  V30 48 1 23 45
M  V30 49 1 26 46
M  V30 END BOND
M  V30 END CTAB
M  END
>  <Dataset>  (897) 
ChEMBL_Kinases

>  <Ligand_Instance>  (897) 
nan

>  <PDB_ID>  (897) 
nan

>  <Standardized_SMILES>  (897) 
CCc1cccc(-c2c(-c3ccc4nccnc4c3)n(C)n(C)c2=O)c1

>  <Name>  (897) 
nan

>  <Pocket>  (897) 
nan

>  <ATP_Site>  (897) 
nan

>  <Peripheral>  (897) 
nan

>  <Num_H_Atoms_ProtBoundConf>  (897) 
nan

>  <Num_Resolved_Atoms>  (897) 
nan

>  <Num_Not_Resolved_Atoms>  (897) 
nan

$$$$
CHEMBL594310
     RDKit          3D

  0  0  0  0  0  0  0  0  0  0999 V3000
M  V30 BEGIN CTAB
M  V30 COUNTS 59 64 0 0 0
M  V30 BEGIN ATOM
M  V30 1 C 0.233038 -4.793256 3.242143 0
M  V30 2 C 1.624219 -4.257940 3.082867 0
M  V30 3 N 2.690615 -4.451989 3.887863 0
M  V30 4 N 3.734295 -3.808102 3.395470 0
M  V30 5 C 3.334961 -3.194913 2.264101 0
M  V30 6 C 4.056087 -2.393727 1.376732 0
M  V30 7 C 3.383492 -1.894016 0.289598 0
M  V30 8 C 2.045095 -2.134784 0.022915 0
M  V30 9 C 1.434977 -1.544358 -1.176328 0
M  V30 10 C 0.438191 -0.654432 -0.848700 0
M  V30 11 C -0.273493 0.021802 -1.813710 0
M  V30 12 O -1.268168 0.931464 -1.979905 0
M  V30 13 C -1.973715 1.573315 -0.959567 0
M  V30 14 C -1.044617 2.437414 -0.150898 0 CFG=1
M  V30 15 N -0.480746 3.404026 -1.104858 0
M  V30 16 C -1.722346 3.239247 0.923548 0
M  V30 17 C -2.428640 2.433717 1.930362 0
M  V30 18 C -1.813355 2.123173 3.150686 0
M  V30 19 N -2.622323 1.360519 3.905285 0
M  V30 20 C -3.762570 1.142763 3.243032 0
M  V30 21 N -4.915543 0.473531 3.497272 0
M  V30 22 C -5.920961 0.449765 2.596322 0
M  V30 23 C -5.823844 1.105267 1.373743 0
M  V30 24 C -4.659596 1.780019 1.118111 0
M  V30 25 C -3.641645 1.798102 2.040380 0
M  V30 26 C 0.117145 -0.287938 -3.135820 0
M  V30 27 N 1.107503 -1.171992 -3.480129 0
M  V30 28 C 1.783344 -1.815872 -2.481023 0
M  V30 29 C 2.858619 -2.782224 -2.659442 0
M  V30 30 C 4.134784 -2.737692 -3.226107 0
M  V30 31 C 4.662632 -4.003252 -3.077871 0
M  V30 32 O 3.804955 -4.783376 -2.473459 0
M  V30 33 C 2.698556 -4.094037 -2.199057 0
M  V30 34 C 1.370804 -2.930566 0.924307 0
M  V30 35 C 2.004154 -3.455098 2.030945 0
M  V30 36 H 0.028308 -5.520224 2.423899 0
M  V30 37 H 0.156712 -5.386618 4.185932 0
M  V30 38 H -0.526589 -3.982536 3.209431 0
M  V30 39 H 4.706007 -3.752772 3.772762 0
M  V30 40 H 5.105416 -2.143818 1.492330 0
M  V30 41 H 3.917170 -1.274515 -0.407963 0
M  V30 42 H 0.071558 -0.376246 0.111565 0
M  V30 43 H -2.386171 0.782450 -0.259238 0
M  V30 44 H -2.805383 2.179222 -1.381302 0
M  V30 45 H -0.242528 1.865626 0.311366 0
M  V30 46 H -0.254228 2.867339 -1.981446 0
M  V30 47 H 0.349512 3.887457 -0.710378 0
M  V30 48 H -0.938078 3.888856 1.375199 0
M  V30 49 H -2.411353 3.949981 0.398684 0
M  V30 50 H -0.836375 2.392514 3.552295 0
M  V30 51 H -2.472729 0.959865 4.855941 0
M  V30 52 H -6.827463 -0.089598 2.822429 0
M  V30 53 H -6.669929 1.044953 0.696710 0
M  V30 54 H -4.567038 2.292749 0.188255 0
M  V30 55 H -0.232151 0.060726 -4.122061 0
M  V30 56 H 4.430845 -1.783136 -3.638883 0
M  V30 57 H 5.669774 -4.178797 -3.462547 0
M  V30 58 H 1.912395 -4.648454 -1.692921 0
M  V30 59 H 0.325285 -3.134521 0.740681 0
M  V30 END ATOM
M  V30 BEGIN BOND
M  V30 1 1 1 2
M  V30 2 2 2 3
M  V30 3 1 3 4
M  V30 4 1 4 5
M  V30 5 2 5 6
M  V30 6 1 6 7
M  V30 7 2 7 8
M  V30 8 1 8 9
M  V30 9 2 9 10
M  V30 10 1 10 11
M  V30 11 1 11 12
M  V30 12 1 12 13
M  V30 13 1 13 14
M  V30 14 1 14 15
M  V30 15 1 14 16
M  V30 16 1 16 17
M  V30 17 2 17 18
M  V30 18 1 18 19
M  V30 19 1 19 20
M  V30 20 2 20 21
M  V30 21 1 21 22
M  V30 22 2 22 23
M  V30 23 1 23 24
M  V30 24 2 24 25
M  V30 25 2 11 26
M  V30 26 1 26 27
M  V30 27 2 27 28
M  V30 28 1 28 29
M  V30 29 1 29 30
M  V30 30 2 30 31
M  V30 31 1 31 32
M  V30 32 1 32 33
M  V30 33 1 8 34
M  V30 34 2 34 35
M  V30 35 1 35 2
M  V30 36 1 35 5
M  V30 37 1 28 9
M  V30 38 2 33 29
M  V30 39 1 25 17
M  V30 40 1 25 20
M  V30 41 1 1 36
M  V30 42 1 1 37
M  V30 43 1 1 38
M  V30 44 1 4 39
M  V30 45 1 6 40
M  V30 46 1 7 41
M  V30 47 1 10 42
M  V30 48 1 13 43
M  V30 49 1 13 44
M  V30 50 1 14 45 CFG=1
M  V30 51 1 15 46
M  V30 52 1 15 47
M  V30 53 1 16 48
M  V30 54 1 16 49
M  V30 55 1 18 50
M  V30 56 1 19 51
M  V30 57 1 22 52
M  V30 58 1 23 53
M  V30 59 1 24 54
M  V30 60 1 26 55
M  V30 61 1 30 56
M  V30 62 1 31 57
M  V30 63 1 33 58
M  V30 64 1 34 59
M  V30 END BOND
M  V30 END CTAB
M  END
>  <Dataset>  (898) 
ChEMBL_Kinases

>  <Ligand_Instance>  (898) 
nan

>  <PDB_ID>  (898) 
nan

>  <Standardized_SMILES>  (898) 
Cc1n[nH]c2ccc(-c3cc(OC[C@@H](N)Cc4c[nH]c5ncccc45)cnc3-c3ccoc3)cc12

>  <Name>  (898) 
nan

>  <Pocket>  (898) 
nan

>  <ATP_Site>  (898) 
nan

>  <Peripheral>  (898) 
nan

>  <Num_H_Atoms_ProtBoundConf>  (898) 
nan

>  <Num_Resolved_Atoms>  (898) 
nan

>  <Num_Not_Resolved_Atoms>  (898) 
nan

$$$$
CHEMBL594309
     RDKit          3D

  0  0  0  0  0  0  0  0  0  0999 V3000
M  V30 BEGIN CTAB
M  V30 COUNTS 60 65 0 0 0
M  V30 BEGIN ATOM
M  V30 1 C 3.895348 1.815154 4.970893 0
M  V30 2 C 4.948994 1.436010 3.976758 0
M  V30 3 N 6.258478 1.818318 3.973015 0
M  V30 4 N 6.871471 1.278718 2.933261 0
M  V30 5 C 5.993974 0.538177 2.236203 0
M  V30 6 C 6.066896 -0.228215 1.098060 0
M  V30 7 C 4.986914 -0.907031 0.576062 0
M  V30 8 C 3.760318 -0.832821 1.204201 0
M  V30 9 C 2.496031 -1.456804 0.836231 0
M  V30 10 C 1.791719 -1.188812 -0.345372 0
M  V30 11 C 0.574149 -1.825102 -0.638739 0
M  V30 12 O 0.124895 -1.379158 -1.830931 0
M  V30 13 C -0.994825 -1.651877 -2.577913 0
M  V30 14 C -2.322219 -1.326292 -1.959708 0 CFG=1
M  V30 15 N -2.380632 0.075483 -1.672752 0
M  V30 16 C -3.399547 -1.764903 -2.934366 0
M  V30 17 C -4.771963 -1.505544 -2.456722 0
M  V30 18 C -5.519934 -2.547113 -1.900173 0
M  V30 19 N -6.728029 -2.065446 -1.522539 0
M  V30 20 C -6.813792 -0.754257 -1.803911 0
M  V30 21 C -7.765293 0.233442 -1.657154 0
M  V30 22 F -8.950386 -0.105107 -1.090202 0
M  V30 23 C -7.468385 1.517343 -2.092559 0
M  V30 24 C -6.261847 1.865110 -2.670375 0
M  V30 25 C -5.315040 0.864694 -2.811923 0
M  V30 26 C -5.601127 -0.410601 -2.382450 0
M  V30 27 C 0.134334 -2.719861 0.312298 0
M  V30 28 N 0.812148 -2.974305 1.444192 0
M  V30 29 C 1.977671 -2.371112 1.734890 0
M  V30 30 C 2.675311 -2.692099 2.996957 0
M  V30 31 C 1.954654 -2.422579 4.167082 0
M  V30 32 C 2.835548 -2.812371 5.182734 0
M  V30 33 O 3.958186 -3.264578 4.667168 0
M  V30 34 C 3.902841 -3.209334 3.355857 0
M  V30 35 C 3.670494 -0.060096 2.358615 0
M  V30 36 C 4.770311 0.618050 2.871189 0
M  V30 37 H 3.396051 0.936081 5.402850 0
M  V30 38 H 3.193528 2.505625 4.467223 0
M  V30 39 H 4.393606 2.337100 5.815297 0
M  V30 40 H 7.896277 1.417736 2.699013 0
M  V30 41 H 7.006784 -0.318682 0.568538 0
M  V30 42 H 4.973702 -1.523593 -0.308993 0
M  V30 43 H 2.333183 -0.453375 -0.934878 0
M  V30 44 H -0.972001 -2.731486 -2.912894 0
M  V30 45 H -0.897371 -1.093245 -3.556174 0
M  V30 46 H -2.419620 -1.849322 -0.986475 0
M  V30 47 H -2.166381 0.713439 -2.443946 0
M  V30 48 H -3.109270 0.360323 -1.005598 0
M  V30 49 H -3.218567 -1.159716 -3.870078 0
M  V30 50 H -3.250286 -2.810708 -3.258108 0
M  V30 51 H -5.244100 -3.593764 -1.760755 0
M  V30 52 H -7.515027 -2.597009 -1.072597 0
M  V30 53 H -8.261046 2.244346 -1.946881 0
M  V30 54 H -6.067854 2.877432 -2.997696 0
M  V30 55 H -4.378403 1.129069 -3.265207 0
M  V30 56 H -0.784922 -3.175314 0.036360 0
M  V30 57 H 0.970565 -2.020081 4.364792 0
M  V30 58 H 2.629173 -2.753000 6.243636 0
M  V30 59 H 4.523763 -3.445489 2.501247 0
M  V30 60 H 2.757223 0.073587 2.938318 0
M  V30 END ATOM
M  V30 BEGIN BOND
M  V30 1 1 1 2
M  V30 2 2 2 3
M  V30 3 1 3 4
M  V30 4 1 4 5
M  V30 5 2 5 6
M  V30 6 1 6 7
M  V30 7 2 7 8
M  V30 8 1 8 9
M  V30 9 2 9 10
M  V30 10 1 10 11
M  V30 11 1 11 12
M  V30 12 1 12 13
M  V30 13 1 13 14
M  V30 14 1 14 15
M  V30 15 1 14 16
M  V30 16 1 16 17
M  V30 17 2 17 18
M  V30 18 1 18 19
M  V30 19 1 19 20
M  V30 20 2 20 21
M  V30 21 1 21 22
M  V30 22 1 21 23
M  V30 23 2 23 24
M  V30 24 1 24 25
M  V30 25 2 25 26
M  V30 26 2 11 27
M  V30 27 1 27 28
M  V30 28 2 28 29
M  V30 29 1 29 30
M  V30 30 1 30 31
M  V30 31 2 31 32
M  V30 32 1 32 33
M  V30 33 1 33 34
M  V30 34 1 8 35
M  V30 35 2 35 36
M  V30 36 1 36 2
M  V30 37 1 36 5
M  V30 38 1 29 9
M  V30 39 2 34 30
M  V30 40 1 26 17
M  V30 41 1 26 20
M  V30 42 1 1 37
M  V30 43 1 1 38
M  V30 44 1 1 39
M  V30 45 1 4 40
M  V30 46 1 6 41
M  V30 47 1 7 42
M  V30 48 1 10 43
M  V30 49 1 13 44
M  V30 50 1 13 45
M  V30 51 1 14 46 CFG=1
M  V30 52 1 15 47
M  V30 53 1 15 48
M  V30 54 1 16 49
M  V30 55 1 16 50
M  V30 56 1 18 51
M  V30 57 1 19 52
M  V30 58 1 23 53
M  V30 59 1 24 54
M  V30 60 1 25 55
M  V30 61 1 27 56
M  V30 62 1 31 57
M  V30 63 1 32 58
M  V30 64 1 34 59
M  V30 65 1 35 60
M  V30 END BOND
M  V30 END CTAB
M  END
>  <Dataset>  (899) 
ChEMBL_Kinases

>  <Ligand_Instance>  (899) 
nan

>  <PDB_ID>  (899) 
nan

>  <Standardized_SMILES>  (899) 
Cc1n[nH]c2ccc(-c3cc(OC[C@@H](N)Cc4c[nH]c5c(F)cccc45)cnc3-c3ccoc3)cc12

>  <Name>  (899) 
nan

>  <Pocket>  (899) 
nan

>  <ATP_Site>  (899) 
nan

>  <Peripheral>  (899) 
nan

>  <Num_H_Atoms_ProtBoundConf>  (899) 
nan

>  <Num_Resolved_Atoms>  (899) 
nan

>  <Num_Not_Resolved_Atoms>  (899) 
nan

$$$$
CHEMBL385203
     RDKit          3D

  0  0  0  0  0  0  0  0  0  0999 V3000
M  V30 BEGIN CTAB
M  V30 COUNTS 47 49 0 0 0
M  V30 BEGIN ATOM
M  V30 1 C 2.304762 -1.068427 -1.657133 0
M  V30 2 C 3.472706 -0.117902 -1.566666 0
M  V30 3 C 4.045619 0.062682 -2.947213 0
M  V30 4 O 4.517326 -1.156931 -3.395862 0
M  V30 5 N 2.975291 1.146912 -1.076088 0
M  V30 6 C 2.538603 1.155670 0.135770 0
M  V30 7 N 2.627884 -0.089255 0.766759 0
M  V30 8 C 1.995438 2.274724 0.881375 0
M  V30 9 C 1.953775 3.454397 0.185546 0
M  V30 10 O 2.320536 3.805824 -1.102186 0
M  V30 11 N 1.432579 4.599865 0.877733 0
M  V30 12 S 1.012335 3.987086 2.495182 0
M  V30 13 C 1.548956 2.262100 2.158078 0
M  V30 14 N 1.520143 1.131422 2.987030 0
M  V30 15 C 0.283447 0.404526 3.132483 0
M  V30 16 C 0.198393 -0.789360 3.811074 0
M  V30 17 C -0.981467 -1.479202 3.967071 0
M  V30 18 C -2.151784 -0.986349 3.435683 0
M  V30 19 O -3.436409 -1.500152 3.469000 0
M  V30 20 C -3.907443 -2.336485 2.486844 0
M  V30 21 C -3.050807 -2.663495 1.442567 0
M  V30 22 C -3.387231 -3.492236 0.386423 0
M  V30 23 C -4.676131 -4.013470 0.405307 0
M  V30 24 C -5.536750 -3.693562 1.440847 0
M  V30 25 Cl -7.157149 -4.339015 1.482121 0
M  V30 26 C -5.174148 -2.857884 2.491298 0
M  V30 27 F -6.015366 -2.544907 3.503216 0
M  V30 28 C -2.091417 0.226883 2.739839 0
M  V30 29 C -0.892889 0.931860 2.578196 0
M  V30 30 H 2.055793 -1.254827 -2.732762 0
M  V30 31 H 2.546169 -2.066666 -1.227246 0
M  V30 32 H 1.406414 -0.625793 -1.204515 0
M  V30 33 H 4.204767 -0.583541 -0.876102 0
M  V30 34 H 3.228289 0.429094 -3.614313 0
M  V30 35 H 4.837000 0.840305 -2.986362 0
M  V30 36 H 4.000117 -1.914121 -3.017288 0
M  V30 37 H 2.829701 -0.690926 1.620093 0
M  V30 38 H 2.727586 -0.927782 1.331344 0
M  V30 39 H 1.666038 3.532894 -1.841281 0
M  V30 40 H 2.333038 0.751816 3.527023 0
M  V30 41 H 1.106777 -1.226371 4.253217 0
M  V30 42 H -1.105853 -2.405279 4.481591 0
M  V30 43 H -2.038656 -2.278624 1.386893 0
M  V30 44 H -2.706346 -3.735987 -0.416496 0
M  V30 45 H -5.002694 -4.675660 -0.402975 0
M  V30 46 H -2.947223 0.716292 2.278087 0
M  V30 47 H -0.839633 1.855587 2.048394 0
M  V30 END ATOM
M  V30 BEGIN BOND
M  V30 1 1 1 2
M  V30 2 1 2 3
M  V30 3 1 3 4
M  V30 4 1 2 5
M  V30 5 2 5 6
M  V30 6 1 6 7
M  V30 7 1 6 8
M  V30 8 1 8 9
M  V30 9 1 9 10
M  V30 10 2 9 11
M  V30 11 1 11 12
M  V30 12 1 12 13
M  V30 13 1 13 14
M  V30 14 1 14 15
M  V30 15 2 15 16
M  V30 16 1 16 17
M  V30 17 2 17 18
M  V30 18 1 18 19
M  V30 19 1 19 20
M  V30 20 2 20 21
M  V30 21 1 21 22
M  V30 22 2 22 23
M  V30 23 1 23 24
M  V30 24 1 24 25
M  V30 25 2 24 26
M  V30 26 1 26 27
M  V30 27 1 18 28
M  V30 28 2 28 29
M  V30 29 2 13 8
M  V30 30 1 29 15
M  V30 31 1 26 20
M  V30 32 1 1 30
M  V30 33 1 1 31
M  V30 34 1 1 32
M  V30 35 1 2 33
M  V30 36 1 3 34
M  V30 37 1 3 35
M  V30 38 1 4 36
M  V30 39 1 7 37
M  V30 40 1 7 38
M  V30 41 1 10 39
M  V30 42 1 14 40
M  V30 43 1 16 41
M  V30 44 1 17 42
M  V30 45 1 21 43
M  V30 46 1 22 44
M  V30 47 1 23 45
M  V30 48 1 28 46
M  V30 49 1 29 47
M  V30 END BOND
M  V30 END CTAB
M  END
>  <Dataset>  (900) 
ChEMBL_Kinases

>  <Ligand_Instance>  (900) 
nan

>  <PDB_ID>  (900) 
nan

>  <Standardized_SMILES>  (900) 
CC(CO)/N=C(\N)c1c(O)nsc1Nc1ccc(Oc2cccc(Cl)c2F)cc1

>  <Name>  (900) 
nan

>  <Pocket>  (900) 
nan

>  <ATP_Site>  (900) 
nan

>  <Peripheral>  (900) 
nan

>  <Num_H_Atoms_ProtBoundConf>  (900) 
nan

>  <Num_Resolved_Atoms>  (900) 
nan

>  <Num_Not_Resolved_Atoms>  (900) 
nan

$$$$
CHEMBL385194
     RDKit          3D

  0  0  0  0  0  0  0  0  0  0999 V3000
M  V30 BEGIN CTAB
M  V30 COUNTS 43 47 0 0 0
M  V30 BEGIN ATOM
M  V30 1 C 1.835022 -3.101273 2.559672 0
M  V30 2 C 2.103072 -3.455715 1.143672 0
M  V30 3 C 2.796492 -4.621937 0.875446 0
M  V30 4 C 3.068330 -4.990358 -0.439022 0
M  V30 5 C 2.617763 -4.146248 -1.440840 0
M  V30 6 C 1.921870 -2.975008 -1.183327 0
M  V30 7 C 1.445095 -2.079619 -2.273290 0
M  V30 8 C 1.656673 -2.618411 0.137497 0
M  V30 9 C 0.932221 -1.406137 0.503391 0
M  V30 10 C 1.654285 -0.249578 0.712512 0
M  V30 11 C 0.989000 0.908187 1.059310 0
M  V30 12 N 1.446972 2.147374 1.314619 0
M  V30 13 C 0.352283 2.909362 1.607906 0
M  V30 14 C 0.354161 4.250913 1.933223 0
M  V30 15 C -0.830595 4.909434 2.210329 0
M  V30 16 C -2.022131 4.176553 2.150507 0
M  V30 17 O -3.218755 4.824055 2.426116 0
M  V30 18 C -1.938377 2.844021 1.818898 0
M  V30 19 C -0.798016 2.156427 1.539135 0
M  V30 20 C -0.380496 0.907205 1.194689 0
M  V30 21 C -1.100044 -0.228197 0.990445 0
M  V30 22 C -0.451859 -1.388641 0.644690 0
M  V30 23 C -1.352940 -2.514465 0.460749 0
M  V30 24 O -1.068521 -3.697814 0.145457 0
M  V30 25 N -2.649121 -1.942345 0.727921 0
M  V30 26 C -2.492078 -0.572147 1.044834 0
M  V30 27 O -3.520158 0.042915 1.295877 0
M  V30 28 H 2.526577 -3.606529 3.246124 0
M  V30 29 H 2.009200 -2.006885 2.655330 0
M  V30 30 H 0.761859 -3.258680 2.821247 0
M  V30 31 H 3.143024 -5.274522 1.691903 0
M  V30 32 H 3.610831 -5.898842 -0.701991 0
M  V30 33 H 2.832929 -4.438061 -2.478559 0
M  V30 34 H 0.544263 -1.512192 -1.910111 0
M  V30 35 H 1.163516 -2.668709 -3.176888 0
M  V30 36 H 2.254281 -1.388100 -2.586885 0
M  V30 37 H 2.742641 -0.274593 0.598664 0
M  V30 38 H 2.447995 2.429928 1.284049 0
M  V30 39 H 1.272486 4.818008 1.979873 0
M  V30 40 H -0.783455 5.960201 2.460608 0
M  V30 41 H -3.517640 4.862990 3.390530 0
M  V30 42 H -2.881581 2.359055 1.794632 0
M  V30 43 H -3.502107 -2.571005 0.659848 0
M  V30 END ATOM
M  V30 BEGIN BOND
M  V30 1 1 1 2
M  V30 2 2 2 3
M  V30 3 1 3 4
M  V30 4 2 4 5
M  V30 5 1 5 6
M  V30 6 1 6 7
M  V30 7 2 6 8
M  V30 8 1 8 9
M  V30 9 2 9 10
M  V30 10 1 10 11
M  V30 11 1 11 12
M  V30 12 1 12 13
M  V30 13 2 13 14
M  V30 14 1 14 15
M  V30 15 2 15 16
M  V30 16 1 16 17
M  V30 17 1 16 18
M  V30 18 2 18 19
M  V30 19 1 19 20
M  V30 20 1 20 21
M  V30 21 2 21 22
M  V30 22 1 22 23
M  V30 23 2 23 24
M  V30 24 1 23 25
M  V30 25 1 25 26
M  V30 26 2 26 27
M  V30 27 1 8 2
M  V30 28 1 22 9
M  V30 29 2 20 11
M  V30 30 1 26 21
M  V30 31 1 19 13
M  V30 32 1 1 28
M  V30 33 1 1 29
M  V30 34 1 1 30
M  V30 35 1 3 31
M  V30 36 1 4 32
M  V30 37 1 5 33
M  V30 38 1 7 34
M  V30 39 1 7 35
M  V30 40 1 7 36
M  V30 41 1 10 37
M  V30 42 1 12 38
M  V30 43 1 14 39
M  V30 44 1 15 40
M  V30 45 1 17 41
M  V30 46 1 18 42
M  V30 47 1 25 43
M  V30 END BOND
M  V30 END CTAB
M  END
>  <Dataset>  (901) 
ChEMBL_Kinases

>  <Ligand_Instance>  (901) 
nan

>  <PDB_ID>  (901) 
nan

>  <Standardized_SMILES>  (901) 
Cc1cccc(C)c1-c1cc2[nH]c3ccc(O)cc3c2c2c1C(=O)NC2=O

>  <Name>  (901) 
nan

>  <Pocket>  (901) 
nan

>  <ATP_Site>  (901) 
nan

>  <Peripheral>  (901) 
nan

>  <Num_H_Atoms_ProtBoundConf>  (901) 
nan

>  <Num_Resolved_Atoms>  (901) 
nan

>  <Num_Not_Resolved_Atoms>  (901) 
nan

$$$$
CHEMBL385143
     RDKit          3D

  0  0  0  0  0  0  0  0  0  0999 V3000
M  V30 BEGIN CTAB
M  V30 COUNTS 50 52 0 0 0
M  V30 BEGIN ATOM
M  V30 1 C -5.213226 3.870274 -4.224384 0
M  V30 2 N -6.488951 3.198025 -4.065489 0
M  V30 3 C -6.641616 1.959921 -3.387702 0
M  V30 4 N -7.853534 1.390973 -3.256620 0
M  V30 5 C -8.008290 0.228767 -2.622454 0
M  V30 6 C -6.934491 -0.428488 -2.080390 0
M  V30 7 C -5.657414 0.138686 -2.201037 0
M  V30 8 C -4.368532 -0.348086 -1.729456 0
M  V30 9 C -4.066661 -1.454466 -1.075310 0
M  V30 10 C -2.816083 -1.816308 -0.679329 0
M  V30 11 C -1.830221 -0.914802 -1.018785 0
M  V30 12 C -0.361425 -0.673112 -0.917663 0
M  V30 13 O 0.120301 0.353905 -1.407677 0
M  V30 14 N 0.447363 -1.620060 -0.263647 0
M  V30 15 C 1.905699 -1.354490 -0.173502 0 CFG=2
M  V30 16 C 2.587378 -2.424509 -0.942076 0
M  V30 17 C 2.275175 -3.824611 -0.585440 0
M  V30 18 N 2.464199 -4.298019 0.721697 0
M  V30 19 C 2.386263 -0.957325 1.156397 0
M  V30 20 C 3.818624 -0.599469 1.120187 0
M  V30 21 C 3.944440 0.776214 0.809230 0
M  V30 22 C 5.131675 1.502691 0.619226 0
M  V30 23 C 6.309617 0.812404 0.746731 0
M  V30 24 Cl 7.861746 1.581772 0.538428 0
M  V30 25 C 6.259461 -0.525989 1.048741 0
M  V30 26 C 5.052528 -1.129701 1.212472 0
M  V30 27 Cl 5.052688 -2.797488 1.667645 0
M  V30 28 S -2.784444 0.445064 -1.915444 0
M  V30 29 N -5.586712 1.330272 -2.864880 0
M  V30 30 H -4.711651 3.569378 -5.167379 0
M  V30 31 H -4.560220 3.723594 -3.359380 0
M  V30 32 H -5.363921 4.983926 -4.313525 0
M  V30 33 H -7.310893 3.682211 -4.486399 0
M  V30 34 H -8.935895 -0.303393 -2.467355 0
M  V30 35 H -6.846091 -1.372561 -1.532393 0
M  V30 36 H -4.858207 -2.171299 -0.808395 0
M  V30 37 H -2.419910 -2.663066 -0.151697 0
M  V30 38 H -0.026722 -2.460949 0.122798 0
M  V30 39 H 2.092932 -0.410934 -0.816679 0
M  V30 40 H 3.691565 -2.220779 -0.933293 0
M  V30 41 H 2.308934 -2.279822 -2.021899 0
M  V30 42 H 2.825375 -4.464505 -1.351309 0
M  V30 43 H 1.191084 -4.053081 -0.855791 0
M  V30 44 H 2.429029 -5.352424 0.687408 0
M  V30 45 H 1.719765 -4.043023 1.402664 0
M  V30 46 H 2.206571 -1.758166 1.942839 0
M  V30 47 H 1.806608 -0.095263 1.520044 0
M  V30 48 H 3.098057 1.466515 0.672683 0
M  V30 49 H 5.182596 2.546465 0.382737 0
M  V30 50 H 7.160128 -1.091128 1.156335 0
M  V30 END ATOM
M  V30 BEGIN BOND
M  V30 1 1 1 2
M  V30 2 1 2 3
M  V30 3 2 3 4
M  V30 4 1 4 5
M  V30 5 2 5 6
M  V30 6 1 6 7
M  V30 7 1 7 8
M  V30 8 2 8 9
M  V30 9 1 9 10
M  V30 10 2 10 11
M  V30 11 1 11 12
M  V30 12 2 12 13
M  V30 13 1 12 14
M  V30 14 1 14 15
M  V30 15 1 15 16
M  V30 16 1 16 17
M  V30 17 1 17 18
M  V30 18 1 15 19
M  V30 19 1 19 20
M  V30 20 2 20 21
M  V30 21 1 21 22
M  V30 22 2 22 23
M  V30 23 1 23 24
M  V30 24 1 23 25
M  V30 25 2 25 26
M  V30 26 1 26 27
M  V30 27 1 11 28
M  V30 28 2 7 29
M  V30 29 1 29 3
M  V30 30 1 28 8
M  V30 31 1 26 20
M  V30 32 1 1 30
M  V30 33 1 1 31
M  V30 34 1 1 32
M  V30 35 1 2 33
M  V30 36 1 5 34
M  V30 37 1 6 35
M  V30 38 1 9 36
M  V30 39 1 10 37
M  V30 40 1 14 38
M  V30 41 1 15 39 CFG=3
M  V30 42 1 16 40
M  V30 43 1 16 41
M  V30 44 1 17 42
M  V30 45 1 17 43
M  V30 46 1 18 44
M  V30 47 1 18 45
M  V30 48 1 19 46
M  V30 49 1 19 47
M  V30 50 1 21 48
M  V30 51 1 22 49
M  V30 52 1 25 50
M  V30 END BOND
M  V30 END CTAB
M  END
>  <Dataset>  (902) 
ChEMBL_Kinases

>  <Ligand_Instance>  (902) 
nan

>  <PDB_ID>  (902) 
nan

>  <Standardized_SMILES>  (902) 
CNc1nccc(-c2ccc(C(=O)N[C@H](CCN)Cc3ccc(Cl)cc3Cl)s2)n1

>  <Name>  (902) 
nan

>  <Pocket>  (902) 
nan

>  <ATP_Site>  (902) 
nan

>  <Peripheral>  (902) 
nan

>  <Num_H_Atoms_ProtBoundConf>  (902) 
nan

>  <Num_Resolved_Atoms>  (902) 
nan

>  <Num_Not_Resolved_Atoms>  (902) 
nan

$$$$
CHEMBL385138
     RDKit          3D

  0  0  0  0  0  0  0  0  0  0999 V3000
M  V30 BEGIN CTAB
M  V30 COUNTS 51 53 0 0 0
M  V30 BEGIN ATOM
M  V30 1 C 0.088792 -2.820102 4.015840 0
M  V30 2 O 1.294284 -2.158233 4.333722 0
M  V30 3 C 1.311596 -1.055212 3.449807 0
M  V30 4 C 2.538578 -0.199415 3.623576 0 CFG=2
M  V30 5 C 2.507884 0.364787 5.036273 0
M  V30 6 N 2.575305 0.942440 2.720760 0
M  V30 7 C 2.544866 0.357471 1.445289 0
M  V30 8 N 3.744898 0.031901 0.927391 0
M  V30 9 C 3.852060 -0.534982 -0.287597 0
M  V30 10 C 2.725848 -0.793669 -1.027379 0
M  V30 11 C 1.481422 -0.467358 -0.514874 0
M  V30 12 N 0.238746 -0.686571 -1.180062 0
M  V30 13 C -1.117755 -0.418802 -0.853111 0
M  V30 14 O -2.035390 -0.746161 -1.672420 0
M  V30 15 N -1.598863 0.196197 0.326026 0
M  V30 16 C -2.892522 0.513910 0.765598 0
M  V30 17 C -4.078037 0.272974 0.112906 0
M  V30 18 C -5.345640 0.590068 0.549512 0
M  V30 19 C -5.421800 1.220036 1.781920 0
M  V30 20 C -4.281735 1.493035 2.491014 0
M  V30 21 C -3.054763 1.141501 1.980206 0
M  V30 22 Cl -1.675036 1.544515 2.976174 0
M  V30 23 C 0.444456 -1.322349 -2.466000 0
M  V30 24 C 0.637383 -0.660888 -3.642663 0
M  V30 25 C 0.824471 -1.374982 -4.816517 0
M  V30 26 C 0.821315 -2.770756 -4.830905 0
M  V30 27 F 1.008638 -3.408585 -6.003194 0
M  V30 28 C 0.624754 -3.431330 -3.631701 0
M  V30 29 C 0.440585 -2.715245 -2.475804 0
M  V30 30 N 1.465861 0.093693 0.701544 0
M  V30 31 H -0.013289 -3.701433 4.659671 0
M  V30 32 H 0.045094 -3.034293 2.929158 0
M  V30 33 H -0.797882 -2.169183 4.239666 0
M  V30 34 H 0.405895 -0.474887 3.718896 0
M  V30 35 H 1.174050 -1.481178 2.457339 0
M  V30 36 H 3.471106 -0.789705 3.566644 0
M  V30 37 H 1.917391 -0.314024 5.688964 0
M  V30 38 H 2.017810 1.361723 5.004621 0
M  V30 39 H 3.549707 0.500439 5.411028 0
M  V30 40 H 2.615712 1.995959 2.848028 0
M  V30 41 H 4.772595 -0.825734 -0.774883 0
M  V30 42 H 2.759830 -1.246212 -2.005496 0
M  V30 43 H -0.806969 0.444468 0.962109 0
M  V30 44 H -4.063736 -0.215695 -0.848030 0
M  V30 45 H -6.228502 0.376158 -0.005285 0
M  V30 46 H -6.378716 1.494730 2.182209 0
M  V30 47 H -4.392390 1.981474 3.438243 0
M  V30 48 H 0.631313 0.406225 -3.579230 0
M  V30 49 H 0.976327 -0.817423 -5.743472 0
M  V30 50 H 0.629367 -4.496517 -3.684578 0
M  V30 51 H 0.292789 -3.319486 -1.576272 0
M  V30 END ATOM
M  V30 BEGIN BOND
M  V30 1 1 1 2
M  V30 2 1 2 3
M  V30 3 1 3 4
M  V30 4 1 4 5
M  V30 5 1 4 6
M  V30 6 1 6 7
M  V30 7 2 7 8
M  V30 8 1 8 9
M  V30 9 2 9 10
M  V30 10 1 10 11
M  V30 11 1 11 12
M  V30 12 1 12 13
M  V30 13 2 13 14
M  V30 14 1 13 15
M  V30 15 1 15 16
M  V30 16 2 16 17
M  V30 17 1 17 18
M  V30 18 2 18 19
M  V30 19 1 19 20
M  V30 20 2 20 21
M  V30 21 1 21 22
M  V30 22 1 12 23
M  V30 23 2 23 24
M  V30 24 1 24 25
M  V30 25 2 25 26
M  V30 26 1 26 27
M  V30 27 1 26 28
M  V30 28 2 28 29
M  V30 29 2 11 30
M  V30 30 1 30 7
M  V30 31 1 21 16
M  V30 32 1 29 23
M  V30 33 1 1 31
M  V30 34 1 1 32
M  V30 35 1 1 33
M  V30 36 1 3 34
M  V30 37 1 3 35
M  V30 38 1 4 36 CFG=1
M  V30 39 1 5 37
M  V30 40 1 5 38
M  V30 41 1 5 39
M  V30 42 1 6 40
M  V30 43 1 9 41
M  V30 44 1 10 42
M  V30 45 1 15 43
M  V30 46 1 17 44
M  V30 47 1 18 45
M  V30 48 1 19 46
M  V30 49 1 20 47
M  V30 50 1 24 48
M  V30 51 1 25 49
M  V30 52 1 28 50
M  V30 53 1 29 51
M  V30 END BOND
M  V30 END CTAB
M  END
>  <Dataset>  (903) 
ChEMBL_Kinases

>  <Ligand_Instance>  (903) 
nan

>  <PDB_ID>  (903) 
nan

>  <Standardized_SMILES>  (903) 
COC[C@H](C)Nc1nccc(N(C(=O)Nc2ccccc2Cl)c2ccc(F)cc2)n1

>  <Name>  (903) 
nan

>  <Pocket>  (903) 
nan

>  <ATP_Site>  (903) 
nan

>  <Peripheral>  (903) 
nan

>  <Num_H_Atoms_ProtBoundConf>  (903) 
nan

>  <Num_Resolved_Atoms>  (903) 
nan

>  <Num_Not_Resolved_Atoms>  (903) 
nan

$$$$
CHEMBL385070
     RDKit          3D

  0  0  0  0  0  0  0  0  0  0999 V3000
M  V30 BEGIN CTAB
M  V30 COUNTS 45 49 0 0 0
M  V30 BEGIN ATOM
M  V30 1 O 0.542935 -4.497025 3.351859 0
M  V30 2 C 0.703399 -3.428864 2.750019 0
M  V30 3 C 1.869054 -2.587056 2.480170 0
M  V30 4 C 3.179304 -2.759694 2.893313 0
M  V30 5 C 4.101418 -1.776734 2.539330 0
M  V30 6 C 3.734884 -0.658227 1.797723 0
M  V30 7 C 2.418549 -0.501604 1.391263 0
M  V30 8 C 2.036075 0.681491 0.595369 0
M  V30 9 N 1.477557 0.582823 -0.597419 0
M  V30 10 C 1.110766 1.652281 -1.355507 0
M  V30 11 C 0.550281 1.371588 -2.567134 0
M  V30 12 C 0.184149 2.452194 -3.334296 0
M  V30 13 C 0.373942 3.761878 -2.899525 0
M  V30 14 C 0.951609 3.968039 -1.652326 0
M  V30 15 C 1.336319 2.915796 -0.844930 0
M  V30 16 N 1.902170 3.051016 0.366135 0
M  V30 17 C 2.258574 1.966434 1.101199 0
M  V30 18 O 2.836265 2.178220 2.340733 0
M  V30 19 C 1.505678 -1.478783 1.744008 0
M  V30 20 C 0.060363 -1.538207 1.398266 0
M  V30 21 N -0.364113 -2.727804 2.123014 0
M  V30 22 C -1.817533 -2.963391 2.085486 0
M  V30 23 C -2.560976 -1.763329 2.601624 0
M  V30 24 C -3.279071 -1.110416 1.453879 0
M  V30 25 C -2.882223 -1.855590 0.204766 0
M  V30 26 C -2.329055 -3.188925 0.686098 0
M  V30 27 H 3.453612 -3.618877 3.461054 0
M  V30 28 H 5.136407 -1.882113 2.850798 0
M  V30 29 H 4.435266 0.119505 1.510382 0
M  V30 30 H 0.413714 0.346135 -2.883594 0
M  V30 31 H -0.265108 2.222721 -4.298898 0
M  V30 32 H 0.075916 4.596735 -3.520232 0
M  V30 33 H 1.107024 4.972826 -1.301716 0
M  V30 34 H 2.611079 1.611283 3.150924 0
M  V30 35 H 0.024087 -1.814466 0.312797 0
M  V30 36 H -0.502186 -0.634088 1.642149 0
M  V30 37 H -2.033564 -3.853264 2.678800 0
M  V30 38 H -3.316282 -2.106188 3.333379 0
M  V30 39 H -1.895516 -1.057131 3.145972 0
M  V30 40 H -4.400178 -1.144839 1.608735 0
M  V30 41 H -3.054233 -0.028887 1.424317 0
M  V30 42 H -2.187201 -1.309252 -0.446776 0
M  V30 43 H -3.824160 -2.005034 -0.379753 0
M  V30 44 H -1.623006 -3.657543 0.006717 0
M  V30 45 H -3.227157 -3.876639 0.771975 0
M  V30 END ATOM
M  V30 BEGIN BOND
M  V30 1 2 1 2
M  V30 2 1 2 3
M  V30 3 2 3 4
M  V30 4 1 4 5
M  V30 5 2 5 6
M  V30 6 1 6 7
M  V30 7 1 7 8
M  V30 8 2 8 9
M  V30 9 1 9 10
M  V30 10 2 10 11
M  V30 11 1 11 12
M  V30 12 2 12 13
M  V30 13 1 13 14
M  V30 14 2 14 15
M  V30 15 1 15 16
M  V30 16 2 16 17
M  V30 17 1 17 18
M  V30 18 2 7 19
M  V30 19 1 19 20
M  V30 20 1 20 21
M  V30 21 1 21 22
M  V30 22 1 22 23
M  V30 23 1 23 24
M  V30 24 1 24 25
M  V30 25 1 25 26
M  V30 26 1 21 2
M  V30 27 1 26 22
M  V30 28 1 19 3
M  V30 29 1 17 8
M  V30 30 1 15 10
M  V30 31 1 4 27
M  V30 32 1 5 28
M  V30 33 1 6 29
M  V30 34 1 11 30
M  V30 35 1 12 31
M  V30 36 1 13 32
M  V30 37 1 14 33
M  V30 38 1 18 34
M  V30 39 1 20 35
M  V30 40 1 20 36
M  V30 41 1 22 37
M  V30 42 1 23 38
M  V30 43 1 23 39
M  V30 44 1 24 40
M  V30 45 1 24 41
M  V30 46 1 25 42
M  V30 47 1 25 43
M  V30 48 1 26 44
M  V30 49 1 26 45
M  V30 END BOND
M  V30 END CTAB
M  END
>  <Dataset>  (904) 
ChEMBL_Kinases

>  <Ligand_Instance>  (904) 
nan

>  <PDB_ID>  (904) 
nan

>  <Standardized_SMILES>  (904) 
O=C1c2cccc(-c3nc4ccccc4nc3O)c2CN1C1CCCC1

>  <Name>  (904) 
nan

>  <Pocket>  (904) 
nan

>  <ATP_Site>  (904) 
nan

>  <Peripheral>  (904) 
nan

>  <Num_H_Atoms_ProtBoundConf>  (904) 
nan

>  <Num_Resolved_Atoms>  (904) 
nan

>  <Num_Not_Resolved_Atoms>  (904) 
nan

$$$$
CHEMBL385059
     RDKit          3D

  0  0  0  0  0  0  0  0  0  0999 V3000
M  V30 BEGIN CTAB
M  V30 COUNTS 50 52 0 0 0
M  V30 BEGIN ATOM
M  V30 1 C -0.390213 0.186632 2.930722 0
M  V30 2 C 0.469122 -0.995834 2.550199 0
M  V30 3 C 1.916442 -0.641095 2.389189 0
M  V30 4 C 2.516587 -0.079451 3.659170 0
M  V30 5 O 1.870061 1.098171 4.049545 0
M  V30 6 N 2.013153 0.292639 1.289006 0
M  V30 7 C 3.125916 0.495556 0.681521 0
M  V30 8 N 4.223818 -0.253068 1.166234 0
M  V30 9 C 3.113151 1.450737 -0.412280 0
M  V30 10 C 4.279128 1.669678 -1.061974 0
M  V30 11 O 5.566589 1.170291 -0.920759 0
M  V30 12 N 4.357096 2.552035 -2.110233 0
M  V30 13 S 2.640416 3.145543 -2.214747 0
M  V30 14 C 2.055594 2.167746 -0.883775 0
M  V30 15 N 0.722596 2.140946 -0.383149 0
M  V30 16 C -0.329052 1.229176 -0.680638 0
M  V30 17 C -1.607229 1.418104 -0.224162 0
M  V30 18 C -2.581654 0.492674 -0.537037 0
M  V30 19 C -2.327245 -0.633453 -1.300286 0
M  V30 20 O -3.267483 -1.592022 -1.642565 0
M  V30 21 C -3.508062 -2.709191 -0.829788 0
M  V30 22 C -2.858684 -2.966789 0.357092 0
M  V30 23 C -3.111654 -4.065942 1.133781 0
M  V30 24 Cl -2.194777 -4.250295 2.622475 0
M  V30 25 C -4.072460 -4.972184 0.707902 0
M  V30 26 C -4.746065 -4.733704 -0.493385 0
M  V30 27 C -4.463540 -3.610430 -1.253466 0
M  V30 28 Cl -5.380100 -3.436174 -2.734258 0
M  V30 29 C -1.024943 -0.831768 -1.769298 0
M  V30 30 C -0.058619 0.095756 -1.453209 0
M  V30 31 H -1.382335 0.101170 2.441149 0
M  V30 32 H 0.026978 1.153676 2.538357 0
M  V30 33 H -0.576190 0.239411 4.022118 0
M  V30 34 H 0.091809 -1.399114 1.595862 0
M  V30 35 H 0.306062 -1.784574 3.315598 0
M  V30 36 H 2.452342 -1.597117 2.187340 0
M  V30 37 H 3.582538 0.186210 3.525592 0
M  V30 38 H 2.491895 -0.846399 4.471334 0
M  V30 39 H 2.332910 1.869406 3.672460 0
M  V30 40 H 5.131374 -0.045544 1.643743 0
M  V30 41 H 4.072222 -1.287415 0.995181 0
M  V30 42 H 5.866368 0.323531 -1.397081 0
M  V30 43 H 0.565989 2.912362 0.276171 0
M  V30 44 H -1.854395 2.272848 0.369163 0
M  V30 45 H -3.592744 0.633092 -0.183044 0
M  V30 46 H -2.114160 -2.235674 0.657975 0
M  V30 47 H -4.236772 -5.819996 1.352500 0
M  V30 48 H -5.491718 -5.476269 -0.782971 0
M  V30 49 H -0.695767 -1.663566 -2.369941 0
M  V30 50 H 0.977225 -0.011756 -1.794071 0
M  V30 END ATOM
M  V30 BEGIN BOND
M  V30 1 1 1 2
M  V30 2 1 2 3
M  V30 3 1 3 4
M  V30 4 1 4 5
M  V30 5 1 3 6
M  V30 6 2 6 7
M  V30 7 1 7 8
M  V30 8 1 7 9
M  V30 9 1 9 10
M  V30 10 1 10 11
M  V30 11 2 10 12
M  V30 12 1 12 13
M  V30 13 1 13 14
M  V30 14 1 14 15
M  V30 15 1 15 16
M  V30 16 2 16 17
M  V30 17 1 17 18
M  V30 18 2 18 19
M  V30 19 1 19 20
M  V30 20 1 20 21
M  V30 21 2 21 22
M  V30 22 1 22 23
M  V30 23 1 23 24
M  V30 24 2 23 25
M  V30 25 1 25 26
M  V30 26 2 26 27
M  V30 27 1 27 28
M  V30 28 1 19 29
M  V30 29 2 29 30
M  V30 30 2 14 9
M  V30 31 1 30 16
M  V30 32 1 27 21
M  V30 33 1 1 31
M  V30 34 1 1 32
M  V30 35 1 1 33
M  V30 36 1 2 34
M  V30 37 1 2 35
M  V30 38 1 3 36
M  V30 39 1 4 37
M  V30 40 1 4 38
M  V30 41 1 5 39
M  V30 42 1 8 40
M  V30 43 1 8 41
M  V30 44 1 11 42
M  V30 45 1 15 43
M  V30 46 1 17 44
M  V30 47 1 18 45
M  V30 48 1 22 46
M  V30 49 1 25 47
M  V30 50 1 26 48
M  V30 51 1 29 49
M  V30 52 1 30 50
M  V30 END BOND
M  V30 END CTAB
M  END
>  <Dataset>  (905) 
ChEMBL_Kinases

>  <Ligand_Instance>  (905) 
nan

>  <PDB_ID>  (905) 
nan

>  <Standardized_SMILES>  (905) 
CCC(CO)/N=C(\N)c1c(O)nsc1Nc1ccc(Oc2cc(Cl)ccc2Cl)cc1

>  <Name>  (905) 
nan

>  <Pocket>  (905) 
nan

>  <ATP_Site>  (905) 
nan

>  <Peripheral>  (905) 
nan

>  <Num_H_Atoms_ProtBoundConf>  (905) 
nan

>  <Num_Resolved_Atoms>  (905) 
nan

>  <Num_Not_Resolved_Atoms>  (905) 
nan

$$$$
CHEMBL385055
     RDKit          3D

  0  0  0  0  0  0  0  0  0  0999 V3000
M  V30 BEGIN CTAB
M  V30 COUNTS 65 69 0 0 0
M  V30 BEGIN ATOM
M  V30 1 C 7.308265 -0.228647 5.329526 0
M  V30 2 N 6.585082 1.012889 5.215904 0
M  V30 3 C 5.487480 1.068612 4.335807 0
M  V30 4 N 5.119474 -0.006187 3.617266 0
M  V30 5 C 4.086492 -0.029409 2.759893 0
M  V30 6 C 3.364690 1.134230 2.617701 0
M  V30 7 C 2.280197 1.229026 1.763753 0
M  V30 8 C 1.531102 2.399624 1.601893 0
M  V30 9 C 0.433442 2.264017 0.650497 0
M  V30 10 C -0.376002 1.151539 0.728470 0
M  V30 11 C -1.432240 0.953562 -0.131617 0
M  V30 12 C -2.227965 -0.257492 0.035253 0
M  V30 13 O -1.929922 -1.073503 0.945134 0
M  V30 14 N -3.338887 -0.613071 -0.754332 0
M  V30 15 C -3.877674 -1.876048 -0.301921 0
M  V30 16 C -4.868755 -1.876829 0.683614 0
M  V30 17 C -5.353412 -3.124346 1.083385 0
M  V30 18 C -6.413245 -3.136309 2.136516 0
M  V30 19 F -5.774071 -3.074445 3.369527 0
M  V30 20 F -7.065505 -4.351740 2.038824 0
M  V30 21 F -7.266154 -2.058513 1.978977 0
M  V30 22 C -4.856535 -4.255924 0.514689 0
M  V30 23 C -3.880959 -4.264198 -0.456033 0
M  V30 24 C -3.393144 -3.044062 -0.860755 0
M  V30 25 N -2.390831 -2.942722 -1.850916 0
M  V30 26 C -0.944783 -2.895440 -2.093922 0
M  V30 27 C -1.278219 -3.608879 -3.384711 0
M  V30 28 C -0.375662 -3.265611 -4.529737 0
M  V30 29 C -1.507801 -5.091027 -3.241708 0
M  V30 30 C -2.537894 -2.825842 -3.280974 0
M  V30 31 O -3.390989 -2.280679 -4.053992 0
M  V30 32 C -1.733039 1.866917 -1.120510 0
M  V30 33 C -0.931759 2.983106 -1.209184 0
M  V30 34 C 0.119796 3.165575 -0.341787 0
M  V30 35 C 0.954649 4.374729 -0.473285 0
M  V30 36 C 1.918373 3.495290 2.344357 0
M  V30 37 C 2.999495 3.400132 3.195352 0
M  V30 38 C 3.732846 2.242894 3.349409 0
M  V30 39 N 4.785292 2.229157 4.208505 0
M  V30 40 H 8.270711 -0.122831 5.873623 0
M  V30 41 H 6.724808 -0.981712 5.920861 0
M  V30 42 H 7.541050 -0.689838 4.340707 0
M  V30 43 H 6.866303 1.846115 5.769410 0
M  V30 44 H 3.819020 -0.907673 2.199957 0
M  V30 45 H 2.062116 0.312035 1.229432 0
M  V30 46 H -0.152527 0.412034 1.509941 0
M  V30 47 H -3.629308 0.028736 -1.523615 0
M  V30 48 H -5.216452 -0.945823 1.090808 0
M  V30 49 H -5.255282 -5.202158 0.848962 0
M  V30 50 H -3.475124 -5.159073 -0.918579 0
M  V30 51 H -0.682979 -1.846402 -2.312669 0
M  V30 52 H -0.333375 -3.435626 -1.367637 0
M  V30 53 H -0.882300 -2.686752 -5.322254 0
M  V30 54 H 0.107148 -4.173083 -4.944977 0
M  V30 55 H 0.459896 -2.642585 -4.130691 0
M  V30 56 H -1.085253 -5.447348 -2.275162 0
M  V30 57 H -2.604824 -5.304405 -3.274487 0
M  V30 58 H -1.072013 -5.646010 -4.087857 0
M  V30 59 H -2.553014 1.735146 -1.805131 0
M  V30 60 H -1.138640 3.722737 -1.974974 0
M  V30 61 H 1.982627 4.177815 -0.113592 0
M  V30 62 H 0.478311 5.199268 0.087865 0
M  V30 63 H 0.995746 4.691680 -1.543988 0
M  V30 64 H 1.302126 4.362106 2.175628 0
M  V30 65 H 3.228939 4.305461 3.734342 0
M  V30 END ATOM
M  V30 BEGIN BOND
M  V30 1 1 1 2
M  V30 2 1 2 3
M  V30 3 2 3 4
M  V30 4 1 4 5
M  V30 5 2 5 6
M  V30 6 1 6 7
M  V30 7 2 7 8
M  V30 8 1 8 9
M  V30 9 2 9 10
M  V30 10 1 10 11
M  V30 11 1 11 12
M  V30 12 2 12 13
M  V30 13 1 12 14
M  V30 14 1 14 15
M  V30 15 2 15 16
M  V30 16 1 16 17
M  V30 17 1 17 18
M  V30 18 1 18 19
M  V30 19 1 18 20
M  V30 20 1 18 21
M  V30 21 2 17 22
M  V30 22 1 22 23
M  V30 23 2 23 24
M  V30 24 1 24 25
M  V30 25 1 25 26
M  V30 26 1 26 27
M  V30 27 1 27 28
M  V30 28 1 27 29
M  V30 29 1 27 30
M  V30 30 2 30 31
M  V30 31 2 11 32
M  V30 32 1 32 33
M  V30 33 2 33 34
M  V30 34 1 34 35
M  V30 35 1 8 36
M  V30 36 2 36 37
M  V30 37 1 37 38
M  V30 38 2 38 39
M  V30 39 1 39 3
M  V30 40 1 38 6
M  V30 41 1 34 9
M  V30 42 1 24 15
M  V30 43 1 30 25
M  V30 44 1 1 40
M  V30 45 1 1 41
M  V30 46 1 1 42
M  V30 47 1 2 43
M  V30 48 1 5 44
M  V30 49 1 7 45
M  V30 50 1 10 46
M  V30 51 1 14 47
M  V30 52 1 16 48
M  V30 53 1 22 49
M  V30 54 1 23 50
M  V30 55 1 26 51
M  V30 56 1 26 52
M  V30 57 1 28 53
M  V30 58 1 28 54
M  V30 59 1 28 55
M  V30 60 1 29 56
M  V30 61 1 29 57
M  V30 62 1 29 58
M  V30 63 1 32 59
M  V30 64 1 33 60
M  V30 65 1 35 61
M  V30 66 1 35 62
M  V30 67 1 35 63
M  V30 68 1 36 64
M  V30 69 1 37 65
M  V30 END BOND
M  V30 END CTAB
M  END
>  <Dataset>  (906) 
ChEMBL_Kinases

>  <Ligand_Instance>  (906) 
nan

>  <PDB_ID>  (906) 
nan

>  <Standardized_SMILES>  (906) 
CNc1ncc2cc(-c3cc(C(=O)Nc4cc(C(F)(F)F)ccc4N4CC(C)(C)C4=O)ccc3C)ccc2n1

>  <Name>  (906) 
nan

>  <Pocket>  (906) 
nan

>  <ATP_Site>  (906) 
nan

>  <Peripheral>  (906) 
nan

>  <Num_H_Atoms_ProtBoundConf>  (906) 
nan

>  <Num_Resolved_Atoms>  (906) 
nan

>  <Num_Not_Resolved_Atoms>  (906) 
nan

$$$$
CHEMBL493745
     RDKit          3D

  0  0  0  0  0  0  0  0  0  0999 V3000
M  V30 BEGIN CTAB
M  V30 COUNTS 35 38 0 0 0
M  V30 BEGIN ATOM
M  V30 1 C -0.651083 -3.333249 4.935485 0
M  V30 2 N -1.365533 -2.110294 4.542401 0
M  V30 3 C -1.067066 -1.407837 3.327695 0
M  V30 4 N -0.101347 -1.877609 2.514272 0
M  V30 5 C 0.224826 -1.258947 1.356128 0
M  V30 6 C 1.142160 -1.503372 0.354127 0
M  V30 7 C 1.044912 -0.516501 -0.631727 0
M  V30 8 C 1.877526 -0.480808 -1.833861 0
M  V30 9 C 2.845335 -1.462193 -2.068778 0
M  V30 10 C 3.589559 -1.343436 -3.241987 0
M  V30 11 C 3.380710 -0.308113 -4.127180 0
M  V30 12 C 2.425911 0.659516 -3.894780 0
M  V30 13 C 1.673320 0.550366 -2.720814 0
M  V30 14 N 0.063742 0.299167 -0.189858 0
M  V30 15 N -0.408439 -0.136348 0.963824 0
M  V30 16 C -1.380016 0.367140 1.747103 0
M  V30 17 C -1.733942 -0.251374 2.943795 0
M  V30 18 N -2.727773 0.431454 3.554305 0
M  V30 19 C -2.995336 1.478219 2.737974 0
M  V30 20 N -2.187508 1.439575 1.654871 0
M  V30 21 C -2.219641 2.423470 0.581538 0
M  V30 22 H -1.366158 -4.015988 5.425917 0
M  V30 23 H -0.179956 -3.750937 4.023303 0
M  V30 24 H 0.139036 -3.090795 5.685190 0
M  V30 25 H -2.120446 -1.712862 5.143923 0
M  V30 26 H 1.826175 -2.337172 0.347429 0
M  V30 27 H 2.959297 -2.236927 -1.347353 0
M  V30 28 H 4.312791 -2.147939 -3.336699 0
M  V30 29 H 4.021938 -0.324674 -5.002946 0
M  V30 30 H 2.318017 1.441692 -4.633165 0
M  V30 31 H 0.935217 1.333941 -2.581562 0
M  V30 32 H -3.750700 2.225663 2.942355 0
M  V30 33 H -3.136200 2.319594 -0.047982 0
M  V30 34 H -2.158630 3.461411 0.985596 0
M  V30 35 H -1.336532 2.304714 -0.079250 0
M  V30 END ATOM
M  V30 BEGIN BOND
M  V30 1 1 1 2
M  V30 2 1 2 3
M  V30 3 2 3 4
M  V30 4 1 4 5
M  V30 5 2 5 6
M  V30 6 1 6 7
M  V30 7 1 7 8
M  V30 8 2 8 9
M  V30 9 1 9 10
M  V30 10 2 10 11
M  V30 11 1 11 12
M  V30 12 2 12 13
M  V30 13 2 7 14
M  V30 14 1 14 15
M  V30 15 1 15 16
M  V30 16 2 16 17
M  V30 17 1 17 18
M  V30 18 2 18 19
M  V30 19 1 19 20
M  V30 20 1 20 21
M  V30 21 1 17 3
M  V30 22 1 15 5
M  V30 23 1 20 16
M  V30 24 1 13 8
M  V30 25 1 1 22
M  V30 26 1 1 23
M  V30 27 1 1 24
M  V30 28 1 2 25
M  V30 29 1 6 26
M  V30 30 1 9 27
M  V30 31 1 10 28
M  V30 32 1 11 29
M  V30 33 1 12 30
M  V30 34 1 13 31
M  V30 35 1 19 32
M  V30 36 1 21 33
M  V30 37 1 21 34
M  V30 38 1 21 35
M  V30 END BOND
M  V30 END CTAB
M  END
>  <Dataset>  (907) 
ChEMBL_Kinases

>  <Ligand_Instance>  (907) 
nan

>  <PDB_ID>  (907) 
nan

>  <Standardized_SMILES>  (907) 
CNc1nc2cc(-c3ccccc3)nn2c2c1ncn2C

>  <Name>  (907) 
nan

>  <Pocket>  (907) 
nan

>  <ATP_Site>  (907) 
nan

>  <Peripheral>  (907) 
nan

>  <Num_H_Atoms_ProtBoundConf>  (907) 
nan

>  <Num_Resolved_Atoms>  (907) 
nan

>  <Num_Not_Resolved_Atoms>  (907) 
nan

$$$$
CHEMBL3822465
     RDKit          3D

  0  0  0  0  0  0  0  0  0  0999 V3000
M  V30 BEGIN CTAB
M  V30 COUNTS 61 65 0 0 0
M  V30 BEGIN ATOM
M  V30 1 C 0.781769 -3.044916 7.417987 0
M  V30 2 N 1.639493 -2.131785 6.668235 0
M  V30 3 C 0.783191 -1.263647 5.878782 0
M  V30 4 C 1.688806 -0.302233 5.133772 0
M  V30 5 N 2.447661 -1.119271 4.197907 0
M  V30 6 C 2.270284 -1.043644 2.793448 0
M  V30 7 C 1.121373 -0.488997 2.287850 0
M  V30 8 C 0.824437 -0.342712 0.949173 0
M  V30 9 C 1.800778 -0.810735 0.042626 0
M  V30 10 N 1.533938 -0.685317 -1.383905 0
M  V30 11 C 0.568706 0.134752 -1.833078 0
M  V30 12 C 0.621327 -0.035274 -3.176867 0
M  V30 13 C -0.099181 0.486419 -4.368266 0
M  V30 14 C 0.517769 0.935943 -5.515205 0
M  V30 15 C -0.237017 1.415867 -6.585319 0
M  V30 16 N -1.581051 1.449249 -6.517189 0
M  V30 17 C -2.123637 0.989956 -5.355449 0
M  V30 18 C -1.495414 0.497084 -4.241373 0
M  V30 19 O -2.095451 0.046518 -3.096495 0
M  V30 20 C -3.458222 0.013266 -2.849192 0
M  V30 21 C -3.857049 0.805391 -1.620344 0
M  V30 22 C -3.175311 0.273105 -0.398109 0
M  V30 23 N -2.773126 -1.089692 -0.453941 0
M  V30 24 C -3.558250 -1.954583 -1.272303 0
M  V30 25 C -3.963511 -1.401035 -2.597445 0
M  V30 26 C 1.603768 -0.947675 -3.600780 0
M  V30 27 N 2.129987 -1.305570 -2.378571 0
M  V30 28 C 2.971853 -1.375900 0.512807 0
M  V30 29 C 3.187835 -1.483198 1.872377 0
M  V30 30 C 3.339986 -1.986189 4.924863 0
M  V30 31 C 2.527618 -2.901119 5.860423 0
M  V30 32 H -0.288678 -2.715813 7.389918 0
M  V30 33 H 0.903086 -4.086357 7.043285 0
M  V30 34 H 1.096477 -2.984745 8.493476 0
M  V30 35 H 0.054482 -0.729934 6.520974 0
M  V30 36 H 0.273187 -1.899616 5.119647 0
M  V30 37 H 2.372333 0.113860 5.935705 0
M  V30 38 H 1.142153 0.524218 4.638879 0
M  V30 39 H 0.300224 -0.099547 2.908721 0
M  V30 40 H -0.097133 0.100970 0.569591 0
M  V30 41 H -0.141676 0.808158 -1.417875 0
M  V30 42 H 1.593801 0.855406 -5.442170 0
M  V30 43 H 0.473906 1.711347 -7.372381 0
M  V30 44 H -3.208628 1.042213 -5.362104 0
M  V30 45 H -4.102447 0.400539 -3.673193 0
M  V30 46 H -4.956343 0.687070 -1.511814 0
M  V30 47 H -3.595891 1.864027 -1.772488 0
M  V30 48 H -2.234632 0.885060 -0.271046 0
M  V30 49 H -3.764051 0.490909 0.534621 0
M  V30 50 H -1.764356 -1.277586 -0.460941 0
M  V30 51 H -4.422231 -2.361354 -0.688787 0
M  V30 52 H -2.918560 -2.862337 -1.472289 0
M  V30 53 H -3.773999 -2.063011 -3.453727 0
M  V30 54 H -5.087906 -1.279814 -2.546040 0
M  V30 55 H 2.197569 -1.541307 -4.247300 0
M  V30 56 H 3.723370 -1.736301 -0.202744 0
M  V30 57 H 4.118043 -1.930110 2.212936 0
M  V30 58 H 3.936718 -1.349071 5.613620 0
M  V30 59 H 4.055416 -2.536849 4.326852 0
M  V30 60 H 1.914735 -3.573140 5.226602 0
M  V30 61 H 3.229856 -3.451559 6.499085 0
M  V30 END ATOM
M  V30 BEGIN BOND
M  V30 1 1 1 2
M  V30 2 1 2 3
M  V30 3 1 3 4
M  V30 4 1 4 5
M  V30 5 1 5 6
M  V30 6 2 6 7
M  V30 7 1 7 8
M  V30 8 2 8 9
M  V30 9 1 9 10
M  V30 10 1 10 11
M  V30 11 2 11 12
M  V30 12 1 12 13
M  V30 13 2 13 14
M  V30 14 1 14 15
M  V30 15 2 15 16
M  V30 16 1 16 17
M  V30 17 2 17 18
M  V30 18 1 18 19
M  V30 19 1 19 20
M  V30 20 1 20 21
M  V30 21 1 21 22
M  V30 22 1 22 23
M  V30 23 1 23 24
M  V30 24 1 24 25
M  V30 25 1 12 26
M  V30 26 2 26 27
M  V30 27 1 9 28
M  V30 28 2 28 29
M  V30 29 1 5 30
M  V30 30 1 30 31
M  V30 31 1 31 2
M  V30 32 1 29 6
M  V30 33 1 27 10
M  V30 34 1 18 13
M  V30 35 1 25 20
M  V30 36 1 1 32
M  V30 37 1 1 33
M  V30 38 1 1 34
M  V30 39 1 3 35
M  V30 40 1 3 36
M  V30 41 1 4 37
M  V30 42 1 4 38
M  V30 43 1 7 39
M  V30 44 1 8 40
M  V30 45 1 11 41
M  V30 46 1 14 42
M  V30 47 1 15 43
M  V30 48 1 17 44
M  V30 49 1 20 45
M  V30 50 1 21 46
M  V30 51 1 21 47
M  V30 52 1 22 48
M  V30 53 1 22 49
M  V30 54 1 23 50
M  V30 55 1 24 51
M  V30 56 1 24 52
M  V30 57 1 25 53
M  V30 58 1 25 54
M  V30 59 1 26 55
M  V30 60 1 28 56
M  V30 61 1 29 57
M  V30 62 1 30 58
M  V30 63 1 30 59
M  V30 64 1 31 60
M  V30 65 1 31 61
M  V30 END BOND
M  V30 END CTAB
M  END
>  <Dataset>  (908) 
ChEMBL_Kinases

>  <Ligand_Instance>  (908) 
nan

>  <PDB_ID>  (908) 
nan

>  <Standardized_SMILES>  (908) 
CN1CCN(c2ccc(-n3cc(-c4ccncc4OC4CCNCC4)cn3)cc2)CC1

>  <Name>  (908) 
nan

>  <Pocket>  (908) 
nan

>  <ATP_Site>  (908) 
nan

>  <Peripheral>  (908) 
nan

>  <Num_H_Atoms_ProtBoundConf>  (908) 
nan

>  <Num_Resolved_Atoms>  (908) 
nan

>  <Num_Not_Resolved_Atoms>  (908) 
nan

$$$$
CHEMBL382175
     RDKit          3D

  0  0  0  0  0  0  0  0  0  0999 V3000
M  V30 BEGIN CTAB
M  V30 COUNTS 53 56 0 0 0
M  V30 BEGIN ATOM
M  V30 1 N 0.742788 -5.443680 -0.768131 0
M  V30 2 C 0.158552 -4.273070 -0.171456 0
M  V30 3 C 0.579867 -2.979034 0.051128 0
M  V30 4 C 1.897492 -2.562705 -0.353368 0
M  V30 5 O 2.661628 -3.444454 -0.883335 0
M  V30 6 C 2.547942 -1.271125 -0.266472 0
M  V30 7 C 3.934462 -1.230778 -0.152220 0
M  V30 8 C 4.648728 -0.030327 -0.067942 0
M  V30 9 C 3.979009 1.172143 -0.097215 0
M  V30 10 C 2.605872 1.181417 -0.209476 0
M  V30 11 C 1.834272 2.414163 -0.244792 0
M  V30 12 C 1.180723 3.430334 -0.286587 0
M  V30 13 C 0.368739 4.647274 -0.344050 0
M  V30 14 N -0.548837 4.743683 0.764160 0
M  V30 15 C 0.064258 4.951857 2.019820 0
M  V30 16 C -0.339917 3.969085 3.084258 0
M  V30 17 C -0.403177 2.548838 2.585616 0
M  V30 18 C -1.337584 2.486831 1.426733 0
M  V30 19 C -1.598909 3.781107 0.733428 0
M  V30 20 C 1.959023 -0.031757 -0.288442 0
M  V30 21 C -0.454317 -2.333149 0.673905 0
M  V30 22 N -1.452267 -3.228653 0.809774 0
M  V30 23 N -1.095716 -4.388867 0.308276 0
M  V30 24 C -2.092143 -5.396582 0.409144 0
M  V30 25 C -3.016724 -5.389585 -0.614411 0
M  V30 26 C -4.053731 -6.285213 -0.687199 0
M  V30 27 C -4.147248 -7.226865 0.330579 0
M  V30 28 F -5.106817 -8.180291 0.411114 0
M  V30 29 C -3.226425 -7.248883 1.367829 0
M  V30 30 C -2.185759 -6.341736 1.430965 0
M  V30 31 H 0.848966 -5.213547 -1.780247 0
M  V30 32 H 0.938662 -6.257202 -0.111177 0
M  V30 33 H 4.537909 -2.118631 -0.122617 0
M  V30 34 H 5.729348 -0.039208 0.019941 0
M  V30 35 H 4.508109 2.108272 -0.033678 0
M  V30 36 H -0.146860 4.632264 -1.323252 0
M  V30 37 H 1.002369 5.575672 -0.345111 0
M  V30 38 H 1.164417 4.990486 1.891446 0
M  V30 39 H -0.239254 5.978597 2.376198 0
M  V30 40 H 0.369196 3.969608 3.935452 0
M  V30 41 H -1.339723 4.211442 3.502074 0
M  V30 42 H -0.810377 1.943265 3.418391 0
M  V30 43 H 0.605084 2.138718 2.364990 0
M  V30 44 H -2.298534 2.023276 1.780103 0
M  V30 45 H -0.976940 1.744561 0.653639 0
M  V30 46 H -2.527196 4.256039 1.124126 0
M  V30 47 H -1.813449 3.588273 -0.355653 0
M  V30 48 H 0.901119 0.010754 -0.383718 0
M  V30 49 H -0.454254 -1.304635 0.993252 0
M  V30 50 H -2.981481 -4.665538 -1.438000 0
M  V30 51 H -4.817948 -6.349799 -1.448916 0
M  V30 52 H -3.282018 -7.982627 2.180619 0
M  V30 53 H -1.434862 -6.293997 2.198110 0
M  V30 END ATOM
M  V30 BEGIN BOND
M  V30 1 1 1 2
M  V30 2 2 2 3
M  V30 3 1 3 4
M  V30 4 2 4 5
M  V30 5 1 4 6
M  V30 6 2 6 7
M  V30 7 1 7 8
M  V30 8 2 8 9
M  V30 9 1 9 10
M  V30 10 1 10 11
M  V30 11 3 11 12
M  V30 12 1 12 13
M  V30 13 1 13 14
M  V30 14 1 14 15
M  V30 15 1 15 16
M  V30 16 1 16 17
M  V30 17 1 17 18
M  V30 18 1 18 19
M  V30 19 2 10 20
M  V30 20 1 3 21
M  V30 21 2 21 22
M  V30 22 1 22 23
M  V30 23 1 23 24
M  V30 24 2 24 25
M  V30 25 1 25 26
M  V30 26 2 26 27
M  V30 27 1 27 28
M  V30 28 1 27 29
M  V30 29 2 29 30
M  V30 30 1 23 2
M  V30 31 1 30 24
M  V30 32 1 20 6
M  V30 33 1 19 14
M  V30 34 1 1 31
M  V30 35 1 1 32
M  V30 36 1 7 33
M  V30 37 1 8 34
M  V30 38 1 9 35
M  V30 39 1 13 36
M  V30 40 1 13 37
M  V30 41 1 15 38
M  V30 42 1 15 39
M  V30 43 1 16 40
M  V30 44 1 16 41
M  V30 45 1 17 42
M  V30 46 1 17 43
M  V30 47 1 18 44
M  V30 48 1 18 45
M  V30 49 1 19 46
M  V30 50 1 19 47
M  V30 51 1 20 48
M  V30 52 1 21 49
M  V30 53 1 25 50
M  V30 54 1 26 51
M  V30 55 1 29 52
M  V30 56 1 30 53
M  V30 END BOND
M  V30 END CTAB
M  END
>  <Dataset>  (909) 
ChEMBL_Kinases

>  <Ligand_Instance>  (909) 
nan

>  <PDB_ID>  (909) 
nan

>  <Standardized_SMILES>  (909) 
Nc1c(C(=O)c2cccc(C#CCN3CCCCC3)c2)cnn1-c1ccc(F)cc1

>  <Name>  (909) 
nan

>  <Pocket>  (909) 
nan

>  <ATP_Site>  (909) 
nan

>  <Peripheral>  (909) 
nan

>  <Num_H_Atoms_ProtBoundConf>  (909) 
nan

>  <Num_Resolved_Atoms>  (909) 
nan

>  <Num_Not_Resolved_Atoms>  (909) 
nan

$$$$
CHEMBL382103
     RDKit          3D

  0  0  0  0  0  0  0  0  0  0999 V3000
M  V30 BEGIN CTAB
M  V30 COUNTS 64 68 0 0 0
M  V30 BEGIN ATOM
M  V30 1 C 1.807771 -2.155409 5.573550 0
M  V30 2 C 2.516684 -2.120784 4.253284 0
M  V30 3 C 3.703467 -2.797295 4.118403 0
M  V30 4 C 4.375120 -2.774809 2.893689 0
M  V30 5 C 3.773937 -2.051220 1.883431 0
M  V30 6 C 2.587772 -1.369645 2.001851 0
M  V30 7 C 1.992923 -0.621694 0.897307 0
M  V30 8 N 1.896974 0.690503 0.858232 0
M  V30 9 C 1.422702 1.337830 -0.031022 0
M  V30 10 C 1.290010 2.866666 -0.123849 0
M  V30 11 C 1.727590 3.674267 0.877596 0
M  V30 12 C 1.544230 5.042243 0.646009 0
M  V30 13 C 0.962846 5.497604 -0.515544 0
M  V30 14 S 0.767871 7.210678 -0.753933 0
M  V30 15 C -0.767979 7.832214 -0.127071 0
M  V30 16 O 1.865204 7.917891 -0.028038 0
M  V30 17 O 0.805189 7.547675 -2.233348 0
M  V30 18 C 0.528944 4.649560 -1.513312 0
M  V30 19 C 0.698511 3.281290 -1.310510 0
M  V30 20 S 0.915542 0.126496 -1.208483 0
M  V30 21 C 1.533936 -1.322487 -0.120731 0
M  V30 22 C 1.358449 -2.676436 -0.626903 0
M  V30 23 C 2.312672 -3.645157 -0.953359 0
M  V30 24 C 1.879379 -4.865559 -1.423309 0
M  V30 25 N 0.587387 -5.183701 -1.587816 0
M  V30 26 C -0.375509 -4.290944 -1.289884 0
M  V30 27 N -1.655113 -4.846744 -1.553648 0
M  V30 28 C -2.633326 -4.346751 -2.489651 0
M  V30 29 C -3.319766 -3.086431 -2.089782 0
M  V30 30 C -4.098049 -3.218133 -0.848458 0
M  V30 31 C -3.750025 -3.025014 0.455010 0
M  V30 32 C -4.592124 -3.188792 1.525558 0
M  V30 33 C -5.886411 -3.573689 1.315299 0
M  V30 34 C -6.338846 -3.796011 0.020202 0
M  V30 35 C -5.439381 -3.611255 -0.982743 0
M  V30 36 C 0.059268 -3.080545 -0.823924 0
M  V30 37 C 1.926429 -1.400349 3.232335 0
M  V30 38 H 1.608198 -1.079662 5.808111 0
M  V30 39 H 2.421223 -2.674010 6.324952 0
M  V30 40 H 0.816987 -2.629585 5.420875 0
M  V30 41 H 4.170045 -3.365170 4.921564 0
M  V30 42 H 5.305225 -3.293765 2.754908 0
M  V30 43 H 4.320532 -2.052579 0.955855 0
M  V30 44 H 2.167870 3.211848 1.745948 0
M  V30 45 H 1.887539 5.702899 1.436571 0
M  V30 46 H -1.543811 7.784744 -0.940861 0
M  V30 47 H -1.122664 7.281983 0.767843 0
M  V30 48 H -0.636853 8.900941 0.166498 0
M  V30 49 H 0.079900 4.991069 -2.411537 0
M  V30 50 H 0.370683 2.566402 -2.070225 0
M  V30 51 H 3.322288 -3.313980 -0.796166 0
M  V30 52 H 2.717015 -5.533068 -1.641118 0
M  V30 53 H -1.895506 -5.718904 -0.990144 0
M  V30 54 H -2.163993 -4.247707 -3.506182 0
M  V30 55 H -3.428168 -5.113271 -2.634689 0
M  V30 56 H -4.037543 -2.831425 -2.925290 0
M  V30 57 H -2.675091 -2.190757 -2.020506 0
M  V30 58 H -2.733387 -2.721462 0.623397 0
M  V30 59 H -4.188439 -3.002622 2.508169 0
M  V30 60 H -6.570330 -3.708759 2.146770 0
M  V30 61 H -7.353886 -4.097576 -0.156949 0
M  V30 62 H -5.838997 -3.796883 -1.987334 0
M  V30 63 H -0.766444 -2.414791 -0.611552 0
M  V30 64 H 0.993794 -0.865354 3.328371 0
M  V30 END ATOM
M  V30 BEGIN BOND
M  V30 1 1 1 2
M  V30 2 2 2 3
M  V30 3 1 3 4
M  V30 4 2 4 5
M  V30 5 1 5 6
M  V30 6 1 6 7
M  V30 7 1 7 8
M  V30 8 2 8 9
M  V30 9 1 9 10
M  V30 10 2 10 11
M  V30 11 1 11 12
M  V30 12 2 12 13
M  V30 13 1 13 14
M  V30 14 1 14 15
M  V30 15 2 14 16
M  V30 16 2 14 17
M  V30 17 1 13 18
M  V30 18 2 18 19
M  V30 19 1 9 20
M  V30 20 1 20 21
M  V30 21 1 21 22
M  V30 22 2 22 23
M  V30 23 1 23 24
M  V30 24 2 24 25
M  V30 25 1 25 26
M  V30 26 1 26 27
M  V30 27 1 27 28
M  V30 28 1 28 29
M  V30 29 1 29 30
M  V30 30 2 30 31
M  V30 31 1 31 32
M  V30 32 2 32 33
M  V30 33 1 33 34
M  V30 34 2 34 35
M  V30 35 2 26 36
M  V30 36 2 6 37
M  V30 37 1 37 2
M  V30 38 2 21 7
M  V30 39 1 36 22
M  V30 40 1 19 10
M  V30 41 1 35 30
M  V30 42 1 1 38
M  V30 43 1 1 39
M  V30 44 1 1 40
M  V30 45 1 3 41
M  V30 46 1 4 42
M  V30 47 1 5 43
M  V30 48 1 11 44
M  V30 49 1 12 45
M  V30 50 1 15 46
M  V30 51 1 15 47
M  V30 52 1 15 48
M  V30 53 1 18 49
M  V30 54 1 19 50
M  V30 55 1 23 51
M  V30 56 1 24 52
M  V30 57 1 27 53
M  V30 58 1 28 54
M  V30 59 1 28 55
M  V30 60 1 29 56
M  V30 61 1 29 57
M  V30 62 1 31 58
M  V30 63 1 32 59
M  V30 64 1 33 60
M  V30 65 1 34 61
M  V30 66 1 35 62
M  V30 67 1 36 63
M  V30 68 1 37 64
M  V30 END BOND
M  V30 END CTAB
M  END
>  <Dataset>  (910) 
ChEMBL_Kinases

>  <Ligand_Instance>  (910) 
nan

>  <PDB_ID>  (910) 
nan

>  <Standardized_SMILES>  (910) 
Cc1cccc(-c2nc(-c3ccc(S(C)(=O)=O)cc3)sc2-c2ccnc(NCCc3ccccc3)c2)c1

>  <Name>  (910) 
nan

>  <Pocket>  (910) 
nan

>  <ATP_Site>  (910) 
nan

>  <Peripheral>  (910) 
nan

>  <Num_H_Atoms_ProtBoundConf>  (910) 
nan

>  <Num_Resolved_Atoms>  (910) 
nan

>  <Num_Not_Resolved_Atoms>  (910) 
nan

$$$$
CHEMBL382070
     RDKit          3D

  0  0  0  0  0  0  0  0  0  0999 V3000
M  V30 BEGIN CTAB
M  V30 COUNTS 30 32 0 0 0
M  V30 BEGIN ATOM
M  V30 1 C 0.480281 -2.429791 3.418462 0
M  V30 2 C 1.651348 -2.585049 2.496367 0
M  V30 3 N 2.724238 -3.254079 2.939803 0
M  V30 4 N 3.607435 -3.266444 1.988287 0
M  V30 5 C 3.106572 -2.580282 0.867105 0
M  V30 6 S 3.363337 -2.031117 -0.761221 0
M  V30 7 C 1.786023 -1.232858 -0.959944 0
M  V30 8 C 1.333436 -0.534421 -2.164784 0
M  V30 9 N 2.199112 -0.478917 -3.262729 0
M  V30 10 O 0.207635 -0.030783 -2.144986 0
M  V30 11 C 1.126145 -1.434040 0.265529 0
M  V30 12 N -0.186101 -0.896381 0.409424 0
M  V30 13 C -0.341773 0.408146 0.906400 0
M  V30 14 O 0.729496 0.976286 1.178454 0
M  V30 15 C -1.707350 0.928071 1.040826 0
M  V30 16 C -2.077305 2.123515 1.485136 0
M  V30 17 C -3.390388 2.484899 1.560798 0
M  V30 18 C -4.306134 1.463517 1.121037 0
M  V30 19 S -3.207299 0.013626 0.613905 0
M  V30 20 C 1.806993 -2.128257 1.206324 0
M  V30 21 H 0.666107 -1.706700 4.230685 0
M  V30 22 H 0.254000 -3.392519 3.882489 0
M  V30 23 H -0.419852 -2.150790 2.813651 0
M  V30 24 H 4.559360 -3.678750 1.938376 0
M  V30 25 H 1.691878 -0.833780 -4.108196 0
M  V30 26 H 3.192599 -0.159526 -3.341771 0
M  V30 27 H -1.018854 -1.488256 0.139838 0
M  V30 28 H -1.334753 2.871463 1.810689 0
M  V30 29 H -3.833239 3.407093 1.895861 0
M  V30 30 H -5.460071 1.598985 1.117086 0
M  V30 END ATOM
M  V30 BEGIN BOND
M  V30 1 1 1 2
M  V30 2 2 2 3
M  V30 3 1 3 4
M  V30 4 1 4 5
M  V30 5 1 5 6
M  V30 6 1 6 7
M  V30 7 1 7 8
M  V30 8 1 8 9
M  V30 9 2 8 10
M  V30 10 2 7 11
M  V30 11 1 11 12
M  V30 12 1 12 13
M  V30 13 2 13 14
M  V30 14 1 13 15
M  V30 15 2 15 16
M  V30 16 1 16 17
M  V30 17 2 17 18
M  V30 18 1 18 19
M  V30 19 1 11 20
M  V30 20 1 20 2
M  V30 21 2 20 5
M  V30 22 1 19 15
M  V30 23 1 1 21
M  V30 24 1 1 22
M  V30 25 1 1 23
M  V30 26 1 4 24
M  V30 27 1 9 25
M  V30 28 1 9 26
M  V30 29 1 12 27
M  V30 30 1 16 28
M  V30 31 1 17 29
M  V30 32 1 18 30
M  V30 END BOND
M  V30 END CTAB
M  END
>  <Dataset>  (911) 
ChEMBL_Kinases

>  <Ligand_Instance>  (911) 
nan

>  <PDB_ID>  (911) 
nan

>  <Standardized_SMILES>  (911) 
Cc1n[nH]c2sc(C(N)=O)c(NC(=O)c3cccs3)c12

>  <Name>  (911) 
nan

>  <Pocket>  (911) 
nan

>  <ATP_Site>  (911) 
nan

>  <Peripheral>  (911) 
nan

>  <Num_H_Atoms_ProtBoundConf>  (911) 
nan

>  <Num_Resolved_Atoms>  (911) 
nan

>  <Num_Not_Resolved_Atoms>  (911) 
nan

$$$$
CHEMBL3819637
     RDKit          3D

  0  0  0  0  0  0  0  0  0  0999 V3000
M  V30 BEGIN CTAB
M  V30 COUNTS 71 76 0 0 0
M  V30 BEGIN ATOM
M  V30 1 C -0.828944 -0.469978 4.340234 0
M  V30 2 C 0.129642 -0.488730 3.212512 0
M  V30 3 C -0.184103 0.267427 2.078799 0
M  V30 4 C 0.691536 0.294142 1.006852 0
M  V30 5 C 0.302047 1.086772 -0.153137 0
M  V30 6 C -0.354553 2.290837 -0.284545 0
M  V30 7 N -0.461949 2.538742 -1.599391 0
M  V30 8 N 0.098840 1.542736 -2.293966 0
M  V30 9 C 0.185142 1.462721 -3.633756 0
M  V30 10 N -0.334686 2.369880 -4.592017 0
M  V30 11 C -1.269251 3.447120 -4.446489 0
M  V30 12 C -2.683860 2.988095 -4.441166 0
M  V30 13 C -3.689152 4.122258 -4.269836 0
M  V30 14 C -5.064448 3.460358 -4.349640 0
M  V30 15 O -4.997232 2.167511 -4.817708 0
M  V30 16 C -4.338991 1.278037 -3.998951 0
M  V30 17 C -3.011823 1.875411 -3.506846 0
M  V30 18 N 0.814526 0.364573 -4.077675 0
M  V30 19 C 1.329628 -0.599390 -3.300991 0
M  V30 20 N 1.985945 -1.716561 -3.888581 0
M  V30 21 C 2.569849 -2.798449 -3.167070 0
M  V30 22 C 1.612805 -3.585263 -2.317848 0
M  V30 23 C 2.327830 -4.057281 -1.099676 0
M  V30 24 C 3.707362 -3.519548 -1.215191 0
M  V30 25 C 3.721770 -2.425294 -2.262608 0
M  V30 26 N 1.203693 -0.452352 -1.971297 0
M  V30 27 C 0.585822 0.621655 -1.444654 0
M  V30 28 C 1.887469 -0.426489 1.042895 0
M  V30 29 C 2.170244 -1.165445 2.175959 0
M  V30 30 C 1.304648 -1.204617 3.260824 0
M  V30 31 C 1.708160 -2.018540 4.393139 0
M  V30 32 O 2.915366 -2.036532 4.835196 0
M  V30 33 N 0.877503 -2.863869 5.130474 0
M  V30 34 C 0.942829 -3.758402 6.242167 0
M  V30 35 C -0.128306 -3.815703 7.266746 0
M  V30 36 C 0.104406 -4.981429 6.328713 0
M  V30 37 H -0.299916 -0.560112 5.315773 0
M  V30 38 H -1.672923 -1.169700 4.244013 0
M  V30 39 H -1.248867 0.582481 4.368044 0
M  V30 40 H -1.127704 0.823940 2.069695 0
M  V30 41 H -0.685559 2.860505 0.575118 0
M  V30 42 H 0.012583 2.248392 -5.592814 0
M  V30 43 H -1.029486 4.031395 -3.518997 0
M  V30 44 H -1.142905 4.186789 -5.270684 0
M  V30 45 H -2.929481 2.586978 -5.479836 0
M  V30 46 H -3.581624 4.859542 -5.087370 0
M  V30 47 H -3.637284 4.598819 -3.279477 0
M  V30 48 H -5.587883 3.473640 -3.382270 0
M  V30 49 H -5.709148 4.017671 -5.078420 0
M  V30 50 H -4.928801 0.879037 -3.165212 0
M  V30 51 H -4.037734 0.416849 -4.669503 0
M  V30 52 H -3.167781 2.269174 -2.492812 0
M  V30 53 H -2.248104 1.065589 -3.547119 0
M  V30 54 H 2.041074 -1.738211 -4.952544 0
M  V30 55 H 3.010534 -3.545552 -3.884503 0
M  V30 56 H 0.691618 -2.996212 -2.071007 0
M  V30 57 H 1.211812 -4.490996 -2.854419 0
M  V30 58 H 2.373566 -5.186051 -1.067529 0
M  V30 59 H 1.795846 -3.734501 -0.178355 0
M  V30 60 H 4.386581 -4.352226 -1.550959 0
M  V30 61 H 4.132959 -3.168675 -0.251684 0
M  V30 62 H 4.713655 -2.507333 -2.796562 0
M  V30 63 H 3.675285 -1.417522 -1.859056 0
M  V30 64 H 2.476163 -0.321702 0.150480 0
M  V30 65 H 3.095248 -1.683153 2.122019 0
M  V30 66 H -0.125734 -2.869048 4.767691 0
M  V30 67 H 1.975946 -3.875890 6.688728 0
M  V30 68 H -1.041347 -3.195063 7.178713 0
M  V30 69 H 0.133481 -4.042875 8.324110 0
M  V30 70 H 0.505423 -5.933862 6.757092 0
M  V30 71 H -0.674677 -5.196066 5.554234 0
M  V30 END ATOM
M  V30 BEGIN BOND
M  V30 1 1 1 2
M  V30 2 2 2 3
M  V30 3 1 3 4
M  V30 4 1 4 5
M  V30 5 1 5 6
M  V30 6 2 6 7
M  V30 7 1 7 8
M  V30 8 1 8 9
M  V30 9 1 9 10
M  V30 10 1 10 11
M  V30 11 1 11 12
M  V30 12 1 12 13
M  V30 13 1 13 14
M  V30 14 1 14 15
M  V30 15 1 15 16
M  V30 16 1 16 17
M  V30 17 2 9 18
M  V30 18 1 18 19
M  V30 19 1 19 20
M  V30 20 1 20 21
M  V30 21 1 21 22
M  V30 22 1 22 23
M  V30 23 1 23 24
M  V30 24 1 24 25
M  V30 25 2 19 26
M  V30 26 1 26 27
M  V30 27 2 4 28
M  V30 28 1 28 29
M  V30 29 2 29 30
M  V30 30 1 30 31
M  V30 31 2 31 32
M  V30 32 1 31 33
M  V30 33 1 33 34
M  V30 34 1 34 35
M  V30 35 1 35 36
M  V30 36 1 30 2
M  V30 37 1 36 34
M  V30 38 2 27 5
M  V30 39 1 27 8
M  V30 40 1 17 12
M  V30 41 1 25 21
M  V30 42 1 1 37
M  V30 43 1 1 38
M  V30 44 1 1 39
M  V30 45 1 3 40
M  V30 46 1 6 41
M  V30 47 1 10 42
M  V30 48 1 11 43
M  V30 49 1 11 44
M  V30 50 1 12 45
M  V30 51 1 13 46
M  V30 52 1 13 47
M  V30 53 1 14 48
M  V30 54 1 14 49
M  V30 55 1 16 50
M  V30 56 1 16 51
M  V30 57 1 17 52
M  V30 58 1 17 53
M  V30 59 1 20 54
M  V30 60 1 21 55
M  V30 61 1 22 56
M  V30 62 1 22 57
M  V30 63 1 23 58
M  V30 64 1 23 59
M  V30 65 1 24 60
M  V30 66 1 24 61
M  V30 67 1 25 62
M  V30 68 1 25 63
M  V30 69 1 28 64
M  V30 70 1 29 65
M  V30 71 1 33 66
M  V30 72 1 34 67
M  V30 73 1 35 68
M  V30 74 1 35 69
M  V30 75 1 36 70
M  V30 76 1 36 71
M  V30 END BOND
M  V30 END CTAB
M  END
>  <Dataset>  (912) 
ChEMBL_Kinases

>  <Ligand_Instance>  (912) 
nan

>  <PDB_ID>  (912) 
nan

>  <Standardized_SMILES>  (912) 
Cc1cc(-c2cnn3c(NCC4CCOCC4)nc(NC4CCCC4)nc23)ccc1C(=O)NC1CC1

>  <Name>  (912) 
nan

>  <Pocket>  (912) 
nan

>  <ATP_Site>  (912) 
nan

>  <Peripheral>  (912) 
nan

>  <Num_H_Atoms_ProtBoundConf>  (912) 
nan

>  <Num_Resolved_Atoms>  (912) 
nan

>  <Num_Not_Resolved_Atoms>  (912) 
nan

$$$$
CHEMBL495556
     RDKit          3D

  0  0  0  0  0  0  0  0  0  0999 V3000
M  V30 BEGIN CTAB
M  V30 COUNTS 34 36 0 0 0
M  V30 BEGIN ATOM
M  V30 1 C -0.860380 -2.790041 3.611326 0
M  V30 2 C -1.104856 -3.140886 2.146516 0
M  V30 3 C -1.316494 -4.656288 2.062624 0
M  V30 4 C 0.063271 -2.733155 1.319394 0
M  V30 5 C -0.053707 -1.393907 0.740588 0
M  V30 6 N 0.977535 -0.701101 0.197800 0
M  V30 7 C 0.484530 0.477402 -0.224571 0
M  V30 8 C 1.216637 1.568434 -0.880530 0
M  V30 9 C 2.570623 1.423295 -1.116794 0
M  V30 10 C 3.261435 2.456378 -1.737364 0
M  V30 11 N 2.611091 3.592582 -2.105555 0
M  V30 12 C 1.273970 3.717035 -1.863707 0
M  V30 13 N 0.576222 4.901636 -2.243181 0
M  V30 14 N 0.596192 2.712148 -1.258775 0
M  V30 15 C -0.866910 0.524158 0.055572 0
M  V30 16 C -1.216133 -0.647248 0.662485 0
M  V30 17 C -2.462173 -1.212593 1.195583 0
M  V30 18 O -3.497369 -0.533931 1.119828 0
M  V30 19 N -2.361617 -2.524659 1.765752 0
M  V30 20 H -1.490772 -1.951676 3.960727 0
M  V30 21 H 0.202760 -2.474390 3.788803 0
M  V30 22 H -1.093461 -3.673662 4.263358 0
M  V30 23 H -1.348004 -4.974356 1.000705 0
M  V30 24 H -0.530286 -5.183986 2.634899 0
M  V30 25 H -2.318697 -4.856705 2.479895 0
M  V30 26 H 0.267436 -3.477167 0.510383 0
M  V30 27 H 0.964533 -2.794851 1.990972 0
M  V30 28 H 1.992706 -0.931540 0.075575 0
M  V30 29 H 3.140203 0.541295 -0.845402 0
M  V30 30 H 4.330517 2.408842 -1.954194 0
M  V30 31 H -0.088416 4.851211 -3.057175 0
M  V30 32 H 0.895449 5.635938 -1.579630 0
M  V30 33 H -1.552152 1.333378 -0.157159 0
M  V30 34 H -3.265290 -3.035073 1.899492 0
M  V30 END ATOM
M  V30 BEGIN BOND
M  V30 1 1 1 2
M  V30 2 1 2 3
M  V30 3 1 2 4
M  V30 4 1 4 5
M  V30 5 1 5 6
M  V30 6 1 6 7
M  V30 7 1 7 8
M  V30 8 2 8 9
M  V30 9 1 9 10
M  V30 10 2 10 11
M  V30 11 1 11 12
M  V30 12 1 12 13
M  V30 13 2 12 14
M  V30 14 2 7 15
M  V30 15 1 15 16
M  V30 16 1 16 17
M  V30 17 2 17 18
M  V30 18 1 17 19
M  V30 19 1 19 2
M  V30 20 2 16 5
M  V30 21 1 14 8
M  V30 22 1 1 20
M  V30 23 1 1 21
M  V30 24 1 1 22
M  V30 25 1 3 23
M  V30 26 1 3 24
M  V30 27 1 3 25
M  V30 28 1 4 26
M  V30 29 1 4 27
M  V30 30 1 6 28
M  V30 31 1 9 29
M  V30 32 1 10 30
M  V30 33 1 13 31
M  V30 34 1 13 32
M  V30 35 1 15 33
M  V30 36 1 19 34
M  V30 END BOND
M  V30 END CTAB
M  END
>  <Dataset>  (913) 
ChEMBL_Kinases

>  <Ligand_Instance>  (913) 
nan

>  <PDB_ID>  (913) 
nan

>  <Standardized_SMILES>  (913) 
CC1(C)Cc2[nH]c(-c3ccnc(N)n3)cc2C(=O)N1

>  <Name>  (913) 
nan

>  <Pocket>  (913) 
nan

>  <ATP_Site>  (913) 
nan

>  <Peripheral>  (913) 
nan

>  <Num_H_Atoms_ProtBoundConf>  (913) 
nan

>  <Num_Resolved_Atoms>  (913) 
nan

>  <Num_Not_Resolved_Atoms>  (913) 
nan

$$$$
CHEMBL3819622
     RDKit          3D

  0  0  0  0  0  0  0  0  0  0999 V3000
M  V30 BEGIN CTAB
M  V30 COUNTS 111 117 0 0 0
M  V30 BEGIN ATOM
M  V30 1 O 2.145916 -2.598951 -0.530637 0
M  V30 2 C 2.027102 -1.770619 -1.501423 0
M  V30 3 C 3.352171 -1.491171 -2.065154 0
M  V30 4 N 4.317643 -2.285258 -1.288876 0
M  V30 5 C 5.644997 -1.981511 -1.775256 0
M  V30 6 C 6.748797 -2.720741 -1.087886 0
M  V30 7 O 8.007503 -2.361374 -1.613707 0
M  V30 8 N 7.844578 -1.615511 -2.726665 0
M  V30 9 C 7.743074 -1.596372 -4.132097 0
M  V30 10 O 7.867872 -2.803516 -4.423008 0
M  V30 11 C 7.542258 -0.320186 -4.778565 0
M  V30 12 C 7.395429 0.836806 -4.088664 0
M  V30 13 C 7.196073 1.991440 -4.807692 0
M  V30 14 C 7.143188 1.996089 -6.183383 0
M  V30 15 F 6.943740 3.192855 -6.750766 0
M  V30 16 C 7.299988 0.782809 -6.819989 0
M  V30 17 F 7.237437 0.947100 -8.173979 0
M  V30 18 C 7.506838 -0.432453 -6.150278 0
M  V30 19 N 7.657711 -1.555508 -6.984560 0
M  V30 20 C 6.904255 -2.625940 -7.478516 0
M  V30 21 C 7.232007 -3.976997 -7.298472 0
M  V30 22 C 6.488933 -5.011713 -7.764599 0
M  V30 23 C 5.335181 -4.754551 -8.462341 0
M  V30 24 I 4.198500 -6.388552 -9.165504 0
M  V30 25 C 4.926781 -3.458949 -8.692740 0
M  V30 26 C 5.719900 -2.449079 -8.196809 0
M  V30 27 F 5.243286 -1.209365 -8.467580 0
M  V30 28 N 0.733900 -1.295658 -1.845209 0
M  V30 29 C -0.203030 -1.898446 -0.945903 0
M  V30 30 C -1.623822 -1.532234 -1.147496 0
M  V30 31 C -1.997789 -0.104406 -1.058515 0
M  V30 32 C -1.714196 0.615479 0.197011 0
M  V30 33 C -2.207049 2.060700 0.129502 0
M  V30 34 C -1.925043 2.792615 1.373104 0
M  V30 35 O -0.961062 2.474862 2.153645 0
M  V30 36 N -2.788047 3.889108 1.671246 0
M  V30 37 C -3.961142 4.504949 1.010772 0
M  V30 38 C -5.178460 4.260586 1.910255 0
M  V30 39 N -4.754432 3.516082 3.090582 0
M  V30 40 C -5.019929 2.215183 3.570126 0
M  V30 41 N -4.565219 1.897881 4.786829 0
M  V30 42 C -4.799608 0.633191 5.220801 0
M  V30 43 N -4.327352 0.248686 6.513881 0
M  V30 44 C -4.531872 -1.126490 6.972016 0
M  V30 45 C -4.708181 -1.063252 8.471960 0
M  V30 46 O -5.209587 0.179097 8.866189 0
M  V30 47 C -4.286929 1.196810 8.710487 0
M  V30 48 C -3.647453 1.226491 7.342315 0
M  V30 49 N -5.464228 -0.209838 4.416547 0
M  V30 50 C -5.927725 0.090664 3.193609 0
M  V30 51 N -6.606558 -0.905110 2.442541 0
M  V30 52 C -7.823566 -1.036113 1.913517 0
M  V30 53 C -8.838245 0.045416 2.056214 0
M  V30 54 F -8.361962 1.137793 1.326146 0
M  V30 55 F -9.066592 0.414049 3.355618 0
M  V30 56 N -7.901286 -2.238202 1.287902 0
M  V30 57 C -6.745405 -2.879138 1.409847 0
M  V30 58 C -6.280434 -4.100611 0.978610 0
M  V30 59 C -5.012120 -4.556205 1.233225 0
M  V30 60 C -4.161102 -3.751753 1.955197 0
M  V30 61 C -4.605953 -2.524605 2.396299 0
M  V30 62 C -5.899529 -2.039755 2.147888 0
M  V30 63 N -5.695313 1.364641 2.748484 0
M  V30 64 C -3.853138 4.420393 3.797697 0
M  V30 65 C -2.610697 4.643905 2.932851 0
M  V30 66 H 3.453558 -1.667531 -3.142753 0
M  V30 67 H 3.607379 -0.423583 -1.861827 0
M  V30 68 H 4.210592 -2.016668 -0.300417 0
M  V30 69 H 5.609389 -2.175156 -2.869022 0
M  V30 70 H 5.776219 -0.871522 -1.669841 0
M  V30 71 H 6.696879 -2.531077 -0.001613 0
M  V30 72 H 6.622197 -3.801461 -1.265561 0
M  V30 73 H 7.803624 -0.812009 -2.022781 0
M  V30 74 H 7.427884 0.882138 -3.013167 0
M  V30 75 H 7.076602 2.912588 -4.220035 0
M  V30 76 H 8.648971 -1.541312 -7.309730 0
M  V30 77 H 8.136157 -4.216510 -6.755006 0
M  V30 78 H 6.796751 -6.048737 -7.590066 0
M  V30 79 H 4.025415 -3.302202 -9.235732 0
M  V30 80 H 0.784426 -0.652034 -2.634996 0
M  V30 81 H 0.120933 -1.840825 0.129168 0
M  V30 82 H -0.143782 -3.011942 -1.149285 0
M  V30 83 H -1.962651 -1.980431 -2.123692 0
M  V30 84 H -2.212083 -2.136363 -0.391284 0
M  V30 85 H -1.583675 0.443240 -1.937635 0
M  V30 86 H -3.120225 -0.048581 -1.219598 0
M  V30 87 H -2.110454 0.201806 1.111643 0
M  V30 88 H -0.593150 0.671891 0.324721 0
M  V30 89 H -3.267167 2.117607 -0.165119 0
M  V30 90 H -1.640806 2.605298 -0.686349 0
M  V30 91 H -4.125971 4.014288 0.038528 0
M  V30 92 H -3.763144 5.583877 0.924333 0
M  V30 93 H -5.907879 3.627301 1.372220 0
M  V30 94 H -5.671920 5.208538 2.165560 0
M  V30 95 H -5.391541 -1.595524 6.446428 0
M  V30 96 H -3.593890 -1.656098 6.696697 0
M  V30 97 H -3.707986 -1.219847 8.940339 0
M  V30 98 H -5.434167 -1.832326 8.795626 0
M  V30 99 H -4.827969 2.171005 8.837959 0
M  V30 100 H -3.488675 1.183144 9.485462 0
M  V30 101 H -3.738212 2.222937 6.874314 0
M  V30 102 H -2.562248 0.946234 7.423912 0
M  V30 103 H -9.798347 -0.250416 1.545908 0
M  V30 104 H -6.923122 -4.772846 0.397832 0
M  V30 105 H -4.570010 -5.503152 0.931414 0
M  V30 106 H -3.123453 -4.015144 2.216929 0
M  V30 107 H -3.939329 -1.893439 2.960832 0
M  V30 108 H -4.291674 5.398211 4.017151 0
M  V30 109 H -3.570359 3.925282 4.744640 0
M  V30 110 H -2.455413 5.695799 2.675303 0
M  V30 111 H -1.719930 4.243053 3.450443 0
M  V30 END ATOM
M  V30 BEGIN BOND
M  V30 1 2 1 2
M  V30 2 1 2 3
M  V30 3 1 3 4
M  V30 4 1 4 5
M  V30 5 1 5 6
M  V30 6 1 6 7
M  V30 7 1 7 8
M  V30 8 1 8 9
M  V30 9 2 9 10
M  V30 10 1 9 11
M  V30 11 2 11 12
M  V30 12 1 12 13
M  V30 13 2 13 14
M  V30 14 1 14 15
M  V30 15 1 14 16
M  V30 16 1 16 17
M  V30 17 2 16 18
M  V30 18 1 18 19
M  V30 19 1 19 20
M  V30 20 2 20 21
M  V30 21 1 21 22
M  V30 22 2 22 23
M  V30 23 1 23 24
M  V30 24 1 23 25
M  V30 25 2 25 26
M  V30 26 1 26 27
M  V30 27 1 2 28
M  V30 28 1 28 29
M  V30 29 1 29 30
M  V30 30 1 30 31
M  V30 31 1 31 32
M  V30 32 1 32 33
M  V30 33 1 33 34
M  V30 34 2 34 35
M  V30 35 1 34 36
M  V30 36 1 36 37
M  V30 37 1 37 38
M  V30 38 1 38 39
M  V30 39 1 39 40
M  V30 40 2 40 41
M  V30 41 1 41 42
M  V30 42 1 42 43
M  V30 43 1 43 44
M  V30 44 1 44 45
M  V30 45 1 45 46
M  V30 46 1 46 47
M  V30 47 1 47 48
M  V30 48 2 42 49
M  V30 49 1 49 50
M  V30 50 1 50 51
M  V30 51 1 51 52
M  V30 52 1 52 53
M  V30 53 1 53 54
M  V30 54 1 53 55
M  V30 55 2 52 56
M  V30 56 1 56 57
M  V30 57 2 57 58
M  V30 58 1 58 59
M  V30 59 2 59 60
M  V30 60 1 60 61
M  V30 61 2 61 62
M  V30 62 2 50 63
M  V30 63 1 39 64
M  V30 64 1 64 65
M  V30 65 1 18 11
M  V30 66 1 26 20
M  V30 67 1 65 36
M  V30 68 1 63 40
M  V30 69 1 48 43
M  V30 70 1 62 51
M  V30 71 1 62 57
M  V30 72 1 3 66
M  V30 73 1 3 67
M  V30 74 1 4 68
M  V30 75 1 5 69
M  V30 76 1 5 70
M  V30 77 1 6 71
M  V30 78 1 6 72
M  V30 79 1 8 73
M  V30 80 1 12 74
M  V30 81 1 13 75
M  V30 82 1 19 76
M  V30 83 1 21 77
M  V30 84 1 22 78
M  V30 85 1 25 79
M  V30 86 1 28 80
M  V30 87 1 29 81
M  V30 88 1 29 82
M  V30 89 1 30 83
M  V30 90 1 30 84
M  V30 91 1 31 85
M  V30 92 1 31 86
M  V30 93 1 32 87
M  V30 94 1 32 88
M  V30 95 1 33 89
M  V30 96 1 33 90
M  V30 97 1 37 91
M  V30 98 1 37 92
M  V30 99 1 38 93
M  V30 100 1 38 94
M  V30 101 1 44 95
M  V30 102 1 44 96
M  V30 103 1 45 97
M  V30 104 1 45 98
M  V30 105 1 47 99
M  V30 106 1 47 100
M  V30 107 1 48 101
M  V30 108 1 48 102
M  V30 109 1 53 103
M  V30 110 1 58 104
M  V30 111 1 59 105
M  V30 112 1 60 106
M  V30 113 1 61 107
M  V30 114 1 64 108
M  V30 115 1 64 109
M  V30 116 1 65 110
M  V30 117 1 65 111
M  V30 END BOND
M  V30 END CTAB
M  END
>  <Dataset>  (914) 
ChEMBL_Kinases

>  <Ligand_Instance>  (914) 
nan

>  <PDB_ID>  (914) 
nan

>  <Standardized_SMILES>  (914) 
O=C(CNCCONC(=O)c1ccc(F)c(F)c1Nc1ccc(I)cc1F)NCCCCCC(=O)N1CCN(c2nc(N3CCOCC3)nc(-n3c(C(F)F)nc4ccccc43)n2)CC1

>  <Name>  (914) 
nan

>  <Pocket>  (914) 
nan

>  <ATP_Site>  (914) 
nan

>  <Peripheral>  (914) 
nan

>  <Num_H_Atoms_ProtBoundConf>  (914) 
nan

>  <Num_Resolved_Atoms>  (914) 
nan

>  <Num_Not_Resolved_Atoms>  (914) 
nan

$$$$
CHEMBL3819612
     RDKit          3D

  0  0  0  0  0  0  0  0  0  0999 V3000
M  V30 BEGIN CTAB
M  V30 COUNTS 57 61 0 0 0
M  V30 BEGIN ATOM
M  V30 1 C 4.560843 -0.964439 2.282978 0
M  V30 2 O 4.621627 -0.006812 1.288021 0
M  V30 3 C 5.781397 -0.094145 0.502313 0
M  V30 4 C 5.810334 0.969450 -0.568959 0
M  V30 5 N 4.716089 0.909924 -1.488938 0
M  V30 6 C 3.357064 1.008917 -1.017692 0
M  V30 7 N 2.714898 2.182869 -0.743542 0
M  V30 8 C 1.422026 2.198711 -0.307423 0
M  V30 9 O 1.133324 3.522286 -0.144736 0
M  V30 10 C 0.008510 4.139286 0.278352 0
M  V30 11 C -1.065055 4.540521 -0.489251 0
M  V30 12 C -2.182243 5.174856 0.057103 0
M  V30 13 C -2.215876 5.414012 1.435065 0
M  V30 14 C -1.143125 5.013182 2.202145 0
M  V30 15 C -0.029483 4.380512 1.656140 0
M  V30 16 N 0.754024 1.020851 -0.140902 0
M  V30 17 C 1.435309 -0.114606 -0.426109 0
M  V30 18 C 0.930402 -1.391100 -0.319451 0
M  V30 19 C -0.357214 -1.937213 0.077227 0
M  V30 20 C -0.833524 -2.982005 -0.726055 0
M  V30 21 C -2.025438 -3.643930 -0.526442 0
M  V30 22 C -2.803381 -3.249079 0.537931 0
M  V30 23 C -4.086388 -3.831782 0.919455 0
M  V30 24 O -4.916820 -3.521870 1.800440 0
M  V30 25 N -4.562826 -4.975433 0.205703 0
M  V30 26 C -5.810997 -5.653869 0.469668 0
M  V30 27 C -6.436789 -6.599573 -0.446732 0
M  V30 28 C -5.625204 -7.190130 0.701412 0
M  V30 29 C -2.392021 -2.210005 1.385366 0
M  V30 30 C -1.175337 -1.584894 1.125697 0
M  V30 31 C 1.991170 -2.217524 -0.716488 0
M  V30 32 N 3.033455 -1.416968 -1.027858 0
M  V30 33 N 2.708134 -0.157367 -0.856704 0
M  V30 34 H 3.609205 -0.801144 2.838396 0
M  V30 35 H 4.570066 -1.985683 1.877947 0
M  V30 36 H 5.357928 -0.788348 3.051062 0
M  V30 37 H 6.676518 0.018716 1.148754 0
M  V30 38 H 5.853221 -1.106219 0.058079 0
M  V30 39 H 6.746516 0.811782 -1.140359 0
M  V30 40 H 5.803085 1.971345 -0.087201 0
M  V30 41 H 4.696871 0.797961 -2.532556 0
M  V30 42 H -0.938614 4.312393 -1.522709 0
M  V30 43 H -2.947421 5.434401 -0.648332 0
M  V30 44 H -3.097682 5.908455 1.822999 0
M  V30 45 H -1.242745 5.234656 3.262345 0
M  V30 46 H 0.768830 4.099443 2.330087 0
M  V30 47 H -0.263896 -3.339307 -1.583681 0
M  V30 48 H -2.381861 -4.445387 -1.149473 0
M  V30 49 H -4.045849 -5.445052 -0.594037 0
M  V30 50 H -6.424120 -5.192145 1.257544 0
M  V30 51 H -6.090244 -6.811042 -1.468291 0
M  V30 52 H -7.528858 -6.782223 -0.325766 0
M  V30 53 H -4.634641 -7.608844 0.395313 0
M  V30 54 H -6.145561 -7.632344 1.565103 0
M  V30 55 H -2.935955 -1.839312 2.238732 0
M  V30 56 H -0.770972 -0.764273 1.729244 0
M  V30 57 H 2.111310 -3.294215 -0.809842 0
M  V30 END ATOM
M  V30 BEGIN BOND
M  V30 1 1 1 2
M  V30 2 1 2 3
M  V30 3 1 3 4
M  V30 4 1 4 5
M  V30 5 1 5 6
M  V30 6 2 6 7
M  V30 7 1 7 8
M  V30 8 1 8 9
M  V30 9 1 9 10
M  V30 10 2 10 11
M  V30 11 1 11 12
M  V30 12 2 12 13
M  V30 13 1 13 14
M  V30 14 2 14 15
M  V30 15 2 8 16
M  V30 16 1 16 17
M  V30 17 2 17 18
M  V30 18 1 18 19
M  V30 19 2 19 20
M  V30 20 1 20 21
M  V30 21 2 21 22
M  V30 22 1 22 23
M  V30 23 2 23 24
M  V30 24 1 23 25
M  V30 25 1 25 26
M  V30 26 1 26 27
M  V30 27 1 27 28
M  V30 28 1 22 29
M  V30 29 2 29 30
M  V30 30 1 18 31
M  V30 31 2 31 32
M  V30 32 1 32 33
M  V30 33 1 33 6
M  V30 34 1 15 10
M  V30 35 1 33 17
M  V30 36 1 30 19
M  V30 37 1 28 26
M  V30 38 1 1 34
M  V30 39 1 1 35
M  V30 40 1 1 36
M  V30 41 1 3 37
M  V30 42 1 3 38
M  V30 43 1 4 39
M  V30 44 1 4 40
M  V30 45 1 5 41
M  V30 46 1 11 42
M  V30 47 1 12 43
M  V30 48 1 13 44
M  V30 49 1 14 45
M  V30 50 1 15 46
M  V30 51 1 20 47
M  V30 52 1 21 48
M  V30 53 1 25 49
M  V30 54 1 26 50
M  V30 55 1 27 51
M  V30 56 1 27 52
M  V30 57 1 28 53
M  V30 58 1 28 54
M  V30 59 1 29 55
M  V30 60 1 30 56
M  V30 61 1 31 57
M  V30 END BOND
M  V30 END CTAB
M  END
>  <Dataset>  (915) 
ChEMBL_Kinases

>  <Ligand_Instance>  (915) 
nan

>  <PDB_ID>  (915) 
nan

>  <Standardized_SMILES>  (915) 
COCCNc1nc(Oc2ccccc2)nc2c(-c3ccc(C(=O)NC4CC4)cc3)cnn12

>  <Name>  (915) 
nan

>  <Pocket>  (915) 
nan

>  <ATP_Site>  (915) 
nan

>  <Peripheral>  (915) 
nan

>  <Num_H_Atoms_ProtBoundConf>  (915) 
nan

>  <Num_Resolved_Atoms>  (915) 
nan

>  <Num_Not_Resolved_Atoms>  (915) 
nan

$$$$
CHEMBL3819520
     RDKit          3D

  0  0  0  0  0  0  0  0  0  0999 V3000
M  V30 BEGIN CTAB
M  V30 COUNTS 102 108 0 0 0
M  V30 BEGIN ATOM
M  V30 1 O 0.811909 -5.286462 0.383930 0
M  V30 2 C 0.348912 -4.398475 1.150038 0
M  V30 3 N 1.211168 -3.291551 1.325993 0
M  V30 4 O 2.319895 -3.564772 0.568697 0
M  V30 5 C 3.257976 -2.512646 0.691041 0
M  V30 6 C 4.492543 -2.895320 -0.056848 0
M  V30 7 N 5.558334 -1.970237 -0.053253 0
M  V30 8 C 5.290981 -0.730209 -0.836935 0
M  V30 9 C 6.517346 0.066532 -0.746589 0
M  V30 10 C 6.810813 1.316120 -1.385297 0
M  V30 11 C 6.173804 2.602516 -1.319698 0
M  V30 12 S 4.657111 3.097747 -1.961237 0
M  V30 13 O 4.594164 4.650286 -1.634319 0
M  V30 14 O 4.846208 3.218410 -3.521041 0
M  V30 15 N 3.185922 2.512416 -1.621890 0
M  V30 16 C 2.638730 1.270041 -1.818547 0
M  V30 17 C 1.789700 0.884459 -0.613271 0
M  V30 18 N 0.793657 1.873263 -0.318750 0
M  V30 19 C -0.617695 1.786532 -0.252293 0
M  V30 20 N -1.304595 0.695120 -0.547913 0
M  V30 21 C -2.664907 0.699553 -0.451909 0
M  V30 22 N -3.509078 -0.398403 -0.743259 0
M  V30 23 C -4.948749 -0.390330 -0.573865 0
M  V30 24 C -5.549112 -0.507199 -1.963339 0
M  V30 25 O -5.172682 -1.694538 -2.533310 0
M  V30 26 C -4.287454 -2.460353 -1.806029 0
M  V30 27 C -3.110055 -1.694244 -1.253843 0
M  V30 28 N -3.292684 1.820048 -0.055805 0
M  V30 29 C -2.611410 2.930218 0.245671 0
M  V30 30 N -3.196002 4.161600 0.673160 0
M  V30 31 C -3.718892 5.137309 -0.082664 0
M  V30 32 C -3.805257 5.144854 -1.581782 0
M  V30 33 F -5.131863 5.219196 -1.916854 0
M  V30 34 F -3.073129 6.210534 -2.075795 0
M  V30 35 N -4.162320 6.125826 0.706593 0
M  V30 36 C -3.920461 5.780477 1.998650 0
M  V30 37 C -4.150471 6.383298 3.226108 0
M  V30 38 C -3.773833 5.749496 4.397167 0
M  V30 39 C -3.161197 4.499762 4.337548 0
M  V30 40 C -2.920093 3.875688 3.125232 0
M  V30 41 C -3.312411 4.543932 1.975364 0
M  V30 42 N -1.277896 2.887359 0.139487 0
M  V30 43 C 1.493991 3.124800 -0.076617 0
M  V30 44 C 2.121192 3.496050 -1.411912 0
M  V30 45 C -0.970048 -4.578973 1.760240 0
M  V30 46 C -1.489078 -3.614089 2.592988 0
M  V30 47 C -2.736816 -3.798353 3.163607 0
M  V30 48 C -3.446083 -4.944304 2.893315 0
M  V30 49 F -4.649691 -5.086428 3.465690 0
M  V30 50 C -2.874413 -5.880124 2.048727 0
M  V30 51 F -3.607518 -6.990448 1.811189 0
M  V30 52 C -1.634369 -5.746067 1.453139 0
M  V30 53 N -1.070161 -6.717535 0.592158 0
M  V30 54 C -1.119980 -6.927446 -0.807054 0
M  V30 55 C -1.843717 -6.069263 -1.604045 0
M  V30 56 C -1.843253 -6.334325 -2.956634 0
M  V30 57 C -1.153850 -7.408274 -3.512834 0
M  V30 58 I -1.172318 -7.788156 -5.586688 0
M  V30 59 C -0.452739 -8.221363 -2.648402 0
M  V30 60 C -0.411660 -8.010394 -1.271667 0
M  V30 61 F 0.288514 -8.825800 -0.436378 0
M  V30 62 H 0.864377 -2.521981 1.959791 0
M  V30 63 H 2.791785 -1.620320 0.248281 0
M  V30 64 H 3.448964 -2.287791 1.752938 0
M  V30 65 H 4.846830 -3.921169 0.224144 0
M  V30 66 H 4.167984 -3.009897 -1.138757 0
M  V30 67 H 5.850054 -1.723884 0.914797 0
M  V30 68 H 5.079327 -1.053086 -1.851675 0
M  V30 69 H 4.423730 -0.303326 -0.276655 0
M  V30 70 H 7.356028 -0.667030 -1.101117 0
M  V30 71 H 6.844430 0.109085 0.381309 0
M  V30 72 H 7.040029 1.087378 -2.535222 0
M  V30 73 H 7.949207 1.508528 -1.111669 0
M  V30 74 H 6.936396 3.387874 -1.776150 0
M  V30 75 H 6.273116 3.027755 -0.209654 0
M  V30 76 H 3.216262 0.426477 -2.169981 0
M  V30 77 H 1.830480 1.400668 -2.647637 0
M  V30 78 H 1.322734 -0.091266 -0.861112 0
M  V30 79 H 2.387367 0.743634 0.309022 0
M  V30 80 H -5.266619 -1.267943 0.041155 0
M  V30 81 H -5.312972 0.507687 -0.040354 0
M  V30 82 H -5.204809 0.356780 -2.568934 0
M  V30 83 H -6.660854 -0.470320 -1.925178 0
M  V30 84 H -4.841790 -2.994242 -0.986927 0
M  V30 85 H -3.881326 -3.234305 -2.487536 0
M  V30 86 H -2.699997 -2.272701 -0.402359 0
M  V30 87 H -2.312602 -1.612461 -2.020613 0
M  V30 88 H -3.382690 4.206977 -1.995224 0
M  V30 89 H -4.628021 7.352866 3.244474 0
M  V30 90 H -3.947060 6.210611 5.370800 0
M  V30 91 H -2.848273 3.966854 5.236253 0
M  V30 92 H -2.446497 2.908800 3.090130 0
M  V30 93 H 0.782388 3.923771 0.224017 0
M  V30 94 H 2.323438 3.007794 0.646485 0
M  V30 95 H 1.336705 3.263565 -2.188502 0
M  V30 96 H 2.450471 4.529832 -1.482952 0
M  V30 97 H -0.967695 -2.697044 2.833083 0
M  V30 98 H -3.154571 -3.052872 3.815489 0
M  V30 99 H -0.553202 -7.311887 1.272992 0
M  V30 100 H -2.364524 -5.251701 -1.148145 0
M  V30 101 H -2.412270 -5.664469 -3.598908 0
M  V30 102 H 0.103849 -9.078903 -3.036644 0
M  V30 END ATOM
M  V30 BEGIN BOND
M  V30 1 2 1 2
M  V30 2 1 2 3
M  V30 3 1 3 4
M  V30 4 1 4 5
M  V30 5 1 5 6
M  V30 6 1 6 7
M  V30 7 1 7 8
M  V30 8 1 8 9
M  V30 9 1 9 10
M  V30 10 1 10 11
M  V30 11 1 11 12
M  V30 12 2 12 13
M  V30 13 2 12 14
M  V30 14 1 12 15
M  V30 15 1 15 16
M  V30 16 1 16 17
M  V30 17 1 17 18
M  V30 18 1 18 19
M  V30 19 2 19 20
M  V30 20 1 20 21
M  V30 21 1 21 22
M  V30 22 1 22 23
M  V30 23 1 23 24
M  V30 24 1 24 25
M  V30 25 1 25 26
M  V30 26 1 26 27
M  V30 27 2 21 28
M  V30 28 1 28 29
M  V30 29 1 29 30
M  V30 30 1 30 31
M  V30 31 1 31 32
M  V30 32 1 32 33
M  V30 33 1 32 34
M  V30 34 2 31 35
M  V30 35 1 35 36
M  V30 36 2 36 37
M  V30 37 1 37 38
M  V30 38 2 38 39
M  V30 39 1 39 40
M  V30 40 2 40 41
M  V30 41 2 29 42
M  V30 42 1 18 43
M  V30 43 1 43 44
M  V30 44 1 2 45
M  V30 45 2 45 46
M  V30 46 1 46 47
M  V30 47 2 47 48
M  V30 48 1 48 49
M  V30 49 1 48 50
M  V30 50 1 50 51
M  V30 51 2 50 52
M  V30 52 1 52 53
M  V30 53 1 53 54
M  V30 54 2 54 55
M  V30 55 1 55 56
M  V30 56 2 56 57
M  V30 57 1 57 58
M  V30 58 1 57 59
M  V30 59 2 59 60
M  V30 60 1 60 61
M  V30 61 1 44 15
M  V30 62 1 52 45
M  V30 63 1 60 54
M  V30 64 1 42 19
M  V30 65 1 27 22
M  V30 66 1 41 30
M  V30 67 1 41 36
M  V30 68 1 3 62
M  V30 69 1 5 63
M  V30 70 1 5 64
M  V30 71 1 6 65
M  V30 72 1 6 66
M  V30 73 1 7 67
M  V30 74 1 8 68
M  V30 75 1 8 69
M  V30 76 1 9 70
M  V30 77 1 9 71
M  V30 78 1 10 72
M  V30 79 1 10 73
M  V30 80 1 11 74
M  V30 81 1 11 75
M  V30 82 1 16 76
M  V30 83 1 16 77
M  V30 84 1 17 78
M  V30 85 1 17 79
M  V30 86 1 23 80
M  V30 87 1 23 81
M  V30 88 1 24 82
M  V30 89 1 24 83
M  V30 90 1 26 84
M  V30 91 1 26 85
M  V30 92 1 27 86
M  V30 93 1 27 87
M  V30 94 1 32 88
M  V30 95 1 37 89
M  V30 96 1 38 90
M  V30 97 1 39 91
M  V30 98 1 40 92
M  V30 99 1 43 93
M  V30 100 1 43 94
M  V30 101 1 44 95
M  V30 102 1 44 96
M  V30 103 1 46 97
M  V30 104 1 47 98
M  V30 105 1 53 99
M  V30 106 1 55 100
M  V30 107 1 56 101
M  V30 108 1 59 102
M  V30 END BOND
M  V30 END CTAB
M  END
>  <Dataset>  (916) 
ChEMBL_Kinases

>  <Ligand_Instance>  (916) 
nan

>  <PDB_ID>  (916) 
nan

>  <Standardized_SMILES>  (916) 
O=C(NOCCNCCCCS(=O)(=O)N1CCN(c2nc(N3CCOCC3)nc(-n3c(C(F)F)nc4ccccc43)n2)CC1)c1ccc(F)c(F)c1Nc1ccc(I)cc1F

>  <Name>  (916) 
nan

>  <Pocket>  (916) 
nan

>  <ATP_Site>  (916) 
nan

>  <Peripheral>  (916) 
nan

>  <Num_H_Atoms_ProtBoundConf>  (916) 
nan

>  <Num_Resolved_Atoms>  (916) 
nan

>  <Num_Not_Resolved_Atoms>  (916) 
nan

$$$$
CHEMBL381952
     RDKit          3D

  0  0  0  0  0  0  0  0  0  0999 V3000
M  V30 BEGIN CTAB
M  V30 COUNTS 48 52 0 0 0
M  V30 BEGIN ATOM
M  V30 1 O -0.475687 -3.787164 -2.099775 0
M  V30 2 C 0.296223 -2.859512 -1.433663 0
M  V30 3 N 1.574656 -2.938184 -1.800228 0
M  V30 4 C 2.545698 -2.155263 -1.311481 0
M  V30 5 C 3.845917 -2.308302 -1.744839 0
M  V30 6 C 4.817309 -1.489872 -1.216690 0
M  V30 7 C 4.453302 -0.555517 -0.280944 0
M  V30 8 Cl 5.699937 0.457029 0.362806 0
M  V30 9 C 3.130254 -0.476993 0.089348 0
M  V30 10 C 2.097436 -1.246229 -0.380670 0
M  V30 11 C 0.785812 -1.123186 0.033352 0
M  V30 12 N 0.492540 -0.123028 0.984470 0
M  V30 13 C 0.540991 0.942463 1.899043 0
M  V30 14 C 0.947811 2.290409 1.281716 0
M  V30 15 C 0.708482 3.323327 2.393937 0
M  V30 16 N 1.617640 3.074659 3.497216 0
M  V30 17 C 2.377758 1.844988 3.333097 0
M  V30 18 C 1.433423 0.705606 3.112465 0
M  V30 19 C -0.165144 -1.965383 -0.513556 0
M  V30 20 C -1.573094 -1.911993 -0.144856 0
M  V30 21 N -2.306047 -1.172919 0.691085 0
M  V30 22 C -3.597074 -1.470547 0.715681 0
M  V30 23 C -4.607881 -0.889961 1.471436 0
M  V30 24 C -5.875774 -1.406281 1.292804 0
M  V30 25 C -6.091769 -2.440509 0.405800 0
M  V30 26 C -5.024258 -2.965695 -0.312717 0
M  V30 27 C -3.720819 -2.499679 -0.187719 0
M  V30 28 N -2.494915 -2.729294 -0.674750 0
M  V30 29 H -0.384289 -4.785596 -1.996385 0
M  V30 30 H 4.024240 -3.088800 -2.497965 0
M  V30 31 H 5.801490 -1.682344 -1.614857 0
M  V30 32 H 2.967235 0.276955 0.822918 0
M  V30 33 H -0.495613 -0.220150 1.193963 0
M  V30 34 H -0.450702 1.235695 2.387859 0
M  V30 35 H 0.159551 2.532092 0.523015 0
M  V30 36 H 1.952576 2.325471 0.904832 0
M  V30 37 H 0.738279 4.355315 2.026295 0
M  V30 38 H -0.317658 3.126890 2.767819 0
M  V30 39 H 2.229751 3.871170 3.735627 0
M  V30 40 H 2.880182 1.666837 4.308526 0
M  V30 41 H 3.145150 1.924141 2.558180 0
M  V30 42 H 0.858958 0.576871 4.050960 0
M  V30 43 H 2.018027 -0.233854 2.956003 0
M  V30 44 H -4.379120 -0.080616 2.151964 0
M  V30 45 H -6.675520 -0.967239 1.872362 0
M  V30 46 H -7.079664 -2.857027 0.253730 0
M  V30 47 H -5.182201 -3.779067 -1.013022 0
M  V30 48 H -2.499374 -3.486927 -1.359470 0
M  V30 END ATOM
M  V30 BEGIN BOND
M  V30 1 1 1 2
M  V30 2 2 2 3
M  V30 3 1 3 4
M  V30 4 2 4 5
M  V30 5 1 5 6
M  V30 6 2 6 7
M  V30 7 1 7 8
M  V30 8 1 7 9
M  V30 9 2 9 10
M  V30 10 1 10 11
M  V30 11 1 11 12
M  V30 12 1 12 13
M  V30 13 1 13 14
M  V30 14 1 14 15
M  V30 15 1 15 16
M  V30 16 1 16 17
M  V30 17 1 17 18
M  V30 18 2 11 19
M  V30 19 1 19 20
M  V30 20 2 20 21
M  V30 21 1 21 22
M  V30 22 2 22 23
M  V30 23 1 23 24
M  V30 24 2 24 25
M  V30 25 1 25 26
M  V30 26 2 26 27
M  V30 27 1 27 28
M  V30 28 1 19 2
M  V30 29 1 28 20
M  V30 30 1 10 4
M  V30 31 1 18 13
M  V30 32 1 27 22
M  V30 33 1 1 29
M  V30 34 1 5 30
M  V30 35 1 6 31
M  V30 36 1 9 32
M  V30 37 1 12 33
M  V30 38 1 13 34
M  V30 39 1 14 35
M  V30 40 1 14 36
M  V30 41 1 15 37
M  V30 42 1 15 38
M  V30 43 1 16 39
M  V30 44 1 17 40
M  V30 45 1 17 41
M  V30 46 1 18 42
M  V30 47 1 18 43
M  V30 48 1 23 44
M  V30 49 1 24 45
M  V30 50 1 25 46
M  V30 51 1 26 47
M  V30 52 1 28 48
M  V30 END BOND
M  V30 END CTAB
M  END
>  <Dataset>  (917) 
ChEMBL_Kinases

>  <Ligand_Instance>  (917) 
nan

>  <PDB_ID>  (917) 
nan

>  <Standardized_SMILES>  (917) 
Oc1nc2ccc(Cl)cc2c(NC2CCNCC2)c1-c1nc2ccccc2[nH]1

>  <Name>  (917) 
nan

>  <Pocket>  (917) 
nan

>  <ATP_Site>  (917) 
nan

>  <Peripheral>  (917) 
nan

>  <Num_H_Atoms_ProtBoundConf>  (917) 
nan

>  <Num_Resolved_Atoms>  (917) 
nan

>  <Num_Not_Resolved_Atoms>  (917) 
nan

$$$$
CHEMBL3827904
     RDKit          3D

  0  0  0  0  0  0  0  0  0  0999 V3000
M  V30 BEGIN CTAB
M  V30 COUNTS 50 54 0 0 0
M  V30 BEGIN ATOM
M  V30 1 C 1.473297 -3.162757 -6.354022 0
M  V30 2 N 2.137498 -2.992176 -5.068744 0
M  V30 3 C 1.668827 -2.242128 -4.027390 0
M  V30 4 C 2.667491 -2.419965 -3.066397 0
M  V30 5 C 2.499563 -1.737911 -1.766592 0
M  V30 6 C 1.854472 -0.525575 -1.674788 0
M  V30 7 C 1.679213 0.137926 -0.480048 0
M  V30 8 C 2.167210 -0.425463 0.691869 0
M  V30 9 C 2.009976 0.205904 2.008670 0
M  V30 10 C 3.207778 0.390815 2.668967 0
M  V30 11 N 3.101157 1.014840 3.883544 0
M  V30 12 C 1.892439 1.396604 4.345840 0
M  V30 13 N 1.897770 2.035944 5.615065 0
M  V30 14 C 0.690461 1.217074 3.695739 0
M  V30 15 C -0.501140 1.633426 4.244440 0
M  V30 16 C -1.673831 1.412345 3.537798 0
M  V30 17 C -1.585384 0.776373 2.300042 0
M  V30 18 C -2.790504 0.532397 1.539046 0
M  V30 19 O -2.711393 0.866518 0.321873 0
M  V30 20 N -3.955766 -0.036489 2.128054 0
M  V30 21 C -4.470720 -0.540167 3.397212 0
M  V30 22 C -5.538244 -1.329983 2.669841 0
M  V30 23 F -5.153422 -2.620120 2.392765 0
M  V30 24 F -6.804624 -1.240272 3.206519 0
M  V30 25 C -5.256212 -0.360774 1.551751 0
M  V30 26 C -0.387034 0.363393 1.756520 0
M  V30 27 C 0.769958 0.589201 2.468303 0
M  V30 28 C 2.828631 -1.656671 0.629395 0
M  V30 29 C 3.000660 -2.320743 -0.591550 0
M  V30 30 C 3.679135 -3.238273 -3.522107 0
M  V30 31 N 3.299244 -3.566465 -4.773688 0
M  V30 32 H 1.743664 -4.110741 -6.837765 0
M  V30 33 H 1.821439 -2.343236 -7.024029 0
M  V30 34 H 0.377141 -3.015233 -6.277039 0
M  V30 35 H 0.760205 -1.672383 -3.989039 0
M  V30 36 H 1.449067 -0.025841 -2.564533 0
M  V30 37 H 1.168532 1.106150 -0.456986 0
M  V30 38 H 4.162781 0.081818 2.286019 0
M  V30 39 H 2.013029 2.987960 6.074651 0
M  V30 40 H 1.973938 2.833642 6.279273 0
M  V30 41 H -0.554712 2.117217 5.190387 0
M  V30 42 H -2.668401 1.695899 3.875052 0
M  V30 43 H -3.808246 -1.237894 3.920726 0
M  V30 44 H -4.955876 0.221175 4.032395 0
M  V30 45 H -5.986939 0.468198 1.557290 0
M  V30 46 H -5.189026 -0.917185 0.585895 0
M  V30 47 H -0.365955 -0.133668 0.799386 0
M  V30 48 H 3.193188 -2.068441 1.547018 0
M  V30 49 H 3.520519 -3.283033 -0.623225 0
M  V30 50 H 4.550668 -3.502672 -2.934140 0
M  V30 END ATOM
M  V30 BEGIN BOND
M  V30 1 1 1 2
M  V30 2 1 2 3
M  V30 3 2 3 4
M  V30 4 1 4 5
M  V30 5 2 5 6
M  V30 6 1 6 7
M  V30 7 2 7 8
M  V30 8 1 8 9
M  V30 9 2 9 10
M  V30 10 1 10 11
M  V30 11 2 11 12
M  V30 12 1 12 13
M  V30 13 1 12 14
M  V30 14 2 14 15
M  V30 15 1 15 16
M  V30 16 2 16 17
M  V30 17 1 17 18
M  V30 18 2 18 19
M  V30 19 1 18 20
M  V30 20 1 20 21
M  V30 21 1 21 22
M  V30 22 1 22 23
M  V30 23 1 22 24
M  V30 24 1 22 25
M  V30 25 1 17 26
M  V30 26 2 26 27
M  V30 27 1 8 28
M  V30 28 2 28 29
M  V30 29 1 4 30
M  V30 30 2 30 31
M  V30 31 1 31 2
M  V30 32 1 29 5
M  V30 33 1 27 9
M  V30 34 1 27 14
M  V30 35 1 25 20
M  V30 36 1 1 32
M  V30 37 1 1 33
M  V30 38 1 1 34
M  V30 39 1 3 35
M  V30 40 1 6 36
M  V30 41 1 7 37
M  V30 42 1 10 38
M  V30 43 1 13 39
M  V30 44 1 13 40
M  V30 45 1 15 41
M  V30 46 1 16 42
M  V30 47 1 21 43
M  V30 48 1 21 44
M  V30 49 1 25 45
M  V30 50 1 25 46
M  V30 51 1 26 47
M  V30 52 1 28 48
M  V30 53 1 29 49
M  V30 54 1 30 50
M  V30 END BOND
M  V30 END CTAB
M  END
>  <Dataset>  (918) 
ChEMBL_Kinases

>  <Ligand_Instance>  (918) 
nan

>  <PDB_ID>  (918) 
nan

>  <Standardized_SMILES>  (918) 
Cn1cc(-c2ccc(-c3cnc(N)c4ccc(C(=O)N5CC(F)(F)C5)cc34)cc2)cn1

>  <Name>  (918) 
nan

>  <Pocket>  (918) 
nan

>  <ATP_Site>  (918) 
nan

>  <Peripheral>  (918) 
nan

>  <Num_H_Atoms_ProtBoundConf>  (918) 
nan

>  <Num_Resolved_Atoms>  (918) 
nan

>  <Num_Not_Resolved_Atoms>  (918) 
nan

$$$$
CHEMBL495557
     RDKit          3D

  0  0  0  0  0  0  0  0  0  0999 V3000
M  V30 BEGIN CTAB
M  V30 COUNTS 49 51 0 0 0
M  V30 BEGIN ATOM
M  V30 1 C 1.721987 -5.443996 0.785623 0
M  V30 2 C 0.962473 -4.230016 0.295877 0
M  V30 3 C -0.126999 -3.962227 1.307015 0
M  V30 4 C 0.358019 -4.564346 -1.054315 0
M  V30 5 C 1.858648 -3.026680 0.183891 0
M  V30 6 C 2.092877 -2.112365 1.188122 0
M  V30 7 N 2.940322 -1.220718 0.658222 0
M  V30 8 C 3.227628 -1.550433 -0.610325 0
M  V30 9 C 4.144458 -0.738558 -1.447167 0
M  V30 10 S 3.256932 0.547758 -2.361505 0
M  V30 11 C 2.568860 1.760280 -1.125129 0
M  V30 12 C 2.758330 2.889498 -0.415223 0
M  V30 13 N 1.781964 3.254611 0.368753 0
M  V30 14 C 0.756404 2.750606 0.554888 0
M  V30 15 N -0.418598 3.080505 1.409336 0
M  V30 16 C -1.553750 2.218193 1.414482 0 CFG=1
M  V30 17 C -1.311507 0.831217 1.946633 0
M  V30 18 C -2.469330 -0.017739 1.414989 0
M  V30 19 C -3.781184 0.692080 1.699270 0 CFG=2
M  V30 20 O -4.313375 1.285816 0.545386 0
M  V30 21 C -3.586205 1.799440 2.713446 0
M  V30 22 C -2.748103 2.876724 2.046392 0
M  V30 23 S 0.825285 1.294174 -0.528072 0
M  V30 24 O 2.552297 -2.653565 -0.864505 0
M  V30 25 H 1.118278 -6.025448 1.510592 0
M  V30 26 H 1.914300 -6.141790 -0.063601 0
M  V30 27 H 2.679168 -5.171816 1.290669 0
M  V30 28 H 0.015635 -4.542540 2.246963 0
M  V30 29 H -0.158537 -2.868899 1.538468 0
M  V30 30 H -1.089662 -4.280076 0.860528 0
M  V30 31 H -0.639409 -5.001154 -0.895892 0
M  V30 32 H 1.020881 -5.210436 -1.652846 0
M  V30 33 H 0.286993 -3.584126 -1.595048 0
M  V30 34 H 1.674694 -2.120904 2.192160 0
M  V30 35 H 4.904591 -0.261865 -0.825062 0
M  V30 36 H 4.614713 -1.382508 -2.192547 0
M  V30 37 H 3.743002 3.226248 -0.699411 0
M  V30 38 H -0.309039 3.937191 1.945481 0
M  V30 39 H -1.855340 2.046327 0.333945 0
M  V30 40 H -1.279839 0.800293 3.054666 0
M  V30 41 H -0.382758 0.442192 1.505656 0
M  V30 42 H -2.438459 -1.054122 1.746802 0
M  V30 43 H -2.343569 -0.001788 0.309929 0
M  V30 44 H -4.519888 -0.050989 2.080779 0
M  V30 45 H -4.243824 0.676197 -0.247371 0
M  V30 46 H -4.561769 2.225658 2.978143 0
M  V30 47 H -3.126009 1.442348 3.645135 0
M  V30 48 H -2.498020 3.681548 2.764276 0
M  V30 49 H -3.430668 3.352752 1.287099 0
M  V30 END ATOM
M  V30 BEGIN BOND
M  V30 1 1 1 2
M  V30 2 1 2 3
M  V30 3 1 2 4
M  V30 4 1 2 5
M  V30 5 2 5 6
M  V30 6 1 6 7
M  V30 7 2 7 8
M  V30 8 1 8 9
M  V30 9 1 9 10
M  V30 10 1 10 11
M  V30 11 2 11 12
M  V30 12 1 12 13
M  V30 13 2 13 14
M  V30 14 1 14 15
M  V30 15 1 15 16
M  V30 16 1 16 17
M  V30 17 1 17 18
M  V30 18 1 18 19
M  V30 19 1 19 20
M  V30 20 1 19 21
M  V30 21 1 21 22
M  V30 22 1 14 23
M  V30 23 1 8 24
M  V30 24 1 24 5
M  V30 25 1 23 11
M  V30 26 1 22 16
M  V30 27 1 1 25
M  V30 28 1 1 26
M  V30 29 1 1 27
M  V30 30 1 3 28
M  V30 31 1 3 29
M  V30 32 1 3 30
M  V30 33 1 4 31
M  V30 34 1 4 32
M  V30 35 1 4 33
M  V30 36 1 6 34
M  V30 37 1 9 35
M  V30 38 1 9 36
M  V30 39 1 12 37
M  V30 40 1 15 38
M  V30 41 1 16 39 CFG=3
M  V30 42 1 17 40
M  V30 43 1 17 41
M  V30 44 1 18 42
M  V30 45 1 18 43
M  V30 46 1 19 44 CFG=1
M  V30 47 1 20 45
M  V30 48 1 21 46
M  V30 49 1 21 47
M  V30 50 1 22 48
M  V30 51 1 22 49
M  V30 END BOND
M  V30 END CTAB
M  END
>  <Dataset>  (919) 
ChEMBL_Kinases

>  <Ligand_Instance>  (919) 
nan

>  <PDB_ID>  (919) 
nan

>  <Standardized_SMILES>  (919) 
CC(C)(C)c1cnc(CSc2cnc(N[C@H]3CC[C@H](O)CC3)s2)o1

>  <Name>  (919) 
nan

>  <Pocket>  (919) 
nan

>  <ATP_Site>  (919) 
nan

>  <Peripheral>  (919) 
nan

>  <Num_H_Atoms_ProtBoundConf>  (919) 
nan

>  <Num_Resolved_Atoms>  (919) 
nan

>  <Num_Not_Resolved_Atoms>  (919) 
nan

$$$$
CHEMBL3819411
     RDKit          3D

  0  0  0  0  0  0  0  0  0  0999 V3000
M  V30 BEGIN CTAB
M  V30 COUNTS 71 76 0 0 0
M  V30 BEGIN ATOM
M  V30 1 C -2.457289 -4.594254 1.991527 0
M  V30 2 C -2.006206 -3.319650 2.547187 0
M  V30 3 C -0.927474 -2.662406 1.955988 0
M  V30 4 C -0.497732 -1.461424 2.476181 0
M  V30 5 C 0.634971 -0.678865 1.953222 0
M  V30 6 C 1.539680 0.089843 2.652210 0
M  V30 7 N 2.367753 0.624599 1.707493 0
M  V30 8 N 1.967272 0.190484 0.526458 0
M  V30 9 C 2.523378 0.474083 -0.662549 0
M  V30 10 N 3.629320 1.321861 -0.939207 0
M  V30 11 C 3.070343 2.594191 -1.423603 0
M  V30 12 C 4.156575 3.594220 -1.727809 0
M  V30 13 C 3.538227 4.875653 -2.232486 0
M  V30 14 C 2.833333 5.678240 -1.187996 0
M  V30 15 O 3.429328 5.637025 0.064495 0
M  V30 16 C 4.776868 5.382154 -0.110425 0
M  V30 17 C 4.937885 3.906662 -0.452228 0
M  V30 18 N 2.011649 -0.056594 -1.784203 0
M  V30 19 C 0.943228 -0.873793 -1.747266 0
M  V30 20 N 0.398607 -1.457318 -2.942381 0
M  V30 21 C -0.769610 -2.353951 -2.971352 0
M  V30 22 C -0.545277 -3.545899 -2.091665 0
M  V30 23 C -0.821172 -4.788042 -2.868632 0
M  V30 24 C -1.395159 -4.287699 -4.184119 0
M  V30 25 C -0.854042 -2.907873 -4.361921 0
M  V30 26 N 0.394670 -1.148322 -0.546461 0
M  V30 27 C 0.892691 -0.627341 0.590828 0
M  V30 28 C -1.094311 -0.850386 3.588934 0
M  V30 29 C -2.165693 -1.476249 4.198885 0
M  V30 30 C -2.549188 -2.673165 3.632393 0
M  V30 31 N -3.655879 -3.325361 4.287168 0
M  V30 32 C -4.796865 -2.663847 3.766842 0
M  V30 33 O -4.907867 -1.703904 2.917993 0
M  V30 34 C -6.273439 -2.580776 3.782364 0
M  V30 35 C -6.948118 -2.745125 5.087810 0
M  V30 36 C -7.154711 -3.732196 3.985774 0
M  V30 37 H -2.674209 -4.537666 0.891948 0
M  V30 38 H -3.250437 -5.051047 2.584452 0
M  V30 39 H -1.576798 -5.296427 2.066219 0
M  V30 40 H -0.392789 -3.036707 1.101140 0
M  V30 41 H 1.580606 0.233247 3.724106 0
M  V30 42 H 4.447146 0.727214 -0.696417 0
M  V30 43 H 2.454883 2.408170 -2.327105 0
M  V30 44 H 2.451607 2.991604 -0.591709 0
M  V30 45 H 4.835765 3.221383 -2.518082 0
M  V30 46 H 2.773025 4.608564 -3.011271 0
M  V30 47 H 4.314564 5.524132 -2.734973 0
M  V30 48 H 1.743932 5.419486 -1.125949 0
M  V30 49 H 2.854976 6.771364 -1.483828 0
M  V30 50 H 5.310188 5.604959 0.833645 0
M  V30 51 H 5.241361 6.016466 -0.892528 0
M  V30 52 H 4.493065 3.321937 0.365348 0
M  V30 53 H 6.010273 3.730227 -0.566282 0
M  V30 54 H 0.901172 -1.199447 -3.842990 0
M  V30 55 H -1.660299 -1.765382 -2.684460 0
M  V30 56 H 0.461775 -3.555771 -1.611396 0
M  V30 57 H -1.276886 -3.471995 -1.252624 0
M  V30 58 H -1.618854 -5.392744 -2.397023 0
M  V30 59 H 0.033423 -5.449352 -3.007883 0
M  V30 60 H -1.034383 -4.953710 -5.007497 0
M  V30 61 H -2.498978 -4.347789 -4.199570 0
M  V30 62 H -1.502189 -2.257478 -4.977243 0
M  V30 63 H 0.185454 -2.963201 -4.768759 0
M  V30 64 H -0.772301 0.084350 4.007792 0
M  V30 65 H -2.667880 -1.063124 5.055833 0
M  V30 66 H -4.102483 -4.014663 4.888458 0
M  V30 67 H -6.622991 -1.769689 3.074935 0
M  V30 68 H -7.710897 -1.952535 5.297846 0
M  V30 69 H -6.365004 -3.113766 5.958411 0
M  V30 70 H -8.163925 -3.680338 3.497482 0
M  V30 71 H -6.790385 -4.774275 4.140122 0
M  V30 END ATOM
M  V30 BEGIN BOND
M  V30 1 1 1 2
M  V30 2 2 2 3
M  V30 3 1 3 4
M  V30 4 1 4 5
M  V30 5 1 5 6
M  V30 6 2 6 7
M  V30 7 1 7 8
M  V30 8 1 8 9
M  V30 9 1 9 10
M  V30 10 1 10 11
M  V30 11 1 11 12
M  V30 12 1 12 13
M  V30 13 1 13 14
M  V30 14 1 14 15
M  V30 15 1 15 16
M  V30 16 1 16 17
M  V30 17 2 9 18
M  V30 18 1 18 19
M  V30 19 1 19 20
M  V30 20 1 20 21
M  V30 21 1 21 22
M  V30 22 1 22 23
M  V30 23 1 23 24
M  V30 24 1 24 25
M  V30 25 2 19 26
M  V30 26 1 26 27
M  V30 27 2 4 28
M  V30 28 1 28 29
M  V30 29 2 29 30
M  V30 30 1 30 31
M  V30 31 1 31 32
M  V30 32 2 32 33
M  V30 33 1 32 34
M  V30 34 1 34 35
M  V30 35 1 35 36
M  V30 36 1 30 2
M  V30 37 1 36 34
M  V30 38 2 27 5
M  V30 39 1 27 8
M  V30 40 1 17 12
M  V30 41 1 25 21
M  V30 42 1 1 37
M  V30 43 1 1 38
M  V30 44 1 1 39
M  V30 45 1 3 40
M  V30 46 1 6 41
M  V30 47 1 10 42
M  V30 48 1 11 43
M  V30 49 1 11 44
M  V30 50 1 12 45
M  V30 51 1 13 46
M  V30 52 1 13 47
M  V30 53 1 14 48
M  V30 54 1 14 49
M  V30 55 1 16 50
M  V30 56 1 16 51
M  V30 57 1 17 52
M  V30 58 1 17 53
M  V30 59 1 20 54
M  V30 60 1 21 55
M  V30 61 1 22 56
M  V30 62 1 22 57
M  V30 63 1 23 58
M  V30 64 1 23 59
M  V30 65 1 24 60
M  V30 66 1 24 61
M  V30 67 1 25 62
M  V30 68 1 25 63
M  V30 69 1 28 64
M  V30 70 1 29 65
M  V30 71 1 31 66
M  V30 72 1 34 67
M  V30 73 1 35 68
M  V30 74 1 35 69
M  V30 75 1 36 70
M  V30 76 1 36 71
M  V30 END BOND
M  V30 END CTAB
M  END
>  <Dataset>  (920) 
ChEMBL_Kinases

>  <Ligand_Instance>  (920) 
nan

>  <PDB_ID>  (920) 
nan

>  <Standardized_SMILES>  (920) 
Cc1cc(-c2cnn3c(NCC4CCOCC4)nc(NC4CCCC4)nc23)ccc1NC(=O)C1CC1

>  <Name>  (920) 
nan

>  <Pocket>  (920) 
nan

>  <ATP_Site>  (920) 
nan

>  <Peripheral>  (920) 
nan

>  <Num_H_Atoms_ProtBoundConf>  (920) 
nan

>  <Num_Resolved_Atoms>  (920) 
nan

>  <Num_Not_Resolved_Atoms>  (920) 
nan

$$$$
CHEMBL3819356
     RDKit          3D

  0  0  0  0  0  0  0  0  0  0999 V3000
M  V30 BEGIN CTAB
M  V30 COUNTS 55 58 0 0 0
M  V30 BEGIN ATOM
M  V30 1 C 3.140907 -7.146370 0.379697 0
M  V30 2 N 2.389846 -6.983898 1.601120 0
M  V30 3 C 2.025089 -5.605236 1.626736 0
M  V30 4 N 2.925092 -4.796761 2.243421 0
M  V30 5 C 2.643617 -3.462835 2.306803 0
M  V30 6 C 1.463569 -3.029260 1.739434 0
M  V30 7 C 1.188034 -1.662053 1.811400 0
M  V30 8 C 0.008089 -1.174245 1.252848 0
M  V30 9 C -0.198392 0.272066 1.374895 0
M  V30 10 C 0.333855 0.983953 0.293999 0
M  V30 11 C 0.228455 2.372183 0.244111 0
M  V30 12 C -0.414933 3.053587 1.284580 0
M  V30 13 N -0.537583 4.477239 1.259609 0
M  V30 14 C -0.032975 5.101815 2.365403 0
M  V30 15 C -0.090597 6.482054 2.463776 0
M  V30 16 C -0.648213 7.272637 1.470984 0
M  V30 17 C -1.142091 6.583528 0.376663 0
M  V30 18 C -1.767867 7.321120 -0.760630 0
M  V30 19 C -1.085377 5.207579 0.277137 0
M  V30 20 O -1.507762 4.519118 -0.674109 0
M  V30 21 C -0.935611 2.321665 2.348113 0
M  V30 22 C -0.831755 0.944305 2.398904 0
M  V30 23 Cl -1.448970 -0.044319 3.680526 0
M  V30 24 C -0.879358 -2.032422 0.634916 0
M  V30 25 O -1.933733 -1.551634 0.143054 0
M  V30 26 N -0.595564 -3.365547 0.572912 0
M  V30 27 C -1.525286 -4.272919 -0.075861 0
M  V30 28 C -1.134614 -4.352431 -1.538228 0
M  V30 29 C -2.057347 -5.286624 -2.308138 0
M  V30 30 N -1.639269 -5.320660 -3.680904 0
M  V30 31 C 0.543722 -3.841614 1.111402 0
M  V30 32 N 0.862162 -5.168144 1.069184 0
M  V30 33 H 2.552234 -6.882588 -0.518187 0
M  V30 34 H 4.044958 -6.491746 0.362859 0
M  V30 35 H 3.460106 -8.213800 0.257386 0
M  V30 36 H 2.149931 -7.685376 2.320266 0
M  V30 37 H 3.318665 -2.757573 2.785307 0
M  V30 38 H 1.889248 -0.992266 2.298310 0
M  V30 39 H 0.851410 0.547620 -0.562264 0
M  V30 40 H 0.619245 2.959902 -0.560738 0
M  V30 41 H 0.420356 4.546911 3.186108 0
M  V30 42 H 0.300102 7.002580 3.325669 0
M  V30 43 H -0.706279 8.355408 1.522441 0
M  V30 44 H -1.574536 8.406634 -0.701689 0
M  V30 45 H -2.853936 7.077936 -0.880404 0
M  V30 46 H -1.278425 6.942851 -1.694620 0
M  V30 47 H -1.441228 2.824215 3.171458 0
M  V30 48 H -2.547516 -3.804363 -0.078233 0
M  V30 49 H -1.613688 -5.251989 0.388076 0
M  V30 50 H -0.111441 -4.719574 -1.611911 0
M  V30 51 H -1.212082 -3.372113 -2.023138 0
M  V30 52 H -1.916338 -6.314428 -1.889219 0
M  V30 53 H -3.111585 -4.949069 -2.243930 0
M  V30 54 H -0.607453 -5.422436 -3.768772 0
M  V30 55 H -2.031806 -4.563549 -4.271286 0
M  V30 END ATOM
M  V30 BEGIN BOND
M  V30 1 1 1 2
M  V30 2 1 2 3
M  V30 3 2 3 4
M  V30 4 1 4 5
M  V30 5 2 5 6
M  V30 6 1 6 7
M  V30 7 2 7 8
M  V30 8 1 8 9
M  V30 9 2 9 10
M  V30 10 1 10 11
M  V30 11 2 11 12
M  V30 12 1 12 13
M  V30 13 1 13 14
M  V30 14 2 14 15
M  V30 15 1 15 16
M  V30 16 2 16 17
M  V30 17 1 17 18
M  V30 18 1 17 19
M  V30 19 2 19 20
M  V30 20 1 12 21
M  V30 21 2 21 22
M  V30 22 1 22 23
M  V30 23 1 8 24
M  V30 24 2 24 25
M  V30 25 1 24 26
M  V30 26 1 26 27
M  V30 27 1 27 28
M  V30 28 1 28 29
M  V30 29 1 29 30
M  V30 30 1 26 31
M  V30 31 2 31 32
M  V30 32 1 32 3
M  V30 33 1 31 6
M  V30 34 1 22 9
M  V30 35 1 19 13
M  V30 36 1 1 33
M  V30 37 1 1 34
M  V30 38 1 1 35
M  V30 39 1 2 36
M  V30 40 1 5 37
M  V30 41 1 7 38
M  V30 42 1 10 39
M  V30 43 1 11 40
M  V30 44 1 14 41
M  V30 45 1 15 42
M  V30 46 1 16 43
M  V30 47 1 18 44
M  V30 48 1 18 45
M  V30 49 1 18 46
M  V30 50 1 21 47
M  V30 51 1 27 48
M  V30 52 1 27 49
M  V30 53 1 28 50
M  V30 54 1 28 51
M  V30 55 1 29 52
M  V30 56 1 29 53
M  V30 57 1 30 54
M  V30 58 1 30 55
M  V30 END BOND
M  V30 END CTAB
M  END
>  <Dataset>  (921) 
ChEMBL_Kinases

>  <Ligand_Instance>  (921) 
nan

>  <PDB_ID>  (921) 
nan

>  <Standardized_SMILES>  (921) 
CNc1ncc2cc(-c3ccc(-n4cccc(C)c4=O)cc3Cl)c(=O)n(CCCN)c2n1

>  <Name>  (921) 
nan

>  <Pocket>  (921) 
nan

>  <ATP_Site>  (921) 
nan

>  <Peripheral>  (921) 
nan

>  <Num_H_Atoms_ProtBoundConf>  (921) 
nan

>  <Num_Resolved_Atoms>  (921) 
nan

>  <Num_Not_Resolved_Atoms>  (921) 
nan

$$$$
CHEMBL3819328
     RDKit          3D

  0  0  0  0  0  0  0  0  0  0999 V3000
M  V30 BEGIN CTAB
M  V30 COUNTS 68 73 0 0 0
M  V30 BEGIN ATOM
M  V30 1 C 5.212096 -1.131141 3.251465 0
M  V30 2 C 3.813353 -0.787632 2.889469 0
M  V30 3 C 3.351194 -0.629145 1.599047 0
M  V30 4 C 2.030108 -0.308544 1.356714 0
M  V30 5 C 1.518663 -0.135414 0.000456 0
M  V30 6 C 2.109852 0.577345 -1.045362 0
M  V30 7 N 1.257921 0.441105 -2.085203 0
M  V30 8 N 0.227109 -0.281595 -1.748715 0
M  V30 9 C -0.853273 -0.672372 -2.446258 0
M  V30 10 N -1.079398 -0.327986 -3.810385 0
M  V30 11 C -2.219825 -0.720149 -4.607485 0
M  V30 12 C -2.157464 -0.193304 -6.020260 0
M  V30 13 C -2.109158 1.297842 -6.105393 0
M  V30 14 C -3.485687 1.883733 -6.317573 0
M  V30 15 O -4.355578 1.219214 -5.480655 0
M  V30 16 C -4.652635 0.000504 -6.072333 0
M  V30 17 C -3.449377 -0.667182 -6.690390 0
M  V30 18 N -1.764595 -1.426302 -1.821499 0
M  V30 19 C -1.697265 -1.833987 -0.542885 0
M  V30 20 N -2.755069 -2.634303 -0.035656 0
M  V30 21 C -2.887597 -3.171403 1.263435 0
M  V30 22 C -1.998203 -3.013079 2.292623 0
M  V30 23 C -2.137890 -3.542496 3.555428 0
M  V30 24 C -3.248776 -4.299287 3.848270 0
M  V30 25 C -4.177862 -4.491358 2.848742 0
M  V30 26 C -3.973716 -3.933725 1.612834 0
M  V30 27 F -4.951934 -4.178130 0.677722 0
M  V30 28 N -0.612614 -1.433205 0.133357 0
M  V30 29 C 0.314166 -0.678454 -0.468174 0
M  V30 30 C 1.141454 -0.140037 2.423693 0
M  V30 31 C 1.614962 -0.301040 3.710870 0
M  V30 32 C 2.945417 -0.623269 3.936125 0
M  V30 33 C 3.256180 -0.751155 5.376400 0
M  V30 34 O 3.238377 -1.842101 6.043388 0
M  V30 35 N 3.605371 0.444025 6.080895 0
M  V30 36 C 3.947215 0.543111 7.502473 0
M  V30 37 C 4.925930 1.655054 7.851340 0
M  V30 38 C 3.489470 1.863227 8.161184 0
M  V30 39 H 5.382734 -2.223823 3.316533 0
M  V30 40 H 5.570020 -0.560042 4.117829 0
M  V30 41 H 5.830903 -0.799637 2.371272 0
M  V30 42 H 4.053796 -0.763564 0.794391 0
M  V30 43 H 3.043784 1.109699 -1.000771 0
M  V30 44 H -0.333338 0.270494 -4.266399 0
M  V30 45 H -2.316481 -1.825914 -4.681796 0
M  V30 46 H -3.179081 -0.349672 -4.185478 0
M  V30 47 H -1.321918 -0.694436 -6.516265 0
M  V30 48 H -1.476122 1.601618 -6.977819 0
M  V30 49 H -1.716499 1.755680 -5.171604 0
M  V30 50 H -3.836523 1.694567 -7.361310 0
M  V30 51 H -3.458079 2.973104 -6.130754 0
M  V30 52 H -5.176289 -0.640645 -5.334077 0
M  V30 53 H -5.395326 0.203385 -6.885207 0
M  V30 54 H -3.413662 -0.604665 -7.784413 0
M  V30 55 H -3.541485 -1.750766 -6.417982 0
M  V30 56 H -3.538940 -2.863982 -0.687905 0
M  V30 57 H -1.099093 -2.437997 2.163006 0
M  V30 58 H -1.409693 -3.392864 4.342005 0
M  V30 59 H -3.391479 -4.726225 4.815634 0
M  V30 60 H -5.060068 -5.082846 3.057054 0
M  V30 61 H 0.106279 0.112478 2.219887 0
M  V30 62 H 0.875916 -0.157213 4.482445 0
M  V30 63 H 3.623837 1.355135 5.537078 0
M  V30 64 H 3.938737 -0.367746 8.103229 0
M  V30 65 H 5.592721 1.544019 8.725585 0
M  V30 66 H 5.323325 2.259131 7.030275 0
M  V30 67 H 2.903409 2.573292 7.538479 0
M  V30 68 H 3.170468 1.831206 9.204142 0
M  V30 END ATOM
M  V30 BEGIN BOND
M  V30 1 1 1 2
M  V30 2 2 2 3
M  V30 3 1 3 4
M  V30 4 1 4 5
M  V30 5 1 5 6
M  V30 6 2 6 7
M  V30 7 1 7 8
M  V30 8 1 8 9
M  V30 9 1 9 10
M  V30 10 1 10 11
M  V30 11 1 11 12
M  V30 12 1 12 13
M  V30 13 1 13 14
M  V30 14 1 14 15
M  V30 15 1 15 16
M  V30 16 1 16 17
M  V30 17 2 9 18
M  V30 18 1 18 19
M  V30 19 1 19 20
M  V30 20 1 20 21
M  V30 21 2 21 22
M  V30 22 1 22 23
M  V30 23 2 23 24
M  V30 24 1 24 25
M  V30 25 2 25 26
M  V30 26 1 26 27
M  V30 27 2 19 28
M  V30 28 1 28 29
M  V30 29 2 4 30
M  V30 30 1 30 31
M  V30 31 2 31 32
M  V30 32 1 32 33
M  V30 33 2 33 34
M  V30 34 1 33 35
M  V30 35 1 35 36
M  V30 36 1 36 37
M  V30 37 1 37 38
M  V30 38 1 32 2
M  V30 39 1 38 36
M  V30 40 2 29 5
M  V30 41 1 29 8
M  V30 42 1 17 12
M  V30 43 1 26 21
M  V30 44 1 1 39
M  V30 45 1 1 40
M  V30 46 1 1 41
M  V30 47 1 3 42
M  V30 48 1 6 43
M  V30 49 1 10 44
M  V30 50 1 11 45
M  V30 51 1 11 46
M  V30 52 1 12 47
M  V30 53 1 13 48
M  V30 54 1 13 49
M  V30 55 1 14 50
M  V30 56 1 14 51
M  V30 57 1 16 52
M  V30 58 1 16 53
M  V30 59 1 17 54
M  V30 60 1 17 55
M  V30 61 1 20 56
M  V30 62 1 22 57
M  V30 63 1 23 58
M  V30 64 1 24 59
M  V30 65 1 25 60
M  V30 66 1 30 61
M  V30 67 1 31 62
M  V30 68 1 35 63
M  V30 69 1 36 64
M  V30 70 1 37 65
M  V30 71 1 37 66
M  V30 72 1 38 67
M  V30 73 1 38 68
M  V30 END BOND
M  V30 END CTAB
M  END
>  <Dataset>  (922) 
ChEMBL_Kinases

>  <Ligand_Instance>  (922) 
nan

>  <PDB_ID>  (922) 
nan

>  <Standardized_SMILES>  (922) 
Cc1cc(-c2cnn3c(NCC4CCOCC4)nc(Nc4ccccc4F)nc23)ccc1C(=O)NC1CC1

>  <Name>  (922) 
nan

>  <Pocket>  (922) 
nan

>  <ATP_Site>  (922) 
nan

>  <Peripheral>  (922) 
nan

>  <Num_H_Atoms_ProtBoundConf>  (922) 
nan

>  <Num_Resolved_Atoms>  (922) 
nan

>  <Num_Not_Resolved_Atoms>  (922) 
nan

$$$$
CHEMBL381932
     RDKit          3D

  0  0  0  0  0  0  0  0  0  0999 V3000
M  V30 BEGIN CTAB
M  V30 COUNTS 31 32 0 0 0
M  V30 BEGIN ATOM
M  V30 1 C -3.104752 -1.843377 1.777833 0
M  V30 2 N -1.704219 -1.629826 2.053464 0
M  V30 3 C -1.160870 -2.387500 3.163889 0
M  V30 4 C -0.830451 -0.759299 1.345200 0
M  V30 5 C 0.289872 -1.114163 0.641283 0
M  V30 6 C 1.030473 -0.207627 0.010913 0
M  V30 7 C 2.247983 -0.384591 -0.784312 0
M  V30 8 C 2.810607 -1.634580 -0.982870 0
M  V30 9 C 3.970935 -1.728430 -1.751563 0
M  V30 10 C 4.536014 -0.591494 -2.296930 0
M  V30 11 F 5.671972 -0.716397 -3.044707 0
M  V30 12 C 3.956721 0.648145 -2.085640 0
M  V30 13 C 2.808545 0.752304 -1.326628 0
M  V30 14 S 0.209000 1.339392 0.341047 0
M  V30 15 C -1.135645 0.589170 1.356161 0
M  V30 16 C -2.120194 1.480476 1.895960 0
M  V30 17 N -3.192717 1.031139 2.704147 0
M  V30 18 O -2.160478 2.725784 1.730993 0
M  V30 19 H -3.304435 -2.859684 1.380628 0
M  V30 20 H -3.409231 -1.147260 0.970443 0
M  V30 21 H -3.695964 -1.715574 2.717950 0
M  V30 22 H -1.926397 -2.494702 3.962666 0
M  V30 23 H -0.891440 -3.436069 2.890079 0
M  V30 24 H -0.248001 -1.934809 3.586630 0
M  V30 25 H 0.588996 -2.174621 0.593030 0
M  V30 26 H 2.304135 -2.491690 -0.517484 0
M  V30 27 H 4.377151 -2.725131 -1.881303 0
M  V30 28 H 4.383154 1.543393 -2.502594 0
M  V30 29 H 2.366855 1.728390 -1.169984 0
M  V30 30 H -3.321128 0.791103 3.722025 0
M  V30 31 H -4.191853 0.823215 2.415135 0
M  V30 END ATOM
M  V30 BEGIN BOND
M  V30 1 1 1 2
M  V30 2 1 2 3
M  V30 3 1 2 4
M  V30 4 1 4 5
M  V30 5 2 5 6
M  V30 6 1 6 7
M  V30 7 2 7 8
M  V30 8 1 8 9
M  V30 9 2 9 10
M  V30 10 1 10 11
M  V30 11 1 10 12
M  V30 12 2 12 13
M  V30 13 1 6 14
M  V30 14 1 14 15
M  V30 15 1 15 16
M  V30 16 1 16 17
M  V30 17 2 16 18
M  V30 18 2 15 4
M  V30 19 1 13 7
M  V30 20 1 1 19
M  V30 21 1 1 20
M  V30 22 1 1 21
M  V30 23 1 3 22
M  V30 24 1 3 23
M  V30 25 1 3 24
M  V30 26 1 5 25
M  V30 27 1 8 26
M  V30 28 1 9 27
M  V30 29 1 12 28
M  V30 30 1 13 29
M  V30 31 1 17 30
M  V30 32 1 17 31
M  V30 END BOND
M  V30 END CTAB
M  END
>  <Dataset>  (923) 
ChEMBL_Kinases

>  <Ligand_Instance>  (923) 
nan

>  <PDB_ID>  (923) 
nan

>  <Standardized_SMILES>  (923) 
CN(C)c1cc(-c2ccc(F)cc2)sc1C(N)=O

>  <Name>  (923) 
nan

>  <Pocket>  (923) 
nan

>  <ATP_Site>  (923) 
nan

>  <Peripheral>  (923) 
nan

>  <Num_H_Atoms_ProtBoundConf>  (923) 
nan

>  <Num_Resolved_Atoms>  (923) 
nan

>  <Num_Not_Resolved_Atoms>  (923) 
nan

$$$$
CHEMBL3819318
     RDKit          3D

  0  0  0  0  0  0  0  0  0  0999 V3000
M  V30 BEGIN CTAB
M  V30 COUNTS 68 73 0 0 0
M  V30 BEGIN ATOM
M  V30 1 C 4.240843 1.645745 2.970944 0
M  V30 2 C 2.809431 1.235308 2.869664 0
M  V30 3 C 2.295022 0.731160 1.691865 0
M  V30 4 C 0.957878 0.366520 1.659191 0
M  V30 5 C 0.433127 -0.160515 0.405567 0
M  V30 6 C 0.723889 0.424654 -0.816869 0
M  V30 7 N 0.112059 -0.266280 -1.791174 0
M  V30 8 N -0.548882 -1.253411 -1.259298 0
M  V30 9 C -1.305191 -2.217965 -1.813086 0
M  V30 10 N -1.583954 -2.353539 -3.198944 0
M  V30 11 C -1.292704 -1.444139 -4.280546 0
M  V30 12 C -2.164950 -0.206878 -4.264768 0
M  V30 13 C -1.810558 0.710665 -5.415007 0
M  V30 14 C -2.788092 0.448888 -6.538863 0
M  V30 15 O -2.917596 -0.918060 -6.767206 0
M  V30 16 C -3.698045 -1.452415 -5.756241 0
M  V30 17 C -3.617690 -0.623876 -4.501377 0
M  V30 18 N -1.844236 -3.098809 -0.964764 0
M  V30 19 C -1.700205 -3.104359 0.364429 0
M  V30 20 N -2.357893 -4.129570 1.095149 0
M  V30 21 C -1.999815 -5.429179 1.542967 0
M  V30 22 C -0.743747 -5.920165 1.289497 0
M  V30 23 C -0.429887 -7.192968 1.741860 0
M  V30 24 C -1.359260 -7.956404 2.434331 0
M  V30 25 C -2.606977 -7.386929 2.649373 0
M  V30 26 C -2.954249 -6.123292 2.214002 0
M  V30 27 N -0.929777 -2.117266 0.904948 0
M  V30 28 C -0.375102 -1.218837 0.075415 0
M  V30 29 C 0.094876 0.472212 2.730690 0
M  V30 30 C 0.627352 0.978303 3.899393 0
M  V30 31 C 1.953992 1.351153 3.966999 0
M  V30 32 C 2.446148 1.885765 5.246033 0
M  V30 33 O 2.464456 1.380708 6.418652 0
M  V30 34 N 3.005934 3.212540 5.160082 0
M  V30 35 C 3.550468 3.950739 6.267544 0
M  V30 36 C 4.694928 4.903952 5.955885 0
M  V30 37 C 3.342118 5.482608 6.254491 0
M  V30 38 H 4.530666 1.756829 4.042158 0
M  V30 39 H 4.920975 0.879281 2.549587 0
M  V30 40 H 4.391933 2.570905 2.377295 0
M  V30 41 H 2.959748 0.642651 0.844724 0
M  V30 42 H 1.345965 1.303009 -0.980204 0
M  V30 43 H -2.077509 -3.244781 -3.502730 0
M  V30 44 H -0.232677 -1.085322 -4.204185 0
M  V30 45 H -1.335983 -1.973892 -5.246117 0
M  V30 46 H -2.066196 0.304551 -3.312188 0
M  V30 47 H -0.760527 0.560215 -5.767160 0
M  V30 48 H -1.922535 1.758414 -5.024131 0
M  V30 49 H -3.765304 0.909973 -6.370114 0
M  V30 50 H -2.293479 0.847827 -7.471174 0
M  V30 51 H -3.387073 -2.519952 -5.551886 0
M  V30 52 H -4.721436 -1.537589 -6.147611 0
M  V30 53 H -4.262904 0.250861 -4.510567 0
M  V30 54 H -3.976217 -1.277767 -3.679123 0
M  V30 55 H -3.283147 -3.681679 1.262786 0
M  V30 56 H 0.000969 -5.344032 0.750155 0
M  V30 57 H 0.565732 -7.575108 1.537649 0
M  V30 58 H -1.099919 -8.947996 2.781132 0
M  V30 59 H -3.367991 -7.961017 3.193298 0
M  V30 60 H -3.943555 -5.701417 2.396857 0
M  V30 61 H -0.932059 0.163025 2.612218 0
M  V30 62 H -0.005745 1.079029 4.760513 0
M  V30 63 H 3.041298 3.727447 4.229192 0
M  V30 64 H 3.544984 3.505435 7.278576 0
M  V30 65 H 5.497873 4.964248 6.712409 0
M  V30 66 H 5.033217 4.950998 4.913097 0
M  V30 67 H 2.765421 5.890444 5.385830 0
M  V30 68 H 3.294541 5.998482 7.233654 0
M  V30 END ATOM
M  V30 BEGIN BOND
M  V30 1 1 1 2
M  V30 2 2 2 3
M  V30 3 1 3 4
M  V30 4 1 4 5
M  V30 5 1 5 6
M  V30 6 2 6 7
M  V30 7 1 7 8
M  V30 8 1 8 9
M  V30 9 1 9 10
M  V30 10 1 10 11
M  V30 11 1 11 12
M  V30 12 1 12 13
M  V30 13 1 13 14
M  V30 14 1 14 15
M  V30 15 1 15 16
M  V30 16 1 16 17
M  V30 17 2 9 18
M  V30 18 1 18 19
M  V30 19 1 19 20
M  V30 20 1 20 21
M  V30 21 2 21 22
M  V30 22 1 22 23
M  V30 23 2 23 24
M  V30 24 1 24 25
M  V30 25 2 25 26
M  V30 26 2 19 27
M  V30 27 1 27 28
M  V30 28 2 4 29
M  V30 29 1 29 30
M  V30 30 2 30 31
M  V30 31 1 31 32
M  V30 32 2 32 33
M  V30 33 1 32 34
M  V30 34 1 34 35
M  V30 35 1 35 36
M  V30 36 1 36 37
M  V30 37 1 31 2
M  V30 38 1 37 35
M  V30 39 2 28 5
M  V30 40 1 28 8
M  V30 41 1 17 12
M  V30 42 1 26 21
M  V30 43 1 1 38
M  V30 44 1 1 39
M  V30 45 1 1 40
M  V30 46 1 3 41
M  V30 47 1 6 42
M  V30 48 1 10 43
M  V30 49 1 11 44
M  V30 50 1 11 45
M  V30 51 1 12 46
M  V30 52 1 13 47
M  V30 53 1 13 48
M  V30 54 1 14 49
M  V30 55 1 14 50
M  V30 56 1 16 51
M  V30 57 1 16 52
M  V30 58 1 17 53
M  V30 59 1 17 54
M  V30 60 1 20 55
M  V30 61 1 22 56
M  V30 62 1 23 57
M  V30 63 1 24 58
M  V30 64 1 25 59
M  V30 65 1 26 60
M  V30 66 1 29 61
M  V30 67 1 30 62
M  V30 68 1 34 63
M  V30 69 1 35 64
M  V30 70 1 36 65
M  V30 71 1 36 66
M  V30 72 1 37 67
M  V30 73 1 37 68
M  V30 END BOND
M  V30 END CTAB
M  END
>  <Dataset>  (924) 
ChEMBL_Kinases

>  <Ligand_Instance>  (924) 
nan

>  <PDB_ID>  (924) 
nan

>  <Standardized_SMILES>  (924) 
Cc1cc(-c2cnn3c(NCC4CCOCC4)nc(Nc4ccccc4)nc23)ccc1C(=O)NC1CC1

>  <Name>  (924) 
nan

>  <Pocket>  (924) 
nan

>  <ATP_Site>  (924) 
nan

>  <Peripheral>  (924) 
nan

>  <Num_H_Atoms_ProtBoundConf>  (924) 
nan

>  <Num_Resolved_Atoms>  (924) 
nan

>  <Num_Not_Resolved_Atoms>  (924) 
nan

$$$$
CHEMBL3819302
     RDKit          3D

  0  0  0  0  0  0  0  0  0  0999 V3000
M  V30 BEGIN CTAB
M  V30 COUNTS 106 112 0 0 0
M  V30 BEGIN ATOM
M  V30 1 O -1.427780 -3.667660 1.685390 0
M  V30 2 C -1.810387 -4.878685 1.599274 0
M  V30 3 N -0.758394 -5.729425 1.162610 0
M  V30 4 O 0.306388 -4.906826 0.990821 0
M  V30 5 C 1.444280 -5.547805 0.576961 0
M  V30 6 C 2.593921 -4.593788 0.321714 0
M  V30 7 O 2.275910 -3.664279 -0.670045 0
M  V30 8 C 3.386466 -2.836271 -0.817070 0
M  V30 9 C 3.193905 -1.768389 -1.879704 0
M  V30 10 O 4.352822 -1.014128 -1.930169 0
M  V30 11 C 4.349579 -0.010354 -2.875754 0
M  V30 12 C 3.267209 1.017783 -2.720443 0
M  V30 13 O 3.389501 1.980836 -3.745180 0
M  V30 14 C 2.348305 2.886840 -3.535524 0
M  V30 15 C 2.349838 4.010157 -4.560773 0
M  V30 16 N 1.296948 4.890168 -4.308060 0
M  V30 17 C 1.287046 5.701452 -3.165273 0
M  V30 18 C -0.034047 5.524600 -2.432535 0
M  V30 19 N -0.541341 4.193704 -2.685174 0
M  V30 20 C -0.639591 3.073185 -1.821846 0
M  V30 21 N -1.220939 1.947954 -2.321851 0
M  V30 22 C -1.313453 0.872454 -1.529823 0
M  V30 23 N -1.928022 -0.264185 -2.109678 0
M  V30 24 C -2.522159 -0.287382 -3.428495 0
M  V30 25 C -1.959966 -1.373372 -4.316024 0
M  V30 26 O -2.198662 -2.626821 -3.752826 0
M  V30 27 C -1.579637 -2.657092 -2.513076 0
M  V30 28 C -2.100552 -1.583804 -1.580316 0
M  V30 29 N -0.860165 0.872056 -0.285930 0
M  V30 30 C -0.271535 1.987314 0.244460 0
M  V30 31 N 0.237262 2.065956 1.558199 0
M  V30 32 C 0.229363 3.160079 2.353555 0
M  V30 33 C -0.282374 4.500879 2.089686 0
M  V30 34 F -1.275221 4.882710 2.994212 0
M  V30 35 F 0.735137 5.425431 2.271594 0
M  V30 36 N 0.799252 2.826762 3.508404 0
M  V30 37 C 1.177381 1.535923 3.477821 0
M  V30 38 C 1.801619 0.758118 4.433344 0
M  V30 39 C 2.057422 -0.552848 4.084634 0
M  V30 40 C 1.716166 -1.088991 2.845633 0
M  V30 41 C 1.091485 -0.285834 1.908067 0
M  V30 42 C 0.821163 1.041593 2.232925 0
M  V30 43 N -0.191743 3.057627 -0.577342 0
M  V30 44 C -0.965847 4.162870 -4.068771 0
M  V30 45 C 0.074778 4.801180 -4.976562 0
M  V30 46 C -3.178740 -5.212522 1.935191 0
M  V30 47 C -3.663999 -6.497071 1.851483 0
M  V30 48 C -4.981286 -6.763111 2.181532 0
M  V30 49 C -5.826737 -5.732891 2.601302 0
M  V30 50 F -7.139230 -5.934048 2.941739 0
M  V30 51 C -5.306001 -4.439191 2.676626 0
M  V30 52 F -6.113331 -3.416968 3.083498 0
M  V30 53 C -3.984742 -4.181816 2.343930 0
M  V30 54 N -3.504174 -2.823772 2.443977 0
M  V30 55 C -2.935397 -2.486607 3.724723 0
M  V30 56 C -2.888490 -3.430695 4.732422 0
M  V30 57 C -2.351193 -3.160867 5.981415 0
M  V30 58 C -1.836081 -1.901271 6.248717 0
M  V30 59 I -1.003065 -1.423055 8.132049 0
M  V30 60 C -1.889580 -0.965690 5.230645 0
M  V30 61 C -2.426046 -1.223731 3.973346 0
M  V30 62 F -2.451297 -0.260238 3.006995 0
M  V30 63 H -1.042083 -6.752584 1.079063 0
M  V30 64 H 1.781264 -6.180404 1.437973 0
M  V30 65 H 1.272098 -6.251926 -0.256922 0
M  V30 66 H 2.822965 -4.072083 1.255944 0
M  V30 67 H 3.479081 -5.144921 0.006226 0
M  V30 68 H 4.209001 -3.481394 -1.163680 0
M  V30 69 H 3.567241 -2.349609 0.146843 0
M  V30 70 H 2.360561 -1.082832 -1.607710 0
M  V30 71 H 2.988365 -2.206699 -2.861183 0
M  V30 72 H 5.315555 0.546588 -2.849670 0
M  V30 73 H 4.288622 -0.426980 -3.924097 0
M  V30 74 H 2.257695 0.541635 -2.769033 0
M  V30 75 H 3.318687 1.551378 -1.753974 0
M  V30 76 H 2.319594 3.286769 -2.505933 0
M  V30 77 H 1.416372 2.258454 -3.650628 0
M  V30 78 H 3.343319 4.510840 -4.489617 0
M  V30 79 H 2.235351 3.559593 -5.582969 0
M  V30 80 H 2.143492 5.544705 -2.467267 0
M  V30 81 H 1.297676 6.790991 -3.455541 0
M  V30 82 H -0.769613 6.310956 -2.697382 0
M  V30 83 H 0.199291 5.686059 -1.343061 0
M  V30 84 H -2.385821 0.685146 -3.979520 0
M  V30 85 H -3.623155 -0.441565 -3.393111 0
M  V30 86 H -0.877861 -1.268331 -4.506061 0
M  V30 87 H -2.467662 -1.269754 -5.296380 0
M  V30 88 H -1.837300 -3.645579 -2.057128 0
M  V30 89 H -0.462671 -2.650602 -2.593377 0
M  V30 90 H -3.164930 -1.789534 -1.405886 0
M  V30 91 H -1.582725 -1.759655 -0.609700 0
M  V30 92 H -0.722276 4.660394 1.094255 0
M  V30 93 H 2.065478 1.167010 5.387252 0
M  V30 94 H 2.544162 -1.210884 4.791313 0
M  V30 95 H 1.910540 -2.115803 2.559090 0
M  V30 96 H 0.777586 -0.581391 0.916408 0
M  V30 97 H -1.933378 4.731623 -4.101768 0
M  V30 98 H -1.138404 3.123197 -4.420119 0
M  V30 99 H 0.101954 4.294102 -5.966036 0
M  V30 100 H -0.300337 5.838833 -5.184823 0
M  V30 101 H -3.012682 -7.299782 1.526561 0
M  V30 102 H -5.415388 -7.762579 2.133042 0
M  V30 103 H -3.522935 -2.081827 1.710772 0
M  V30 104 H -3.273023 -4.433048 4.589967 0
M  V30 105 H -2.289790 -3.858446 6.801938 0
M  V30 106 H -1.487020 0.025266 5.433290 0
M  V30 END ATOM
M  V30 BEGIN BOND
M  V30 1 2 1 2
M  V30 2 1 2 3
M  V30 3 1 3 4
M  V30 4 1 4 5
M  V30 5 1 5 6
M  V30 6 1 6 7
M  V30 7 1 7 8
M  V30 8 1 8 9
M  V30 9 1 9 10
M  V30 10 1 10 11
M  V30 11 1 11 12
M  V30 12 1 12 13
M  V30 13 1 13 14
M  V30 14 1 14 15
M  V30 15 1 15 16
M  V30 16 1 16 17
M  V30 17 1 17 18
M  V30 18 1 18 19
M  V30 19 1 19 20
M  V30 20 2 20 21
M  V30 21 1 21 22
M  V30 22 1 22 23
M  V30 23 1 23 24
M  V30 24 1 24 25
M  V30 25 1 25 26
M  V30 26 1 26 27
M  V30 27 1 27 28
M  V30 28 2 22 29
M  V30 29 1 29 30
M  V30 30 1 30 31
M  V30 31 1 31 32
M  V30 32 1 32 33
M  V30 33 1 33 34
M  V30 34 1 33 35
M  V30 35 2 32 36
M  V30 36 1 36 37
M  V30 37 2 37 38
M  V30 38 1 38 39
M  V30 39 2 39 40
M  V30 40 1 40 41
M  V30 41 2 41 42
M  V30 42 2 30 43
M  V30 43 1 19 44
M  V30 44 1 44 45
M  V30 45 1 2 46
M  V30 46 2 46 47
M  V30 47 1 47 48
M  V30 48 2 48 49
M  V30 49 1 49 50
M  V30 50 1 49 51
M  V30 51 1 51 52
M  V30 52 2 51 53
M  V30 53 1 53 54
M  V30 54 1 54 55
M  V30 55 2 55 56
M  V30 56 1 56 57
M  V30 57 2 57 58
M  V30 58 1 58 59
M  V30 59 1 58 60
M  V30 60 2 60 61
M  V30 61 1 61 62
M  V30 62 1 45 16
M  V30 63 1 53 46
M  V30 64 1 61 55
M  V30 65 1 43 20
M  V30 66 1 28 23
M  V30 67 1 42 31
M  V30 68 1 42 37
M  V30 69 1 3 63
M  V30 70 1 5 64
M  V30 71 1 5 65
M  V30 72 1 6 66
M  V30 73 1 6 67
M  V30 74 1 8 68
M  V30 75 1 8 69
M  V30 76 1 9 70
M  V30 77 1 9 71
M  V30 78 1 11 72
M  V30 79 1 11 73
M  V30 80 1 12 74
M  V30 81 1 12 75
M  V30 82 1 14 76
M  V30 83 1 14 77
M  V30 84 1 15 78
M  V30 85 1 15 79
M  V30 86 1 17 80
M  V30 87 1 17 81
M  V30 88 1 18 82
M  V30 89 1 18 83
M  V30 90 1 24 84
M  V30 91 1 24 85
M  V30 92 1 25 86
M  V30 93 1 25 87
M  V30 94 1 27 88
M  V30 95 1 27 89
M  V30 96 1 28 90
M  V30 97 1 28 91
M  V30 98 1 33 92
M  V30 99 1 38 93
M  V30 100 1 39 94
M  V30 101 1 40 95
M  V30 102 1 41 96
M  V30 103 1 44 97
M  V30 104 1 44 98
M  V30 105 1 45 99
M  V30 106 1 45 100
M  V30 107 1 47 101
M  V30 108 1 48 102
M  V30 109 1 54 103
M  V30 110 1 56 104
M  V30 111 1 57 105
M  V30 112 1 60 106
M  V30 END BOND
M  V30 END CTAB
M  END
>  <Dataset>  (925) 
ChEMBL_Kinases

>  <Ligand_Instance>  (925) 
nan

>  <PDB_ID>  (925) 
nan

>  <Standardized_SMILES>  (925) 
O=C(NOCCOCCOCCOCCN1CCN(c2nc(N3CCOCC3)nc(-n3c(C(F)F)nc4ccccc43)n2)CC1)c1ccc(F)c(F)c1Nc1ccc(I)cc1F

>  <Name>  (925) 
nan

>  <Pocket>  (925) 
nan

>  <ATP_Site>  (925) 
nan

>  <Peripheral>  (925) 
nan

>  <Num_H_Atoms_ProtBoundConf>  (925) 
nan

>  <Num_Resolved_Atoms>  (925) 
nan

>  <Num_Not_Resolved_Atoms>  (925) 
nan

$$$$
CHEMBL381929
     RDKit          3D

  0  0  0  0  0  0  0  0  0  0999 V3000
M  V30 BEGIN CTAB
M  V30 COUNTS 47 50 0 0 0
M  V30 BEGIN ATOM
M  V30 1 F -0.827215 -5.858531 4.945572 0
M  V30 2 C -0.627384 -4.907741 3.999888 0
M  V30 3 C 0.347398 -5.111774 3.046046 0
M  V30 4 C 0.609155 -4.189409 2.050795 0
M  V30 5 C -0.120995 -3.000614 1.981772 0
M  V30 6 C 0.049266 -1.953534 0.993931 0
M  V30 7 N 1.138399 -1.210844 0.736221 0
M  V30 8 C 0.876711 -0.352165 -0.259416 0
M  V30 9 C 1.710021 0.680564 -0.930581 0
M  V30 10 N 1.609332 1.979411 -0.284450 0
M  V30 11 C 2.457340 2.885972 -1.033930 0
M  V30 12 C 2.466938 4.270897 -0.415556 0
M  V30 13 C 2.913964 4.201286 1.018397 0
M  V30 14 C 2.030347 3.219132 1.745895 0
M  V30 15 C 2.127633 1.870939 1.074139 0
M  V30 16 C -0.443482 -0.551781 -0.661438 0
M  V30 17 C -0.963261 -1.559045 0.127140 0
M  V30 18 C -2.333209 -2.046940 -0.000832 0
M  V30 19 C -2.757874 -3.328429 -0.336161 0
M  V30 20 C -4.117444 -3.583629 -0.403564 0
M  V30 21 N -5.034825 -2.641880 -0.157717 0
M  V30 22 C -4.682709 -1.380410 0.172354 0
M  V30 23 C -3.350709 -1.117485 0.241746 0
M  V30 24 C -1.097544 -2.794052 2.935717 0
M  V30 25 C -1.351371 -3.721696 3.925848 0
M  V30 26 H 0.961547 -5.991442 3.013076 0
M  V30 27 H 1.352633 -4.276110 1.271664 0
M  V30 28 H 2.062848 -1.261260 1.211482 0
M  V30 29 H 2.767796 0.319302 -0.821408 0
M  V30 30 H 1.472698 0.730623 -2.002813 0
M  V30 31 H 2.013303 2.988284 -2.042402 0
M  V30 32 H 3.470539 2.490559 -1.145900 0
M  V30 33 H 1.461362 4.722250 -0.498351 0
M  V30 34 H 3.149909 4.892829 -1.031717 0
M  V30 35 H 2.792171 5.206894 1.467963 0
M  V30 36 H 3.975737 3.899770 1.058931 0
M  V30 37 H 2.371637 3.084264 2.797623 0
M  V30 38 H 0.999568 3.602404 1.776550 0
M  V30 39 H 3.207550 1.626555 1.007407 0
M  V30 40 H 1.574101 1.143800 1.668162 0
M  V30 41 H -0.996912 -0.024799 -1.453303 0
M  V30 42 H -1.952083 -4.019638 -0.516641 0
M  V30 43 H -4.398466 -4.604895 -0.670711 0
M  V30 44 H -5.441798 -0.646929 0.363922 0
M  V30 45 H -3.089680 -0.092175 0.510110 0
M  V30 46 H -1.694347 -1.914382 2.948561 0
M  V30 47 H -2.098510 -3.618418 4.697577 0
M  V30 END ATOM
M  V30 BEGIN BOND
M  V30 1 1 1 2
M  V30 2 2 2 3
M  V30 3 1 3 4
M  V30 4 2 4 5
M  V30 5 1 5 6
M  V30 6 1 6 7
M  V30 7 1 7 8
M  V30 8 1 8 9
M  V30 9 1 9 10
M  V30 10 1 10 11
M  V30 11 1 11 12
M  V30 12 1 12 13
M  V30 13 1 13 14
M  V30 14 1 14 15
M  V30 15 2 8 16
M  V30 16 1 16 17
M  V30 17 1 17 18
M  V30 18 2 18 19
M  V30 19 1 19 20
M  V30 20 2 20 21
M  V30 21 1 21 22
M  V30 22 2 22 23
M  V30 23 1 5 24
M  V30 24 2 24 25
M  V30 25 1 25 2
M  V30 26 2 17 6
M  V30 27 1 23 18
M  V30 28 1 15 10
M  V30 29 1 3 26
M  V30 30 1 4 27
M  V30 31 1 7 28
M  V30 32 1 9 29
M  V30 33 1 9 30
M  V30 34 1 11 31
M  V30 35 1 11 32
M  V30 36 1 12 33
M  V30 37 1 12 34
M  V30 38 1 13 35
M  V30 39 1 13 36
M  V30 40 1 14 37
M  V30 41 1 14 38
M  V30 42 1 15 39
M  V30 43 1 15 40
M  V30 44 1 16 41
M  V30 45 1 19 42
M  V30 46 1 20 43
M  V30 47 1 22 44
M  V30 48 1 23 45
M  V30 49 1 24 46
M  V30 50 1 25 47
M  V30 END BOND
M  V30 END CTAB
M  END
>  <Dataset>  (926) 
ChEMBL_Kinases

>  <Ligand_Instance>  (926) 
nan

>  <PDB_ID>  (926) 
nan

>  <Standardized_SMILES>  (926) 
Fc1ccc(-c2[nH]c(CN3CCCCC3)cc2-c2ccncc2)cc1

>  <Name>  (926) 
nan

>  <Pocket>  (926) 
nan

>  <ATP_Site>  (926) 
nan

>  <Peripheral>  (926) 
nan

>  <Num_H_Atoms_ProtBoundConf>  (926) 
nan

>  <Num_Resolved_Atoms>  (926) 
nan

>  <Num_Not_Resolved_Atoms>  (926) 
nan

$$$$
CHEMBL3819210
     RDKit          3D

  0  0  0  0  0  0  0  0  0  0999 V3000
M  V30 BEGIN CTAB
M  V30 COUNTS 67 72 0 0 0
M  V30 BEGIN ATOM
M  V30 1 C 3.434247 -0.139452 4.943599 0
M  V30 2 C 2.285349 -0.092188 4.041409 0
M  V30 3 C 2.453523 -0.491384 2.741030 0
M  V30 4 C 1.390974 -0.485262 1.863901 0
M  V30 5 C 1.445384 -0.821770 0.447022 0
M  V30 6 C 2.281712 -0.013005 -0.321516 0
M  V30 7 N 2.181808 -0.416130 -1.600845 0
M  V30 8 N 1.341915 -1.426228 -1.708055 0
M  V30 9 C 0.837355 -2.249294 -2.665139 0
M  V30 10 N 1.255112 -2.023956 -4.000569 0
M  V30 11 C 0.643428 -1.249021 -5.062916 0
M  V30 12 C 0.449324 0.194295 -4.711887 0
M  V30 13 C -0.181176 0.942168 -5.878882 0
M  V30 14 C -1.623829 0.548236 -6.093362 0
M  V30 15 O -2.392762 0.739900 -4.958397 0
M  V30 16 C -1.684210 1.246364 -3.886172 0
M  V30 17 C -0.451015 0.403273 -3.534842 0
M  V30 18 N -0.030424 -3.207656 -2.305844 0
M  V30 19 C -0.465902 -3.445332 -1.063795 0
M  V30 20 O -1.340229 -4.502177 -1.065542 0
M  V30 21 C -1.998840 -5.057114 -0.007746 0
M  V30 22 C -2.721599 -6.165607 -0.450334 0
M  V30 23 C -3.494293 -6.935573 0.407141 0
M  V30 24 C -3.538121 -6.579156 1.740295 0
M  V30 25 C -2.822705 -5.471557 2.212947 0
M  V30 26 C -2.055852 -4.715667 1.332510 0
M  V30 27 N 0.004911 -2.644745 -0.055560 0
M  V30 28 C 0.886510 -1.683644 -0.466823 0
M  V30 29 C 0.105981 -0.080069 2.249842 0
M  V30 30 C -0.000966 0.317412 3.599394 0
M  V30 31 C 1.058468 0.322988 4.505542 0
M  V30 32 C 0.793503 0.795512 5.883374 0
M  V30 33 O 0.836401 0.161468 6.988474 0
M  V30 34 N 0.448963 2.187367 5.853008 0
M  V30 35 C 0.115433 3.040882 7.009871 0
M  V30 36 C 0.621382 4.435876 6.912836 0
M  V30 37 C -0.840909 4.203294 6.681308 0
M  V30 38 H 3.548880 0.703855 5.611679 0
M  V30 39 H 3.307456 -1.060221 5.585084 0
M  V30 40 H 4.373480 -0.261144 4.349993 0
M  V30 41 H 3.414092 -0.823229 2.345446 0
M  V30 42 H 2.964409 0.813928 -0.191552 0
M  V30 43 H 2.146994 -2.555013 -4.090825 0
M  V30 44 H -0.377016 -1.679142 -5.264419 0
M  V30 45 H 1.233494 -1.389489 -5.991117 0
M  V30 46 H 1.447639 0.645426 -4.539380 0
M  V30 47 H 0.374276 0.773623 -6.807089 0
M  V30 48 H -0.171703 2.006825 -5.616020 0
M  V30 49 H -2.027952 1.245949 -6.863080 0
M  V30 50 H -1.758181 -0.506418 -6.412218 0
M  V30 51 H -1.373406 2.291159 -3.969868 0
M  V30 52 H -2.357490 1.189032 -2.981316 0
M  V30 53 H 0.089386 1.052225 -2.786770 0
M  V30 54 H -0.862072 -0.517365 -3.086610 0
M  V30 55 H -2.781325 -6.557347 -1.469882 0
M  V30 56 H -4.075714 -7.811716 0.092010 0
M  V30 57 H -4.123441 -7.136952 2.464127 0
M  V30 58 H -2.821660 -5.148100 3.243917 0
M  V30 59 H -1.466535 -3.857923 1.549462 0
M  V30 60 H -0.772608 -0.052647 1.622499 0
M  V30 61 H -1.006085 0.641324 3.914590 0
M  V30 62 H 0.411506 2.726627 4.930349 0
M  V30 63 H 0.084009 2.608693 8.011992 0
M  V30 64 H 0.844065 5.010307 7.830387 0
M  V30 65 H 1.271717 4.714900 6.038869 0
M  V30 66 H -1.147617 4.294681 5.609822 0
M  V30 67 H -1.606687 4.494887 7.399419 0
M  V30 END ATOM
M  V30 BEGIN BOND
M  V30 1 1 1 2
M  V30 2 2 2 3
M  V30 3 1 3 4
M  V30 4 1 4 5
M  V30 5 1 5 6
M  V30 6 2 6 7
M  V30 7 1 7 8
M  V30 8 1 8 9
M  V30 9 1 9 10
M  V30 10 1 10 11
M  V30 11 1 11 12
M  V30 12 1 12 13
M  V30 13 1 13 14
M  V30 14 1 14 15
M  V30 15 1 15 16
M  V30 16 1 16 17
M  V30 17 2 9 18
M  V30 18 1 18 19
M  V30 19 1 19 20
M  V30 20 1 20 21
M  V30 21 2 21 22
M  V30 22 1 22 23
M  V30 23 2 23 24
M  V30 24 1 24 25
M  V30 25 2 25 26
M  V30 26 2 19 27
M  V30 27 1 27 28
M  V30 28 2 4 29
M  V30 29 1 29 30
M  V30 30 2 30 31
M  V30 31 1 31 32
M  V30 32 2 32 33
M  V30 33 1 32 34
M  V30 34 1 34 35
M  V30 35 1 35 36
M  V30 36 1 36 37
M  V30 37 1 31 2
M  V30 38 1 37 35
M  V30 39 2 28 5
M  V30 40 1 28 8
M  V30 41 1 17 12
M  V30 42 1 26 21
M  V30 43 1 1 38
M  V30 44 1 1 39
M  V30 45 1 1 40
M  V30 46 1 3 41
M  V30 47 1 6 42
M  V30 48 1 10 43
M  V30 49 1 11 44
M  V30 50 1 11 45
M  V30 51 1 12 46
M  V30 52 1 13 47
M  V30 53 1 13 48
M  V30 54 1 14 49
M  V30 55 1 14 50
M  V30 56 1 16 51
M  V30 57 1 16 52
M  V30 58 1 17 53
M  V30 59 1 17 54
M  V30 60 1 22 55
M  V30 61 1 23 56
M  V30 62 1 24 57
M  V30 63 1 25 58
M  V30 64 1 26 59
M  V30 65 1 29 60
M  V30 66 1 30 61
M  V30 67 1 34 62
M  V30 68 1 35 63
M  V30 69 1 36 64
M  V30 70 1 36 65
M  V30 71 1 37 66
M  V30 72 1 37 67
M  V30 END BOND
M  V30 END CTAB
M  END
>  <Dataset>  (927) 
ChEMBL_Kinases

>  <Ligand_Instance>  (927) 
nan

>  <PDB_ID>  (927) 
nan

>  <Standardized_SMILES>  (927) 
Cc1cc(-c2cnn3c(NCC4CCOCC4)nc(Oc4ccccc4)nc23)ccc1C(=O)NC1CC1

>  <Name>  (927) 
nan

>  <Pocket>  (927) 
nan

>  <ATP_Site>  (927) 
nan

>  <Peripheral>  (927) 
nan

>  <Num_H_Atoms_ProtBoundConf>  (927) 
nan

>  <Num_Resolved_Atoms>  (927) 
nan

>  <Num_Not_Resolved_Atoms>  (927) 
nan

$$$$
CHEMBL3819182
     RDKit          3D

  0  0  0  0  0  0  0  0  0  0999 V3000
M  V30 BEGIN CTAB
M  V30 COUNTS 72 77 0 0 0
M  V30 BEGIN ATOM
M  V30 1 C -1.584325 -4.777059 2.531562 0
M  V30 2 C -0.905608 -3.554193 3.038883 0
M  V30 3 C 0.071057 -2.911292 2.306211 0
M  V30 4 C 0.665252 -1.764859 2.849867 0
M  V30 5 C 1.708183 -1.041750 2.078431 0
M  V30 6 C 2.933065 -0.529837 2.465545 0
M  V30 7 N 3.461708 0.034848 1.365632 0
M  V30 8 C 2.596842 -0.124073 0.345529 0
M  V30 9 C 2.732296 0.305128 -0.983577 0
M  V30 10 N 3.868756 0.983898 -1.450643 0
M  V30 11 C 4.188606 1.512014 -2.742947 0
M  V30 12 C 3.352499 2.712591 -3.143199 0
M  V30 13 C 3.812709 3.145436 -4.533753 0
M  V30 14 C 3.359716 4.567098 -4.817277 0
M  V30 15 O 2.510236 5.036171 -3.821474 0
M  V30 16 C 3.226060 5.176465 -2.640055 0
M  V30 17 C 3.628550 3.811729 -2.132858 0
M  V30 18 C 1.644162 -0.030058 -1.774805 0
M  V30 19 C 0.531814 -0.705480 -1.356337 0
M  V30 20 N -0.557548 -1.038770 -2.196803 0
M  V30 21 C -1.672697 -1.746148 -1.663070 0
M  V30 22 C -2.428099 -1.028576 -0.574557 0
M  V30 23 C -3.642068 -1.967663 -0.473665 0
M  V30 24 C -4.067341 -2.008293 -1.925708 0
M  V30 25 C -2.747593 -2.084736 -2.662476 0
M  V30 26 N 0.521766 -1.059444 -0.066289 0
M  V30 27 N 1.502326 -0.785431 0.750571 0
M  V30 28 C 0.324624 -1.234370 4.094861 0
M  V30 29 C -0.652194 -1.880901 4.823029 0
M  V30 30 C -1.226317 -3.008471 4.270960 0
M  V30 31 C -2.276546 -3.647369 5.096523 0
M  V30 32 O -2.119313 -4.360730 6.095937 0
M  V30 33 N -3.586296 -3.328830 4.580457 0
M  V30 34 C -4.838587 -3.786667 5.143559 0
M  V30 35 C -6.045820 -2.910544 5.058921 0
M  V30 36 C -5.948299 -4.146185 4.164630 0
M  V30 37 H -0.820946 -5.584832 2.413341 0
M  V30 38 H -2.151552 -4.586842 1.587076 0
M  V30 39 H -2.356940 -5.073212 3.295083 0
M  V30 40 H 0.380688 -3.271664 1.332762 0
M  V30 41 H 3.252949 -0.644848 3.491112 0
M  V30 42 H 4.622969 1.129621 -0.711315 0
M  V30 43 H 5.265488 1.718412 -2.825806 0
M  V30 44 H 3.990833 0.719064 -3.503909 0
M  V30 45 H 2.288840 2.459060 -3.193554 0
M  V30 46 H 3.408123 2.422084 -5.242882 0
M  V30 47 H 4.915148 3.060729 -4.547210 0
M  V30 48 H 2.863335 4.674500 -5.794809 0
M  V30 49 H 4.267233 5.221464 -4.830674 0
M  V30 50 H 2.653097 5.758324 -1.879287 0
M  V30 51 H 4.127095 5.781165 -2.911093 0
M  V30 52 H 4.748464 3.835921 -1.975460 0
M  V30 53 H 3.118924 3.604552 -1.180733 0
M  V30 54 H 1.634039 0.239389 -2.825284 0
M  V30 55 H -0.576352 -0.781006 -3.205842 0
M  V30 56 H -1.355086 -2.729666 -1.207357 0
M  V30 57 H -2.850988 -0.067284 -0.962003 0
M  V30 58 H -1.900384 -0.926841 0.374284 0
M  V30 59 H -3.246282 -2.983621 -0.217525 0
M  V30 60 H -4.402049 -1.614494 0.223179 0
M  V30 61 H -4.726364 -2.869488 -2.146368 0
M  V30 62 H -4.528799 -1.033053 -2.202558 0
M  V30 63 H -2.639948 -3.097861 -3.103908 0
M  V30 64 H -2.687577 -1.327750 -3.488941 0
M  V30 65 H 0.831799 -0.348302 4.437330 0
M  V30 66 H -0.950714 -1.507590 5.793375 0
M  V30 67 H -3.757069 -2.716849 3.725064 0
M  V30 68 H -4.730842 -4.429017 6.035383 0
M  V30 69 H -5.971702 -1.906326 4.596404 0
M  V30 70 H -6.781392 -2.953080 5.880965 0
M  V30 71 H -6.594969 -5.007524 4.446720 0
M  V30 72 H -5.798377 -3.904914 3.093460 0
M  V30 END ATOM
M  V30 BEGIN BOND
M  V30 1 1 1 2
M  V30 2 2 2 3
M  V30 3 1 3 4
M  V30 4 1 4 5
M  V30 5 2 5 6
M  V30 6 1 6 7
M  V30 7 2 7 8
M  V30 8 1 8 9
M  V30 9 1 9 10
M  V30 10 1 10 11
M  V30 11 1 11 12
M  V30 12 1 12 13
M  V30 13 1 13 14
M  V30 14 1 14 15
M  V30 15 1 15 16
M  V30 16 1 16 17
M  V30 17 2 9 18
M  V30 18 1 18 19
M  V30 19 1 19 20
M  V30 20 1 20 21
M  V30 21 1 21 22
M  V30 22 1 22 23
M  V30 23 1 23 24
M  V30 24 1 24 25
M  V30 25 2 19 26
M  V30 26 1 26 27
M  V30 27 2 4 28
M  V30 28 1 28 29
M  V30 29 2 29 30
M  V30 30 1 30 31
M  V30 31 2 31 32
M  V30 32 1 31 33
M  V30 33 1 33 34
M  V30 34 1 34 35
M  V30 35 1 35 36
M  V30 36 1 30 2
M  V30 37 1 36 34
M  V30 38 1 27 5
M  V30 39 1 27 8
M  V30 40 1 17 12
M  V30 41 1 25 21
M  V30 42 1 1 37
M  V30 43 1 1 38
M  V30 44 1 1 39
M  V30 45 1 3 40
M  V30 46 1 6 41
M  V30 47 1 10 42
M  V30 48 1 11 43
M  V30 49 1 11 44
M  V30 50 1 12 45
M  V30 51 1 13 46
M  V30 52 1 13 47
M  V30 53 1 14 48
M  V30 54 1 14 49
M  V30 55 1 16 50
M  V30 56 1 16 51
M  V30 57 1 17 52
M  V30 58 1 17 53
M  V30 59 1 18 54
M  V30 60 1 20 55
M  V30 61 1 21 56
M  V30 62 1 22 57
M  V30 63 1 22 58
M  V30 64 1 23 59
M  V30 65 1 23 60
M  V30 66 1 24 61
M  V30 67 1 24 62
M  V30 68 1 25 63
M  V30 69 1 25 64
M  V30 70 1 28 65
M  V30 71 1 29 66
M  V30 72 1 33 67
M  V30 73 1 34 68
M  V30 74 1 35 69
M  V30 75 1 35 70
M  V30 76 1 36 71
M  V30 77 1 36 72
M  V30 END BOND
M  V30 END CTAB
M  END
>  <Dataset>  (928) 
ChEMBL_Kinases

>  <Ligand_Instance>  (928) 
nan

>  <PDB_ID>  (928) 
nan

>  <Standardized_SMILES>  (928) 
Cc1cc(-c2cnc3c(NCC4CCOCC4)cc(NC4CCCC4)nn23)ccc1C(=O)NC1CC1

>  <Name>  (928) 
nan

>  <Pocket>  (928) 
nan

>  <ATP_Site>  (928) 
nan

>  <Peripheral>  (928) 
nan

>  <Num_H_Atoms_ProtBoundConf>  (928) 
nan

>  <Num_Resolved_Atoms>  (928) 
nan

>  <Num_Not_Resolved_Atoms>  (928) 
nan

$$$$
CHEMBL381948
     RDKit          3D

  0  0  0  0  0  0  0  0  0  0999 V3000
M  V30 BEGIN CTAB
M  V30 COUNTS 37 40 0 0 0
M  V30 BEGIN ATOM
M  V30 1 F 0.313966 -6.578400 2.904914 0
M  V30 2 C 0.469565 -5.240655 2.651462 0
M  V30 3 C 0.319680 -4.399654 3.759829 0
M  V30 4 C 0.473990 -3.052193 3.515161 0
M  V30 5 C 0.758336 -2.521134 2.274377 0
M  V30 6 C 0.896377 -1.075335 2.153374 0
M  V30 7 C 1.178036 -0.433660 0.969810 0
M  V30 8 C 1.297576 0.942426 0.909993 0
M  V30 9 C 1.600287 1.556986 -0.398814 0
M  V30 10 C 2.724279 2.303063 -0.763860 0
M  V30 11 N 2.554367 2.654869 -2.066193 0
M  V30 12 N 1.397544 2.167865 -2.510346 0
M  V30 13 C 0.779239 1.487664 -1.521609 0
M  V30 14 C -0.509046 0.818394 -1.643512 0
M  V30 15 C -1.509021 1.305714 -0.825783 0
M  V30 16 C -2.786261 0.772568 -0.827074 0
M  V30 17 C -3.079401 -0.292133 -1.681054 0
M  V30 18 C -2.046144 -0.755197 -2.489125 0
M  V30 19 N -0.809924 -0.224731 -2.474219 0
M  V30 20 C 1.131173 1.688839 2.061886 0
M  V30 21 C 0.851247 1.004379 3.221091 0
M  V30 22 N 0.739499 -0.335511 3.254829 0
M  V30 23 C 0.893539 -3.404306 1.224667 0
M  V30 24 C 0.754958 -4.768665 1.381672 0
M  V30 25 H 0.096134 -4.792198 4.745063 0
M  V30 26 H 0.354216 -2.411323 4.385283 0
M  V30 27 H 1.309720 -1.001509 0.067966 0
M  V30 28 H 3.540815 2.522679 -0.088326 0
M  V30 29 H 3.271039 3.230617 -2.592000 0
M  V30 30 H -1.372434 2.135230 -0.125769 0
M  V30 31 H -3.580386 1.162999 -0.174249 0
M  V30 32 H -4.075392 -0.683836 -1.661263 0
M  V30 33 H -2.254971 -1.577637 -3.155983 0
M  V30 34 H 1.225129 2.765339 2.015875 0
M  V30 35 H 0.717902 1.560253 4.127513 0
M  V30 36 H 1.114832 -3.019723 0.247282 0
M  V30 37 H 0.857182 -5.468509 0.570102 0
M  V30 END ATOM
M  V30 BEGIN BOND
M  V30 1 1 1 2
M  V30 2 2 2 3
M  V30 3 1 3 4
M  V30 4 2 4 5
M  V30 5 1 5 6
M  V30 6 2 6 7
M  V30 7 1 7 8
M  V30 8 1 8 9
M  V30 9 2 9 10
M  V30 10 1 10 11
M  V30 11 1 11 12
M  V30 12 2 12 13
M  V30 13 1 13 14
M  V30 14 2 14 15
M  V30 15 1 15 16
M  V30 16 2 16 17
M  V30 17 1 17 18
M  V30 18 2 18 19
M  V30 19 2 8 20
M  V30 20 1 20 21
M  V30 21 2 21 22
M  V30 22 1 5 23
M  V30 23 2 23 24
M  V30 24 1 24 2
M  V30 25 1 22 6
M  V30 26 1 13 9
M  V30 27 1 19 14
M  V30 28 1 3 25
M  V30 29 1 4 26
M  V30 30 1 7 27
M  V30 31 1 10 28
M  V30 32 1 11 29
M  V30 33 1 15 30
M  V30 34 1 16 31
M  V30 35 1 17 32
M  V30 36 1 18 33
M  V30 37 1 20 34
M  V30 38 1 21 35
M  V30 39 1 23 36
M  V30 40 1 24 37
M  V30 END BOND
M  V30 END CTAB
M  END
>  <Dataset>  (929) 
ChEMBL_Kinases

>  <Ligand_Instance>  (929) 
nan

>  <PDB_ID>  (929) 
nan

>  <Standardized_SMILES>  (929) 
Fc1ccc(-c2cc(-c3c[nH]nc3-c3ccccn3)ccn2)cc1

>  <Name>  (929) 
GW680975X

>  <Pocket>  (929) 
nan

>  <ATP_Site>  (929) 
nan

>  <Peripheral>  (929) 
nan

>  <Num_H_Atoms_ProtBoundConf>  (929) 
nan

>  <Num_Resolved_Atoms>  (929) 
nan

>  <Num_Not_Resolved_Atoms>  (929) 
nan

$$$$
CHEMBL3823278
     RDKit          3D

  0  0  0  0  0  0  0  0  0  0999 V3000
M  V30 BEGIN CTAB
M  V30 COUNTS 55 59 0 0 0
M  V30 BEGIN ATOM
M  V30 1 C -1.648703 -0.806253 4.821519 0
M  V30 2 C -0.422981 -1.623253 4.651132 0
M  V30 3 O -0.012998 -2.643377 5.274111 0
M  V30 4 N 0.554403 -1.351903 3.674934 0
M  V30 5 C 1.729774 -2.185662 3.555902 0
M  V30 6 C 2.940960 -1.310979 3.407237 0
M  V30 7 C 2.799044 -0.200885 2.422127 0
M  V30 8 N 2.791016 -0.706178 1.055601 0
M  V30 9 C 2.031229 -0.241250 0.029020 0
M  V30 10 C 2.287723 -0.962306 -1.119602 0
M  V30 11 N 1.703559 -0.796966 -2.411577 0
M  V30 12 C 0.722435 0.202706 -2.696355 0
M  V30 13 N 1.026233 1.452323 -3.143214 0
M  V30 14 C 0.085660 2.367266 -3.400520 0
M  V30 15 C -1.245519 2.052826 -3.212515 0
M  V30 16 Cl -2.558968 3.163926 -3.514862 0
M  V30 17 C -1.577811 0.789364 -2.759032 0
M  V30 18 C -2.950940 0.312495 -2.511357 0
M  V30 19 C -4.125011 0.422131 -3.251764 0
M  V30 20 N -5.110766 -0.198458 -2.560110 0
M  V30 21 C -4.563017 -0.675963 -1.428895 0
M  V30 22 C -5.112520 -1.379114 -0.384697 0
M  V30 23 C -4.397699 -1.794503 0.708909 0
M  V30 24 C -3.052136 -1.480810 0.747717 0
M  V30 25 C -2.523150 -0.773817 -0.312919 0
M  V30 26 N -3.253671 -0.379146 -1.375570 0
M  V30 27 N -0.580012 -0.085036 -2.519254 0
M  V30 28 C 3.241074 -1.887286 -0.737624 0
M  V30 29 C 3.876096 -2.915571 -1.576613 0
M  V30 30 N 3.497850 -1.684778 0.562873 0
M  V30 31 C 1.581310 0.598586 2.759033 0
M  V30 32 C 0.333841 -0.220802 2.808662 0
M  V30 33 H -1.471744 0.188827 5.256594 0
M  V30 34 H -2.391828 -1.376934 5.448402 0
M  V30 35 H -2.097927 -0.660217 3.796029 0
M  V30 36 H 1.853036 -2.706013 4.537987 0
M  V30 37 H 1.631114 -2.923721 2.728712 0
M  V30 38 H 3.865283 -1.906671 3.257348 0
M  V30 39 H 3.100104 -0.815690 4.410665 0
M  V30 40 H 3.685277 0.457849 2.547126 0
M  V30 41 H 1.316877 0.568058 0.050590 0
M  V30 42 H 2.015186 -1.440181 -3.171852 0
M  V30 43 H 0.333132 3.362642 -3.757211 0
M  V30 44 H -4.049020 0.957873 -4.204271 0
M  V30 45 H -6.163359 -1.634537 -0.396654 0
M  V30 46 H -4.800729 -2.348357 1.545815 0
M  V30 47 H -2.448221 -1.787584 1.590020 0
M  V30 48 H -1.476879 -0.543762 -0.257944 0
M  V30 49 H 4.978517 -2.828767 -1.567093 0
M  V30 50 H 3.543428 -2.856011 -2.629080 0
M  V30 51 H 3.623017 -3.941777 -1.205240 0
M  V30 52 H 1.460884 1.351464 1.929495 0
M  V30 53 H 1.748899 1.120236 3.703189 0
M  V30 54 H 0.119128 -0.645844 1.794679 0
M  V30 55 H -0.495398 0.410854 3.137644 0
M  V30 END ATOM
M  V30 BEGIN BOND
M  V30 1 1 1 2
M  V30 2 2 2 3
M  V30 3 1 2 4
M  V30 4 1 4 5
M  V30 5 1 5 6
M  V30 6 1 6 7
M  V30 7 1 7 8
M  V30 8 1 8 9
M  V30 9 2 9 10
M  V30 10 1 10 11
M  V30 11 1 11 12
M  V30 12 2 12 13
M  V30 13 1 13 14
M  V30 14 2 14 15
M  V30 15 1 15 16
M  V30 16 1 15 17
M  V30 17 1 17 18
M  V30 18 2 18 19
M  V30 19 1 19 20
M  V30 20 2 20 21
M  V30 21 1 21 22
M  V30 22 2 22 23
M  V30 23 1 23 24
M  V30 24 2 24 25
M  V30 25 1 25 26
M  V30 26 2 17 27
M  V30 27 1 10 28
M  V30 28 1 28 29
M  V30 29 2 28 30
M  V30 30 1 7 31
M  V30 31 1 31 32
M  V30 32 1 32 4
M  V30 33 1 30 8
M  V30 34 1 27 12
M  V30 35 1 26 18
M  V30 36 1 26 21
M  V30 37 1 1 33
M  V30 38 1 1 34
M  V30 39 1 1 35
M  V30 40 1 5 36
M  V30 41 1 5 37
M  V30 42 1 6 38
M  V30 43 1 6 39
M  V30 44 1 7 40
M  V30 45 1 9 41
M  V30 46 1 11 42
M  V30 47 1 14 43
M  V30 48 1 19 44
M  V30 49 1 22 45
M  V30 50 1 23 46
M  V30 51 1 24 47
M  V30 52 1 25 48
M  V30 53 1 29 49
M  V30 54 1 29 50
M  V30 55 1 29 51
M  V30 56 1 31 52
M  V30 57 1 31 53
M  V30 58 1 32 54
M  V30 59 1 32 55
M  V30 END BOND
M  V30 END CTAB
M  END
>  <Dataset>  (930) 
ChEMBL_Kinases

>  <Ligand_Instance>  (930) 
nan

>  <PDB_ID>  (930) 
nan

>  <Standardized_SMILES>  (930) 
CC(=O)N1CCC(n2cc(Nc3ncc(Cl)c(-c4cnc5ccccn45)n3)c(C)n2)CC1

>  <Name>  (930) 
nan

>  <Pocket>  (930) 
nan

>  <ATP_Site>  (930) 
nan

>  <Peripheral>  (930) 
nan

>  <Num_H_Atoms_ProtBoundConf>  (930) 
nan

>  <Num_Resolved_Atoms>  (930) 
nan

>  <Num_Not_Resolved_Atoms>  (930) 
nan

$$$$
CHEMBL3823258
     RDKit          3D

  0  0  0  0  0  0  0  0  0  0999 V3000
M  V30 BEGIN CTAB
M  V30 COUNTS 47 51 0 0 0
M  V30 BEGIN ATOM
M  V30 1 C 0.440699 -1.957348 1.918914 0
M  V30 2 C 0.073714 -3.251127 1.153415 0 CFG=2
M  V30 3 N 0.614642 -3.102479 -0.175336 0
M  V30 4 C 1.948999 -2.609661 -0.018261 0
M  V30 5 N 3.097066 -3.071299 0.509236 0
M  V30 6 C 4.197213 -2.262376 0.441862 0
M  V30 7 C 4.179679 -1.006094 -0.138664 0
M  V30 8 C 2.963062 -0.549724 -0.682007 0
M  V30 9 N 3.022863 0.765083 -1.262939 0
M  V30 10 C 2.084550 1.577841 -0.540158 0
M  V30 11 C 2.089623 2.146834 0.713467 0
M  V30 12 C 0.893993 2.854062 0.868677 0
M  V30 13 C 0.640371 3.572822 2.160931 0
M  V30 14 C 1.806464 4.062832 2.953979 0
M  V30 15 C 1.077262 2.821962 3.410208 0
M  V30 16 N 0.213362 2.696516 -0.273679 0
M  V30 17 N 0.903595 1.945443 -1.115655 0
M  V30 18 N 1.909831 -1.383189 -0.590227 0
M  V30 19 C -1.442390 -3.200984 1.089813 0
M  V30 20 N -1.783696 -2.211266 0.225230 0
M  V30 21 C -3.052338 -1.862504 -0.043920 0
M  V30 22 C -3.667314 -0.926935 -0.842327 0
M  V30 23 C -5.040652 -1.045834 -0.694038 0
M  V30 24 N -5.251620 -2.063703 0.206647 0
M  V30 25 C -4.054713 -2.546910 0.589324 0
M  V30 26 C -3.737586 -3.556459 1.471053 0
M  V30 27 C -2.429507 -3.903551 1.738916 0
M  V30 28 Cl -1.786060 -5.126769 2.789081 0
M  V30 29 H 1.463391 -1.983076 2.289047 0
M  V30 30 H -0.303966 -1.857644 2.742125 0
M  V30 31 H 0.229748 -1.124183 1.206197 0
M  V30 32 H 0.405625 -4.136124 1.693969 0
M  V30 33 H 0.178838 -3.295213 -1.113036 0
M  V30 34 H 5.047611 -2.740451 0.896339 0
M  V30 35 H 5.129673 -0.462657 -0.124571 0
M  V30 36 H 3.608155 1.111482 -2.046114 0
M  V30 37 H 2.928932 1.984847 1.352058 0
M  V30 38 H -0.315683 4.102881 2.197075 0
M  V30 39 H 1.681181 4.968936 3.558547 0
M  V30 40 H 2.849113 3.927227 2.549156 0
M  V30 41 H 1.619092 1.866131 3.292877 0
M  V30 42 H 0.411772 2.915982 4.285943 0
M  V30 43 H -0.733204 3.157283 -0.370224 0
M  V30 44 H -3.120229 -0.217360 -1.484179 0
M  V30 45 H -5.760203 -0.430353 -1.211356 0
M  V30 46 H -6.185776 -2.376325 0.517067 0
M  V30 47 H -4.455094 -4.160836 2.027135 0
M  V30 END ATOM
M  V30 BEGIN BOND
M  V30 1 1 1 2
M  V30 2 1 2 3
M  V30 3 1 3 4
M  V30 4 2 4 5
M  V30 5 1 5 6
M  V30 6 2 6 7
M  V30 7 1 7 8
M  V30 8 1 8 9
M  V30 9 1 9 10
M  V30 10 1 10 11
M  V30 11 2 11 12
M  V30 12 1 12 13
M  V30 13 1 13 14
M  V30 14 1 14 15
M  V30 15 1 12 16
M  V30 16 1 16 17
M  V30 17 2 8 18
M  V30 18 1 2 19
M  V30 19 2 19 20
M  V30 20 1 20 21
M  V30 21 1 21 22
M  V30 22 2 22 23
M  V30 23 1 23 24
M  V30 24 1 24 25
M  V30 25 1 25 26
M  V30 26 2 26 27
M  V30 27 1 27 28
M  V30 28 1 18 4
M  V30 29 1 27 19
M  V30 30 2 17 10
M  V30 31 2 25 21
M  V30 32 1 15 13
M  V30 33 1 1 29
M  V30 34 1 1 30
M  V30 35 1 1 31
M  V30 36 1 2 32 CFG=1
M  V30 37 1 3 33
M  V30 38 1 6 34
M  V30 39 1 7 35
M  V30 40 1 9 36
M  V30 41 1 11 37
M  V30 42 1 13 38
M  V30 43 1 14 39
M  V30 44 1 14 40
M  V30 45 1 15 41
M  V30 46 1 15 42
M  V30 47 1 16 43
M  V30 48 1 22 44
M  V30 49 1 23 45
M  V30 50 1 24 46
M  V30 51 1 26 47
M  V30 END BOND
M  V30 END CTAB
M  END
>  <Dataset>  (931) 
ChEMBL_Kinases

>  <Ligand_Instance>  (931) 
nan

>  <PDB_ID>  (931) 
nan

>  <Standardized_SMILES>  (931) 
C[C@H](Nc1nccc(Nc2cc(C3CC3)[nH]n2)n1)c1nc2cc[nH]c2cc1Cl

>  <Name>  (931) 
nan

>  <Pocket>  (931) 
nan

>  <ATP_Site>  (931) 
nan

>  <Peripheral>  (931) 
nan

>  <Num_H_Atoms_ProtBoundConf>  (931) 
nan

>  <Num_Resolved_Atoms>  (931) 
nan

>  <Num_Not_Resolved_Atoms>  (931) 
nan

$$$$
CHEMBL3823242
     RDKit          3D

  0  0  0  0  0  0  0  0  0  0999 V3000
M  V30 BEGIN CTAB
M  V30 COUNTS 65 66 0 0 0
M  V30 BEGIN ATOM
M  V30 1 O 2.759640 3.740565 1.477157 0
M  V30 2 P 3.089970 2.287806 1.446135 0
M  V30 3 O 3.588928 1.689946 2.939097 0
M  V30 4 O 4.342888 2.078453 0.311023 0
M  V30 5 O 1.750197 1.378304 0.939618 0
M  V30 6 C 2.084975 0.071764 0.662503 0
M  V30 7 C 0.962625 -0.789073 0.211722 0 CFG=2
M  V30 8 C 0.292411 -0.273543 -1.064172 0 CFG=1
M  V30 9 O 1.183374 0.066749 -2.048955 0
M  V30 10 P 1.118018 1.676934 -2.519061 0
M  V30 11 O 2.557031 2.185773 -2.606843 0
M  V30 12 O 0.254329 2.652790 -1.458210 0
M  V30 13 O 0.414682 1.842021 -4.054797 0
M  V30 14 C -0.587922 -1.385895 -1.587688 0 CFG=2
M  V30 15 O -1.339143 -0.890038 -2.658674 0
M  V30 16 P -0.933273 -1.807436 -4.020597 0
M  V30 17 O -1.492371 -1.083129 -5.220454 0
M  V30 18 O 0.759542 -1.888907 -4.083738 0
M  V30 19 O -1.594952 -3.357161 -3.861219 0
M  V30 20 C -1.565971 -1.913537 -0.563196 0 CFG=1
M  V30 21 O -2.143101 -3.058266 -1.103676 0
M  V30 22 P -3.821229 -3.001213 -1.184156 0
M  V30 23 O -4.250274 -4.172482 -2.067252 0
M  V30 24 O -4.553230 -3.194068 0.305428 0
M  V30 25 O -4.406490 -1.602760 -1.902777 0
M  V30 26 C -0.794794 -2.351768 0.649598 0 CFG=2
M  V30 27 O -1.559474 -2.925276 1.630003 0
M  V30 28 P -0.945291 -4.459577 1.994915 0
M  V30 29 O 0.454835 -4.620769 1.413687 0
M  V30 30 O -1.950250 -5.622147 1.286986 0
M  V30 31 O -0.862972 -4.703956 3.663680 0
M  V30 32 C -0.135334 -1.031456 1.198882 0 CFG=2
M  V30 33 O -1.084274 -0.034379 1.076101 0
M  V30 34 C -1.598825 0.508942 2.201860 0
M  V30 35 C -0.664146 1.199119 3.101266 0
M  V30 36 C 0.030223 0.654457 4.148761 0
M  V30 37 C 0.887704 1.353071 4.968614 0
M  V30 38 C 1.085523 2.699798 4.748941 0
M  V30 39 C 0.427238 3.332536 3.716436 0
M  V30 40 C -0.411487 2.552592 2.947472 0
M  V30 41 H 3.720368 0.715491 2.843525 0
M  V30 42 H 4.947542 1.352946 0.648231 0
M  V30 43 H 2.464819 -0.351215 1.640543 0
M  V30 44 H 2.961485 0.059428 -0.000277 0
M  V30 45 H 1.379766 -1.807689 -0.103243 0
M  V30 46 H -0.316195 0.598232 -0.757758 0
M  V30 47 H -0.690706 2.764009 -1.676592 0
M  V30 48 H -0.562530 1.894636 -3.909327 0
M  V30 49 H 0.060536 -2.221859 -1.881334 0
M  V30 50 H 1.091554 -2.815177 -3.931462 0
M  V30 51 H -0.921418 -4.024285 -3.576601 0
M  V30 52 H -2.309187 -1.144358 -0.271358 0
M  V30 53 H -5.337326 -3.785305 0.233542 0
M  V30 54 H -5.372690 -1.531664 -1.616619 0
M  V30 55 H 0.038742 -2.996712 0.314417 0
M  V30 56 H -1.507245 -6.123091 0.568243 0
M  V30 57 H -0.016368 -5.101452 3.948291 0
M  V30 58 H 0.176093 -1.243624 2.232322 0
M  V30 59 H -2.229488 -0.215575 2.783517 0
M  V30 60 H -2.343408 1.306838 1.878853 0
M  V30 61 H -0.079180 -0.376038 4.385320 0
M  V30 62 H 1.415255 0.877446 5.785241 0
M  V30 63 H 1.748434 3.282027 5.368226 0
M  V30 64 H 0.566070 4.373627 3.529473 0
M  V30 65 H -0.915321 3.100773 2.135197 0
M  V30 END ATOM
M  V30 BEGIN BOND
M  V30 1 2 1 2
M  V30 2 1 2 3
M  V30 3 1 2 4
M  V30 4 1 2 5
M  V30 5 1 5 6
M  V30 6 1 6 7
M  V30 7 1 7 8
M  V30 8 1 8 9
M  V30 9 1 9 10
M  V30 10 2 10 11
M  V30 11 1 10 12
M  V30 12 1 10 13
M  V30 13 1 8 14
M  V30 14 1 14 15
M  V30 15 1 15 16
M  V30 16 2 16 17
M  V30 17 1 16 18
M  V30 18 1 16 19
M  V30 19 1 14 20
M  V30 20 1 20 21
M  V30 21 1 21 22
M  V30 22 2 22 23
M  V30 23 1 22 24
M  V30 24 1 22 25
M  V30 25 1 20 26
M  V30 26 1 26 27
M  V30 27 1 27 28
M  V30 28 2 28 29
M  V30 29 1 28 30
M  V30 30 1 28 31
M  V30 31 1 26 32
M  V30 32 1 32 33
M  V30 33 1 33 34
M  V30 34 1 34 35
M  V30 35 2 35 36
M  V30 36 1 36 37
M  V30 37 2 37 38
M  V30 38 1 38 39
M  V30 39 2 39 40
M  V30 40 1 32 7
M  V30 41 1 40 35
M  V30 42 1 3 41
M  V30 43 1 4 42
M  V30 44 1 6 43
M  V30 45 1 6 44
M  V30 46 1 7 45 CFG=3
M  V30 47 1 8 46 CFG=1
M  V30 48 1 12 47
M  V30 49 1 13 48
M  V30 50 1 14 49 CFG=3
M  V30 51 1 18 50
M  V30 52 1 19 51
M  V30 53 1 20 52 CFG=1
M  V30 54 1 24 53
M  V30 55 1 25 54
M  V30 56 1 26 55 CFG=3
M  V30 57 1 30 56
M  V30 58 1 31 57
M  V30 59 1 32 58 CFG=1
M  V30 60 1 34 59
M  V30 61 1 34 60
M  V30 62 1 36 61
M  V30 63 1 37 62
M  V30 64 1 38 63
M  V30 65 1 39 64
M  V30 66 1 40 65
M  V30 END BOND
M  V30 END CTAB
M  END
>  <Dataset>  (932) 
ChEMBL_Kinases

>  <Ligand_Instance>  (932) 
nan

>  <PDB_ID>  (932) 
nan

>  <Standardized_SMILES>  (932) 
O=P(O)(O)OC[C@@H]1[C@@H](OP(=O)(O)O)[C@H](OP(=O)(O)O)[C@@H](OP(=O)(O)O)[C@H](OP(=O)(O)O)[C@@H]1OCc1ccccc1

>  <Name>  (932) 
nan

>  <Pocket>  (932) 
nan

>  <ATP_Site>  (932) 
nan

>  <Peripheral>  (932) 
nan

>  <Num_H_Atoms_ProtBoundConf>  (932) 
nan

>  <Num_Resolved_Atoms>  (932) 
nan

>  <Num_Not_Resolved_Atoms>  (932) 
nan

$$$$
CHEMBL3823241
     RDKit          3D

  0  0  0  0  0  0  0  0  0  0999 V3000
M  V30 BEGIN CTAB
M  V30 COUNTS 35 38 0 0 0
M  V30 BEGIN ATOM
M  V30 1 O -0.106622 0.142564 0.832804 0
M  V30 2 C -0.841140 -0.734034 1.392259 0
M  V30 3 N -0.134457 -1.950486 1.593425 0
M  V30 4 C 1.206517 -1.872154 1.118419 0
M  V30 5 C 2.235930 -1.452230 1.938606 0
M  V30 6 C 3.551586 -1.377527 1.465533 0
M  V30 7 C 3.765322 -1.747411 0.130531 0
M  V30 8 C 2.722346 -2.163692 -0.670306 0
M  V30 9 C 1.430462 -2.233730 -0.194658 0
M  V30 10 O 3.201619 -2.467234 -1.931682 0
M  V30 11 C 4.106259 -1.648435 -2.634797 0
M  V30 12 C 5.236343 -1.225137 -1.744437 0
M  V30 13 O 5.023784 -1.712213 -0.440054 0
M  V30 14 C -2.231877 -0.550223 1.789747 0
M  V30 15 N -3.130157 -1.347525 2.375311 0
M  V30 16 N -4.272549 -0.701032 2.523962 0
M  V30 17 C -4.166956 0.567402 2.033452 0
M  V30 18 C -5.081708 1.598808 1.968074 0
M  V30 19 C -4.658641 2.801846 1.395242 0
M  V30 20 C -3.366639 2.945492 0.913103 0
M  V30 21 C -2.500785 1.875223 1.008726 0
M  V30 22 C -2.870065 0.653469 1.570352 0
M  V30 23 H -0.617848 -2.767342 2.047748 0
M  V30 24 H 2.006676 -1.177540 2.968444 0
M  V30 25 H 4.369489 -1.048666 2.102931 0
M  V30 26 H 0.691246 -2.573752 -0.907368 0
M  V30 27 H 3.563436 -0.777849 -3.061724 0
M  V30 28 H 4.552881 -2.225380 -3.493222 0
M  V30 29 H 5.207823 -0.097438 -1.665567 0
M  V30 30 H 6.221530 -1.558121 -2.136791 0
M  V30 31 H -5.158449 -1.072886 2.952680 0
M  V30 32 H -6.097825 1.510937 2.338255 0
M  V30 33 H -5.379440 3.609371 1.345592 0
M  V30 34 H -3.082162 3.896300 0.476994 0
M  V30 35 H -1.501769 2.009177 0.627706 0
M  V30 END ATOM
M  V30 BEGIN BOND
M  V30 1 2 1 2
M  V30 2 1 2 3
M  V30 3 1 3 4
M  V30 4 2 4 5
M  V30 5 1 5 6
M  V30 6 2 6 7
M  V30 7 1 7 8
M  V30 8 2 8 9
M  V30 9 1 8 10
M  V30 10 1 10 11
M  V30 11 1 11 12
M  V30 12 1 12 13
M  V30 13 1 2 14
M  V30 14 2 14 15
M  V30 15 1 15 16
M  V30 16 1 16 17
M  V30 17 2 17 18
M  V30 18 1 18 19
M  V30 19 2 19 20
M  V30 20 1 20 21
M  V30 21 2 21 22
M  V30 22 1 9 4
M  V30 23 1 22 14
M  V30 24 1 13 7
M  V30 25 1 22 17
M  V30 26 1 3 23
M  V30 27 1 5 24
M  V30 28 1 6 25
M  V30 29 1 9 26
M  V30 30 1 11 27
M  V30 31 1 11 28
M  V30 32 1 12 29
M  V30 33 1 12 30
M  V30 34 1 16 31
M  V30 35 1 18 32
M  V30 36 1 19 33
M  V30 37 1 20 34
M  V30 38 1 21 35
M  V30 END BOND
M  V30 END CTAB
M  END
>  <Dataset>  (933) 
ChEMBL_Kinases

>  <Ligand_Instance>  (933) 
nan

>  <PDB_ID>  (933) 
nan

>  <Standardized_SMILES>  (933) 
O=C(Nc1ccc2c(c1)OCCO2)c1n[nH]c2ccccc12

>  <Name>  (933) 
nan

>  <Pocket>  (933) 
nan

>  <ATP_Site>  (933) 
nan

>  <Peripheral>  (933) 
nan

>  <Num_H_Atoms_ProtBoundConf>  (933) 
nan

>  <Num_Resolved_Atoms>  (933) 
nan

>  <Num_Not_Resolved_Atoms>  (933) 
nan

$$$$
CHEMBL495545
     RDKit          3D

  0  0  0  0  0  0  0  0  0  0999 V3000
M  V30 BEGIN CTAB
M  V30 COUNTS 51 55 0 0 0
M  V30 BEGIN ATOM
M  V30 1 C -0.449915 -5.665598 1.380963 0
M  V30 2 N 0.735433 -6.201377 0.788061 0
M  V30 3 C 1.159119 -5.404034 -0.348113 0
M  V30 4 C 2.182185 -4.384166 0.136460 0
M  V30 5 N 1.956262 -4.025508 1.519778 0
M  V30 6 C 1.509688 -2.749997 1.958008 0
M  V30 7 C 1.124810 -1.794047 1.048323 0
M  V30 8 C 0.704800 -0.574005 1.531277 0
M  V30 9 C 0.630668 -0.210552 2.858006 0
M  V30 10 N 0.185218 1.051124 3.337812 0
M  V30 11 C -0.374970 2.135060 2.616410 0
M  V30 12 N -0.672627 3.260051 3.320158 0
M  V30 13 C -1.209324 4.324392 2.711963 0
M  V30 14 C -1.434014 4.207725 1.363194 0
M  V30 15 C -1.165439 3.119013 0.582502 0
M  V30 16 C -1.390184 2.903376 -0.821176 0
M  V30 17 C -1.267706 1.618178 -1.361723 0
M  V30 18 N -1.505604 1.670406 -2.677827 0
M  V30 19 N -1.779029 2.897936 -3.064315 0
M  V30 20 N -2.064997 3.431691 -4.237701 0
M  V30 21 C -2.291095 4.753153 -4.315182 0
M  V30 22 C -2.232592 5.582677 -3.189509 0
M  V30 23 C -1.929991 4.962181 -1.999162 0
M  V30 24 C -1.703970 3.619105 -1.937003 0
M  V30 25 N -0.638895 2.150144 1.328064 0
M  V30 26 C 1.029114 -1.207554 3.733867 0
M  V30 27 C 1.452216 -2.430861 3.292041 0
M  V30 28 C 2.234371 -5.133394 2.421430 0
M  V30 29 C 1.821883 -6.413613 1.725062 0
M  V30 30 H -0.328163 -5.275161 2.402796 0
M  V30 31 H -0.823746 -4.841122 0.710180 0
M  V30 32 H -1.262221 -6.448466 1.327707 0
M  V30 33 H 1.644527 -6.080571 -1.076626 0
M  V30 34 H 0.289642 -4.946647 -0.839947 0
M  V30 35 H 3.176293 -4.918880 0.092176 0
M  V30 36 H 2.274766 -3.537736 -0.547402 0
M  V30 37 H 1.136608 -1.960992 -0.031594 0
M  V30 38 H 0.417090 0.148726 0.783636 0
M  V30 39 H 0.300232 1.175149 4.390780 0
M  V30 40 H -1.450207 5.223351 3.258607 0
M  V30 41 H -1.878140 5.078750 0.927197 0
M  V30 42 H -1.041613 0.618510 -1.021902 0
M  V30 43 H -2.524183 5.141320 -5.316571 0
M  V30 44 H -2.423550 6.634042 -3.319456 0
M  V30 45 H -1.883517 5.625252 -1.165221 0
M  V30 46 H 0.999714 -0.999464 4.812033 0
M  V30 47 H 1.742240 -3.131656 4.075631 0
M  V30 48 H 1.772037 -5.020776 3.402126 0
M  V30 49 H 3.344889 -5.187004 2.550374 0
M  V30 50 H 1.475090 -7.127856 2.484585 0
M  V30 51 H 2.674502 -6.786982 1.123883 0
M  V30 END ATOM
M  V30 BEGIN BOND
M  V30 1 1 1 2
M  V30 2 1 2 3
M  V30 3 1 3 4
M  V30 4 1 4 5
M  V30 5 1 5 6
M  V30 6 2 6 7
M  V30 7 1 7 8
M  V30 8 2 8 9
M  V30 9 1 9 10
M  V30 10 1 10 11
M  V30 11 2 11 12
M  V30 12 1 12 13
M  V30 13 2 13 14
M  V30 14 1 14 15
M  V30 15 1 15 16
M  V30 16 1 16 17
M  V30 17 2 17 18
M  V30 18 1 18 19
M  V30 19 1 19 20
M  V30 20 2 20 21
M  V30 21 1 21 22
M  V30 22 2 22 23
M  V30 23 1 23 24
M  V30 24 2 15 25
M  V30 25 1 9 26
M  V30 26 2 26 27
M  V30 27 1 5 28
M  V30 28 1 28 29
M  V30 29 1 29 2
M  V30 30 1 27 6
M  V30 31 1 25 11
M  V30 32 2 24 16
M  V30 33 1 24 19
M  V30 34 1 1 30
M  V30 35 1 1 31
M  V30 36 1 1 32
M  V30 37 1 3 33
M  V30 38 1 3 34
M  V30 39 1 4 35
M  V30 40 1 4 36
M  V30 41 1 7 37
M  V30 42 1 8 38
M  V30 43 1 10 39
M  V30 44 1 13 40
M  V30 45 1 14 41
M  V30 46 1 17 42
M  V30 47 1 21 43
M  V30 48 1 22 44
M  V30 49 1 23 45
M  V30 50 1 26 46
M  V30 51 1 27 47
M  V30 52 1 28 48
M  V30 53 1 28 49
M  V30 54 1 29 50
M  V30 55 1 29 51
M  V30 END BOND
M  V30 END CTAB
M  END
>  <Dataset>  (934) 
ChEMBL_Kinases

>  <Ligand_Instance>  (934) 
nan

>  <PDB_ID>  (934) 
nan

>  <Standardized_SMILES>  (934) 
CN1CCN(c2ccc(Nc3nccc(-c4cnn5ncccc45)n3)cc2)CC1

>  <Name>  (934) 
nan

>  <Pocket>  (934) 
nan

>  <ATP_Site>  (934) 
nan

>  <Peripheral>  (934) 
nan

>  <Num_H_Atoms_ProtBoundConf>  (934) 
nan

>  <Num_Resolved_Atoms>  (934) 
nan

>  <Num_Not_Resolved_Atoms>  (934) 
nan

$$$$
CHEMBL3823073
     RDKit          3D

  0  0  0  0  0  0  0  0  0  0999 V3000
M  V30 BEGIN CTAB
M  V30 COUNTS 36 38 0 0 0
M  V30 BEGIN ATOM
M  V30 1 N -1.217564 -1.439981 6.128518 0
M  V30 2 C -0.444197 -1.315539 4.938309 0
M  V30 3 O 0.183826 -2.303280 4.476654 0
M  V30 4 C -0.362745 -0.021173 4.218842 0
M  V30 5 C 0.516914 -0.217219 3.021624 0
M  V30 6 C 1.873331 0.000181 3.145063 0
M  V30 7 C 2.690687 -0.180464 2.038307 0
M  V30 8 C 2.184152 -0.572024 0.815887 0
M  V30 9 C 0.821712 -0.789894 0.693776 0
M  V30 10 N 0.102189 -1.194372 -0.467630 0
M  V30 11 C -0.383991 -0.176950 -1.305081 0
M  V30 12 O -0.017107 0.917479 -0.749141 0
M  V30 13 C -1.132062 -0.089835 -2.533287 0
M  V30 14 N -1.391875 1.146322 -3.009103 0
M  V30 15 N -2.084313 1.043185 -4.138449 0
M  V30 16 C -2.322658 -0.230664 -4.476611 0
M  V30 17 C -2.961247 -0.903230 -5.494554 0
M  V30 18 C -2.976986 -2.281419 -5.464036 0
M  V30 19 C -2.364742 -2.964076 -4.433880 0
M  V30 20 C -1.724947 -2.294535 -3.413841 0
M  V30 21 C -1.714791 -0.922718 -3.453237 0
M  V30 22 C -0.002595 -0.608580 1.806661 0
M  V30 23 H -1.722096 -0.604078 6.494499 0
M  V30 24 H -1.264485 -2.363104 6.610538 0
M  V30 25 H 0.104471 0.713677 4.886328 0
M  V30 26 H -1.357164 0.393320 3.951029 0
M  V30 27 H 2.288873 0.302773 4.077270 0
M  V30 28 H 3.777206 -0.024084 2.069859 0
M  V30 29 H 2.718628 -0.738334 -0.090443 0
M  V30 30 H -0.138375 -2.138729 -0.822881 0
M  V30 31 H -2.394817 1.878192 -4.680860 0
M  V30 32 H -3.421280 -0.315085 -6.271676 0
M  V30 33 H -3.471338 -2.834242 -6.250745 0
M  V30 34 H -2.373794 -4.057133 -4.404058 0
M  V30 35 H -1.260293 -2.845488 -2.630681 0
M  V30 36 H -1.087921 -0.760158 1.792676 0
M  V30 END ATOM
M  V30 BEGIN BOND
M  V30 1 1 1 2
M  V30 2 2 2 3
M  V30 3 1 2 4
M  V30 4 1 4 5
M  V30 5 2 5 6
M  V30 6 1 6 7
M  V30 7 2 7 8
M  V30 8 1 8 9
M  V30 9 1 9 10
M  V30 10 1 10 11
M  V30 11 2 11 12
M  V30 12 1 11 13
M  V30 13 2 13 14
M  V30 14 1 14 15
M  V30 15 1 15 16
M  V30 16 2 16 17
M  V30 17 1 17 18
M  V30 18 2 18 19
M  V30 19 1 19 20
M  V30 20 2 20 21
M  V30 21 2 9 22
M  V30 22 1 22 5
M  V30 23 1 21 13
M  V30 24 1 21 16
M  V30 25 1 1 23
M  V30 26 1 1 24
M  V30 27 1 4 25
M  V30 28 1 4 26
M  V30 29 1 6 27
M  V30 30 1 7 28
M  V30 31 1 8 29
M  V30 32 1 10 30
M  V30 33 1 15 31
M  V30 34 1 17 32
M  V30 35 1 18 33
M  V30 36 1 19 34
M  V30 37 1 20 35
M  V30 38 1 22 36
M  V30 END BOND
M  V30 END CTAB
M  END
>  <Dataset>  (935) 
ChEMBL_Kinases

>  <Ligand_Instance>  (935) 
nan

>  <PDB_ID>  (935) 
nan

>  <Standardized_SMILES>  (935) 
NC(=O)Cc1cccc(NC(=O)c2n[nH]c3ccccc23)c1

>  <Name>  (935) 
nan

>  <Pocket>  (935) 
nan

>  <ATP_Site>  (935) 
nan

>  <Peripheral>  (935) 
nan

>  <Num_H_Atoms_ProtBoundConf>  (935) 
nan

>  <Num_Resolved_Atoms>  (935) 
nan

>  <Num_Not_Resolved_Atoms>  (935) 
nan

$$$$
CHEMBL3823056
     RDKit          3D

  0  0  0  0  0  0  0  0  0  0999 V3000
M  V30 BEGIN CTAB
M  V30 COUNTS 47 51 0 0 0
M  V30 BEGIN ATOM
M  V30 1 C 1.563716 -4.549598 1.882212 0
M  V30 2 C 0.544857 -4.134269 0.919006 0 CFG=2
M  V30 3 N 0.978500 -3.411496 -0.258351 0
M  V30 4 C 1.928569 -2.345406 -0.171016 0
M  V30 5 N 2.691324 -2.191920 0.912510 0
M  V30 6 C 3.551865 -1.176455 1.042555 0
M  V30 7 C 3.708128 -0.216303 0.060820 0
M  V30 8 C 2.911624 -0.384971 -1.055827 0
M  V30 9 N 2.931991 0.621321 -2.100643 0
M  V30 10 C 1.815545 1.411652 -1.614084 0
M  V30 11 C 1.515902 1.806502 -0.299672 0
M  V30 12 C 0.307904 2.527720 -0.221259 0
M  V30 13 C -0.198899 3.002916 1.058141 0 CFG=2
M  V30 14 C -1.620528 3.379414 1.213970 0
M  V30 15 C -0.511334 4.444597 1.271959 0 CFG=2
M  V30 16 F -0.495087 5.334841 0.241740 0
M  V30 17 N -0.062258 2.530061 -1.518737 0
M  V30 18 N 0.788381 1.899289 -2.315785 0
M  V30 19 N 2.052882 -1.420477 -1.160391 0
M  V30 20 C -0.602813 -3.421519 1.522813 0
M  V30 21 C -1.515705 -3.956268 2.419942 0
M  V30 22 C -2.606288 -3.219331 2.864222 0
M  V30 23 C -2.836688 -1.925933 2.441385 0
M  V30 24 N -3.757060 -0.979525 2.667911 0
M  V30 25 C -3.442303 0.132231 1.940683 0
M  V30 26 C -2.283113 -0.124827 1.228306 0
M  V30 27 C -1.908450 -1.423703 1.550432 0
M  V30 28 N -0.865638 -2.157530 1.136947 0
M  V30 29 H 1.483577 -5.664053 2.094937 0
M  V30 30 H 2.626059 -4.394348 1.594533 0
M  V30 31 H 1.442860 -4.113169 2.916958 0
M  V30 32 H 0.080656 -5.098847 0.453536 0
M  V30 33 H 0.628814 -3.616093 -1.243547 0
M  V30 34 H 4.163284 -1.077419 1.938355 0
M  V30 35 H 4.378012 0.611455 0.115246 0
M  V30 36 H 3.439042 0.910731 -2.971104 0
M  V30 37 H 2.159921 1.583311 0.533869 0
M  V30 38 H 0.260962 2.496240 1.954801 0
M  V30 39 H -2.267076 3.373739 0.330270 0
M  V30 40 H -2.168239 3.152002 2.156178 0
M  V30 41 H -0.300173 4.910266 2.270080 0
M  V30 42 H -0.973870 3.020152 -1.762776 0
M  V30 43 H -1.316224 -4.964583 2.753628 0
M  V30 44 H -3.306520 -3.658333 3.562633 0
M  V30 45 H -4.591097 -1.075750 3.313529 0
M  V30 46 H -3.992576 1.071637 1.910255 0
M  V30 47 H -1.742347 0.537779 0.540425 0
M  V30 END ATOM
M  V30 BEGIN BOND
M  V30 1 1 1 2
M  V30 2 1 2 3
M  V30 3 1 3 4
M  V30 4 2 4 5
M  V30 5 1 5 6
M  V30 6 2 6 7
M  V30 7 1 7 8
M  V30 8 1 8 9
M  V30 9 1 9 10
M  V30 10 1 10 11
M  V30 11 2 11 12
M  V30 12 1 12 13
M  V30 13 1 13 14
M  V30 14 1 14 15
M  V30 15 1 15 16
M  V30 16 1 12 17
M  V30 17 1 17 18
M  V30 18 2 8 19
M  V30 19 1 2 20
M  V30 20 2 20 21
M  V30 21 1 21 22
M  V30 22 2 22 23
M  V30 23 1 23 24
M  V30 24 1 24 25
M  V30 25 2 25 26
M  V30 26 1 26 27
M  V30 27 2 27 28
M  V30 28 1 19 4
M  V30 29 1 28 20
M  V30 30 2 18 10
M  V30 31 1 27 23
M  V30 32 1 15 13
M  V30 33 1 1 29
M  V30 34 1 1 30
M  V30 35 1 1 31
M  V30 36 1 2 32 CFG=3
M  V30 37 1 3 33
M  V30 38 1 6 34
M  V30 39 1 7 35
M  V30 40 1 9 36
M  V30 41 1 11 37
M  V30 42 1 13 38 CFG=1
M  V30 43 1 14 39
M  V30 44 1 14 40
M  V30 45 1 15 41 CFG=1
M  V30 46 1 17 42
M  V30 47 1 21 43
M  V30 48 1 22 44
M  V30 49 1 24 45
M  V30 50 1 25 46
M  V30 51 1 26 47
M  V30 END BOND
M  V30 END CTAB
M  END
>  <Dataset>  (936) 
ChEMBL_Kinases

>  <Ligand_Instance>  (936) 
nan

>  <PDB_ID>  (936) 
nan

>  <Standardized_SMILES>  (936) 
C[C@H](Nc1nccc(Nc2cc([C@@H]3C[C@@H]3F)[nH]n2)n1)c1ccc2[nH]ccc2n1

>  <Name>  (936) 
nan

>  <Pocket>  (936) 
nan

>  <ATP_Site>  (936) 
nan

>  <Peripheral>  (936) 
nan

>  <Num_H_Atoms_ProtBoundConf>  (936) 
nan

>  <Num_Resolved_Atoms>  (936) 
nan

>  <Num_Not_Resolved_Atoms>  (936) 
nan

$$$$
CHEMBL495547
     RDKit          3D

  0  0  0  0  0  0  0  0  0  0999 V3000
M  V30 BEGIN CTAB
M  V30 COUNTS 52 56 0 0 0
M  V30 BEGIN ATOM
M  V30 1 C 1.902272 -4.786629 3.952649 0
M  V30 2 N 2.568491 -5.253145 2.791314 0
M  V30 3 C 3.766147 -4.580608 2.413280 0
M  V30 4 C 3.635114 -3.769854 1.146693 0
M  V30 5 N 2.260115 -3.690853 0.696053 0
M  V30 6 C 1.529627 -2.490405 0.510138 0
M  V30 7 C 2.109426 -1.251945 0.646044 0
M  V30 8 C 1.398430 -0.080957 0.468256 0
M  V30 9 N 0.091040 -0.098997 0.150479 0
M  V30 10 C -0.833314 0.874129 -0.078687 0
M  V30 11 C -0.498099 2.286488 -0.004539 0
M  V30 12 C -0.682060 2.940198 -1.224197 0
M  V30 13 C -0.413609 4.298859 -1.360527 0
M  V30 14 N 0.034351 4.998941 -0.289074 0
M  V30 15 C 0.203135 4.336651 0.881818 0
M  V30 16 N 0.670228 5.039462 2.019206 0
M  V30 17 N -0.052108 3.024350 1.028215 0
M  V30 18 C -2.027769 0.273663 -0.366072 0
M  V30 19 C -3.268050 0.987146 -0.672391 0
M  V30 20 C -3.768842 1.818734 0.331988 0
M  V30 21 C -4.943518 2.487631 0.033386 0
M  V30 22 C -5.577328 2.330562 -1.200363 0
M  V30 23 F -6.726818 2.987391 -1.487743 0
M  V30 24 C -5.030032 1.488644 -2.159462 0
M  V30 25 C -3.861164 0.794608 -1.921422 0
M  V30 26 N -1.811316 -1.053652 -0.307517 0
M  V30 27 C -0.508100 -1.298532 0.010082 0
M  V30 28 C 0.193269 -2.488547 0.185476 0
M  V30 29 C 1.754409 -5.027702 0.462680 0
M  V30 30 C 1.756255 -5.763766 1.758698 0
M  V30 31 H 0.972467 -4.274973 3.651785 0
M  V30 32 H 1.568189 -5.701889 4.524875 0
M  V30 33 H 2.576968 -4.196196 4.590299 0
M  V30 34 H 4.045950 -3.870811 3.226161 0
M  V30 35 H 4.593880 -5.320004 2.372978 0
M  V30 36 H 4.152230 -2.815387 1.225327 0
M  V30 37 H 4.216568 -4.355791 0.374057 0
M  V30 38 H 3.133234 -1.114572 0.894580 0
M  V30 39 H 1.872626 0.895722 0.579876 0
M  V30 40 H -1.036393 2.463968 -2.136061 0
M  V30 41 H -0.560234 4.808977 -2.324643 0
M  V30 42 H 0.128574 5.634942 2.683515 0
M  V30 43 H 1.699614 4.822260 2.042361 0
M  V30 44 H -3.243791 1.906365 1.264776 0
M  V30 45 H -5.378432 3.138256 0.755366 0
M  V30 46 H -5.469887 1.316043 -3.146491 0
M  V30 47 H -3.363897 0.119980 -2.605814 0
M  V30 48 H -0.370689 -3.375568 0.053408 0
M  V30 49 H 2.480919 -5.563559 -0.218254 0
M  V30 50 H 0.738660 -5.054588 0.020584 0
M  V30 51 H 2.030637 -6.843368 1.572491 0
M  V30 52 H 0.706966 -5.848217 2.168053 0
M  V30 END ATOM
M  V30 BEGIN BOND
M  V30 1 1 1 2
M  V30 2 1 2 3
M  V30 3 1 3 4
M  V30 4 1 4 5
M  V30 5 1 5 6
M  V30 6 1 6 7
M  V30 7 2 7 8
M  V30 8 1 8 9
M  V30 9 1 9 10
M  V30 10 1 10 11
M  V30 11 2 11 12
M  V30 12 1 12 13
M  V30 13 2 13 14
M  V30 14 1 14 15
M  V30 15 1 15 16
M  V30 16 2 15 17
M  V30 17 2 10 18
M  V30 18 1 18 19
M  V30 19 2 19 20
M  V30 20 1 20 21
M  V30 21 2 21 22
M  V30 22 1 22 23
M  V30 23 1 22 24
M  V30 24 2 24 25
M  V30 25 1 18 26
M  V30 26 2 26 27
M  V30 27 1 27 28
M  V30 28 1 5 29
M  V30 29 1 29 30
M  V30 30 1 30 2
M  V30 31 2 28 6
M  V30 32 1 27 9
M  V30 33 1 17 11
M  V30 34 1 25 19
M  V30 35 1 1 31
M  V30 36 1 1 32
M  V30 37 1 1 33
M  V30 38 1 3 34
M  V30 39 1 3 35
M  V30 40 1 4 36
M  V30 41 1 4 37
M  V30 42 1 7 38
M  V30 43 1 8 39
M  V30 44 1 12 40
M  V30 45 1 13 41
M  V30 46 1 16 42
M  V30 47 1 16 43
M  V30 48 1 20 44
M  V30 49 1 21 45
M  V30 50 1 24 46
M  V30 51 1 25 47
M  V30 52 1 28 48
M  V30 53 1 29 49
M  V30 54 1 29 50
M  V30 55 1 30 51
M  V30 56 1 30 52
M  V30 END BOND
M  V30 END CTAB
M  END
>  <Dataset>  (937) 
ChEMBL_Kinases

>  <Ligand_Instance>  (937) 
nan

>  <PDB_ID>  (937) 
nan

>  <Standardized_SMILES>  (937) 
CN1CCN(c2ccn3c(-c4ccnc(N)n4)c(-c4ccc(F)cc4)nc3c2)CC1

>  <Name>  (937) 
nan

>  <Pocket>  (937) 
nan

>  <ATP_Site>  (937) 
nan

>  <Peripheral>  (937) 
nan

>  <Num_H_Atoms_ProtBoundConf>  (937) 
nan

>  <Num_Resolved_Atoms>  (937) 
nan

>  <Num_Not_Resolved_Atoms>  (937) 
nan

$$$$
CHEMBL3823007
     RDKit          3D

  0  0  0  0  0  0  0  0  0  0999 V3000
M  V30 BEGIN CTAB
M  V30 COUNTS 50 54 0 0 0
M  V30 BEGIN ATOM
M  V30 1 C 2.006319 3.324588 2.930086 0
M  V30 2 C 1.740576 2.227159 1.954118 0
M  V30 3 N 2.656673 1.602249 1.202274 0
M  V30 4 N 2.108755 0.680870 0.442562 0
M  V30 5 C 2.777527 -0.198742 -0.501698 0
M  V30 6 C 4.281262 -0.044015 -0.304777 0
M  V30 7 C 4.689559 -0.885745 0.903517 0
M  V30 8 N 3.638072 -1.263746 1.737510 0
M  V30 9 C 2.592751 -2.040026 1.194740 0
M  V30 10 C 2.379538 -1.637413 -0.256779 0
M  V30 11 C 0.795311 0.726838 0.726798 0
M  V30 12 C 0.491850 1.681777 1.674262 0
M  V30 13 N -0.751663 2.032582 2.230225 0
M  V30 14 C -2.004289 1.441036 1.908136 0
M  V30 15 N -3.141493 1.834686 2.484137 0
M  V30 16 C -4.324854 1.277527 2.181444 0
M  V30 17 C -4.436936 0.263393 1.255763 0
M  V30 18 Cl -5.999065 -0.434771 0.890991 0
M  V30 19 C -3.262983 -0.145604 0.658701 0
M  V30 20 C -3.361110 -1.216813 -0.322709 0
M  V30 21 C -4.342845 -1.226908 -1.299203 0
M  V30 22 N -4.207159 -2.310570 -2.060233 0
M  V30 23 C -3.147010 -3.015024 -1.596452 0
M  V30 24 C -2.566409 -4.198138 -2.000826 0
M  V30 25 C -1.473113 -4.669575 -1.311925 0
M  V30 26 C -0.959540 -3.967438 -0.225660 0
M  V30 27 C -1.583012 -2.780072 0.139944 0
M  V30 28 N -2.646505 -2.341229 -0.546481 0
M  V30 29 N -2.109335 0.451741 1.004341 0
M  V30 30 H 2.318648 4.247664 2.429195 0
M  V30 31 H 1.178562 3.484089 3.618200 0
M  V30 32 H 2.896091 3.005615 3.546454 0
M  V30 33 H 2.461981 0.068635 -1.508744 0
M  V30 34 H 4.538823 1.024175 -0.165083 0
M  V30 35 H 4.818712 -0.385748 -1.213072 0
M  V30 36 H 5.204555 -1.800907 0.528430 0
M  V30 37 H 5.421072 -0.290472 1.483431 0
M  V30 38 H 3.709377 -1.146762 2.740648 0
M  V30 39 H 1.641943 -1.967392 1.732213 0
M  V30 40 H 2.903248 -3.109934 1.225244 0
M  V30 41 H 3.036702 -2.273738 -0.871952 0
M  V30 42 H 1.319106 -1.751629 -0.556089 0
M  V30 43 H 0.100218 0.062100 0.233780 0
M  V30 44 H -0.757012 2.802855 2.950292 0
M  V30 45 H -5.206379 1.652501 2.693095 0
M  V30 46 H -5.159422 -0.532410 -1.531001 0
M  V30 47 H -3.013929 -4.691606 -2.849639 0
M  V30 48 H -1.075507 -5.595356 -1.684269 0
M  V30 49 H -0.096905 -4.375637 0.287983 0
M  V30 50 H -1.179230 -2.236095 0.987344 0
M  V30 END ATOM
M  V30 BEGIN BOND
M  V30 1 1 1 2
M  V30 2 2 2 3
M  V30 3 1 3 4
M  V30 4 1 4 5
M  V30 5 1 5 6
M  V30 6 1 6 7
M  V30 7 1 7 8
M  V30 8 1 8 9
M  V30 9 1 9 10
M  V30 10 1 4 11
M  V30 11 2 11 12
M  V30 12 1 12 13
M  V30 13 1 13 14
M  V30 14 2 14 15
M  V30 15 1 15 16
M  V30 16 2 16 17
M  V30 17 1 17 18
M  V30 18 1 17 19
M  V30 19 1 19 20
M  V30 20 2 20 21
M  V30 21 1 21 22
M  V30 22 2 22 23
M  V30 23 1 23 24
M  V30 24 2 24 25
M  V30 25 1 25 26
M  V30 26 2 26 27
M  V30 27 1 27 28
M  V30 28 2 19 29
M  V30 29 1 12 2
M  V30 30 1 29 14
M  V30 31 1 10 5
M  V30 32 1 28 20
M  V30 33 1 28 23
M  V30 34 1 1 30
M  V30 35 1 1 31
M  V30 36 1 1 32
M  V30 37 1 5 33
M  V30 38 1 6 34
M  V30 39 1 6 35
M  V30 40 1 7 36
M  V30 41 1 7 37
M  V30 42 1 8 38
M  V30 43 1 9 39
M  V30 44 1 9 40
M  V30 45 1 10 41
M  V30 46 1 10 42
M  V30 47 1 11 43
M  V30 48 1 13 44
M  V30 49 1 16 45
M  V30 50 1 21 46
M  V30 51 1 24 47
M  V30 52 1 25 48
M  V30 53 1 26 49
M  V30 54 1 27 50
M  V30 END BOND
M  V30 END CTAB
M  END
>  <Dataset>  (938) 
ChEMBL_Kinases

>  <Ligand_Instance>  (938) 
nan

>  <PDB_ID>  (938) 
nan

>  <Standardized_SMILES>  (938) 
Cc1nn(C2CCNCC2)cc1Nc1ncc(Cl)c(-c2cnc3ccccn23)n1

>  <Name>  (938) 
nan

>  <Pocket>  (938) 
nan

>  <ATP_Site>  (938) 
nan

>  <Peripheral>  (938) 
nan

>  <Num_H_Atoms_ProtBoundConf>  (938) 
nan

>  <Num_Resolved_Atoms>  (938) 
nan

>  <Num_Not_Resolved_Atoms>  (938) 
nan

$$$$
CHEMBL3822989
     RDKit          3D

  0  0  0  0  0  0  0  0  0  0999 V3000
M  V30 BEGIN CTAB
M  V30 COUNTS 55 59 0 0 0
M  V30 BEGIN ATOM
M  V30 1 C -1.751488 -0.384777 4.829285 0
M  V30 2 C -0.465950 -1.050095 4.579922 0
M  V30 3 O -0.070739 -1.826996 5.479326 0
M  V30 4 N 0.433681 -0.977323 3.487325 0
M  V30 5 C 1.633672 -1.774875 3.554177 0
M  V30 6 C 2.822212 -0.891268 3.311491 0
M  V30 7 C 2.717059 -0.004690 2.119851 0
M  V30 8 N 2.711940 -0.759551 0.876010 0
M  V30 9 C 2.039155 -0.308076 -0.196477 0
M  V30 10 C 2.150688 -1.162135 -1.273167 0
M  V30 11 N 1.587912 -1.067623 -2.590066 0
M  V30 12 C 0.802439 0.099714 -2.815161 0
M  V30 13 N 1.129457 1.253851 -3.447205 0
M  V30 14 C 0.249495 2.269651 -3.543750 0
M  V30 15 C -0.978046 2.068357 -2.972334 0
M  V30 16 Cl -2.091278 3.401397 -3.116027 0
M  V30 17 C -1.372221 0.926851 -2.319138 0
M  V30 18 C -2.662669 0.691456 -1.699504 0
M  V30 19 C -3.816518 1.419690 -1.550631 0
M  V30 20 N -4.727124 0.690558 -0.864924 0
M  V30 21 N -4.191429 -0.481107 -0.570239 0
M  V30 22 C -4.799809 -1.470955 0.106395 0
M  V30 23 C -4.126931 -2.646986 0.346602 0
M  V30 24 C -2.823287 -2.736007 -0.141731 0
M  V30 25 C -2.282134 -1.668259 -0.825134 0
M  V30 26 C -2.943575 -0.499657 -1.066165 0
M  V30 27 N -0.428670 -0.001162 -2.286670 0
M  V30 28 C 2.957783 -2.194475 -0.777913 0
M  V30 29 C 3.402308 -3.401763 -1.527074 0
M  V30 30 N 3.253541 -1.892712 0.499656 0
M  V30 31 C 1.438817 0.803566 2.277855 0
M  V30 32 C 0.249084 -0.157063 2.284542 0
M  V30 33 H -2.574415 -1.136188 4.875723 0
M  V30 34 H -1.949472 0.314617 3.991437 0
M  V30 35 H -1.755825 0.227672 5.752184 0
M  V30 36 H 1.771174 -2.206516 4.589232 0
M  V30 37 H 1.605419 -2.642783 2.867961 0
M  V30 38 H 3.781062 -1.452282 3.344129 0
M  V30 39 H 2.866221 -0.204754 4.207081 0
M  V30 40 H 3.557479 0.686087 2.093017 0
M  V30 41 H 1.451738 0.616548 -0.278386 0
M  V30 42 H 1.798659 -1.845095 -3.252196 0
M  V30 43 H 0.532200 3.175872 -4.051822 0
M  V30 44 H -3.967507 2.404015 -1.917427 0
M  V30 45 H -5.796847 -1.404464 0.480729 0
M  V30 46 H -4.554577 -3.483394 0.883553 0
M  V30 47 H -2.301100 -3.673822 0.055898 0
M  V30 48 H -1.288428 -1.854401 -1.145089 0
M  V30 49 H 4.478682 -3.421406 -1.705377 0
M  V30 50 H 2.845930 -3.429130 -2.486769 0
M  V30 51 H 3.084414 -4.306091 -0.967384 0
M  V30 52 H 1.302842 1.574785 1.506447 0
M  V30 53 H 1.472187 1.216344 3.321186 0
M  V30 54 H 0.208235 -0.792910 1.381577 0
M  V30 55 H -0.670366 0.428826 2.392419 0
M  V30 END ATOM
M  V30 BEGIN BOND
M  V30 1 1 1 2
M  V30 2 2 2 3
M  V30 3 1 2 4
M  V30 4 1 4 5
M  V30 5 1 5 6
M  V30 6 1 6 7
M  V30 7 1 7 8
M  V30 8 1 8 9
M  V30 9 2 9 10
M  V30 10 1 10 11
M  V30 11 1 11 12
M  V30 12 2 12 13
M  V30 13 1 13 14
M  V30 14 2 14 15
M  V30 15 1 15 16
M  V30 16 1 15 17
M  V30 17 1 17 18
M  V30 18 1 18 19
M  V30 19 2 19 20
M  V30 20 1 20 21
M  V30 21 1 21 22
M  V30 22 2 22 23
M  V30 23 1 23 24
M  V30 24 2 24 25
M  V30 25 1 25 26
M  V30 26 2 17 27
M  V30 27 1 10 28
M  V30 28 1 28 29
M  V30 29 2 28 30
M  V30 30 1 7 31
M  V30 31 1 31 32
M  V30 32 1 32 4
M  V30 33 1 30 8
M  V30 34 1 27 12
M  V30 35 2 26 18
M  V30 36 1 26 21
M  V30 37 1 1 33
M  V30 38 1 1 34
M  V30 39 1 1 35
M  V30 40 1 5 36
M  V30 41 1 5 37
M  V30 42 1 6 38
M  V30 43 1 6 39
M  V30 44 1 7 40
M  V30 45 1 9 41
M  V30 46 1 11 42
M  V30 47 1 14 43
M  V30 48 1 19 44
M  V30 49 1 22 45
M  V30 50 1 23 46
M  V30 51 1 24 47
M  V30 52 1 25 48
M  V30 53 1 29 49
M  V30 54 1 29 50
M  V30 55 1 29 51
M  V30 56 1 31 52
M  V30 57 1 31 53
M  V30 58 1 32 54
M  V30 59 1 32 55
M  V30 END BOND
M  V30 END CTAB
M  END
>  <Dataset>  (939) 
ChEMBL_Kinases

>  <Ligand_Instance>  (939) 
nan

>  <PDB_ID>  (939) 
nan

>  <Standardized_SMILES>  (939) 
CC(=O)N1CCC(n2cc(Nc3ncc(Cl)c(-c4cnn5ccccc45)n3)c(C)n2)CC1

>  <Name>  (939) 
nan

>  <Pocket>  (939) 
nan

>  <ATP_Site>  (939) 
nan

>  <Peripheral>  (939) 
nan

>  <Num_H_Atoms_ProtBoundConf>  (939) 
nan

>  <Num_Resolved_Atoms>  (939) 
nan

>  <Num_Not_Resolved_Atoms>  (939) 
nan

$$$$
CHEMBL382249
     RDKit          3D

  0  0  0  0  0  0  0  0  0  0999 V3000
M  V30 BEGIN CTAB
M  V30 COUNTS 41 44 0 0 0
M  V30 BEGIN ATOM
M  V30 1 F 2.683220 -3.795503 5.938754 0
M  V30 2 C 2.372213 -3.069638 4.859625 0
M  V30 3 C 1.609031 -3.699845 3.891131 0
M  V30 4 C 1.261211 -2.995533 2.760070 0
M  V30 5 C 1.610266 -1.689266 2.495043 0
M  V30 6 C 1.252137 -0.927908 1.317459 0
M  V30 7 N 2.016858 -0.464917 0.303297 0
M  V30 8 C 1.293129 0.197542 -0.605454 0
M  V30 9 C 1.773169 0.850213 -1.863411 0
M  V30 10 C 1.243652 0.052603 -3.048291 0
M  V30 11 C -0.014830 0.770530 -3.468421 0
M  V30 12 C 0.086009 2.137787 -2.874959 0
M  V30 13 N 1.211447 2.148728 -2.006435 0
M  V30 14 C -0.006454 0.157661 -0.149956 0
M  V30 15 C -0.062609 -0.544967 1.059994 0
M  V30 16 C -1.327868 -0.736210 1.758553 0
M  V30 17 C -2.052272 -1.880245 2.034099 0
M  V30 18 C -3.238895 -1.786619 2.728193 0
M  V30 19 N -3.714496 -0.608206 3.146569 0
M  V30 20 C -3.043994 0.530391 2.900867 0
M  V30 21 C -1.837098 0.489989 2.201799 0
M  V30 22 C 2.379404 -1.080388 3.488728 0
M  V30 23 C 2.754975 -1.754163 4.649945 0
M  V30 24 H 1.285133 -4.723548 4.005375 0
M  V30 25 H 0.668392 -3.505607 2.014308 0
M  V30 26 H 3.064736 -0.625026 0.262296 0
M  V30 27 H 2.872050 0.824537 -1.925127 0
M  V30 28 H 1.979473 -0.038144 -3.858820 0
M  V30 29 H 0.951193 -0.967649 -2.678829 0
M  V30 30 H -0.064863 0.888085 -4.573519 0
M  V30 31 H -0.921238 0.210984 -3.156132 0
M  V30 32 H -0.879639 2.351058 -2.350422 0
M  V30 33 H 0.157673 2.937693 -3.644246 0
M  V30 34 H 1.084091 2.590792 -1.087284 0
M  V30 35 H -0.810094 0.613836 -0.685454 0
M  V30 36 H -1.565380 -2.759214 1.642398 0
M  V30 37 H -3.698300 -2.775387 2.870686 0
M  V30 38 H -3.493157 1.450306 3.271677 0
M  V30 39 H -1.409928 1.475413 2.077204 0
M  V30 40 H 2.733836 -0.053605 3.428943 0
M  V30 41 H 3.350654 -1.292610 5.424826 0
M  V30 END ATOM
M  V30 BEGIN BOND
M  V30 1 1 1 2
M  V30 2 2 2 3
M  V30 3 1 3 4
M  V30 4 2 4 5
M  V30 5 1 5 6
M  V30 6 1 6 7
M  V30 7 1 7 8
M  V30 8 1 8 9
M  V30 9 1 9 10
M  V30 10 1 10 11
M  V30 11 1 11 12
M  V30 12 1 12 13
M  V30 13 2 8 14
M  V30 14 1 14 15
M  V30 15 1 15 16
M  V30 16 2 16 17
M  V30 17 1 17 18
M  V30 18 2 18 19
M  V30 19 1 19 20
M  V30 20 2 20 21
M  V30 21 1 5 22
M  V30 22 2 22 23
M  V30 23 1 23 2
M  V30 24 2 15 6
M  V30 25 1 21 16
M  V30 26 1 13 9
M  V30 27 1 3 24
M  V30 28 1 4 25
M  V30 29 1 7 26
M  V30 30 1 9 27
M  V30 31 1 10 28
M  V30 32 1 10 29
M  V30 33 1 11 30
M  V30 34 1 11 31
M  V30 35 1 12 32
M  V30 36 1 12 33
M  V30 37 1 13 34
M  V30 38 1 14 35
M  V30 39 1 17 36
M  V30 40 1 18 37
M  V30 41 1 20 38
M  V30 42 1 21 39
M  V30 43 1 22 40
M  V30 44 1 23 41
M  V30 END BOND
M  V30 END CTAB
M  END
>  <Dataset>  (940) 
ChEMBL_Kinases

>  <Ligand_Instance>  (940) 
nan

>  <PDB_ID>  (940) 
nan

>  <Standardized_SMILES>  (940) 
Fc1ccc(-c2[nH]c(C3CCCN3)cc2-c2ccncc2)cc1

>  <Name>  (940) 
nan

>  <Pocket>  (940) 
nan

>  <ATP_Site>  (940) 
nan

>  <Peripheral>  (940) 
nan

>  <Num_H_Atoms_ProtBoundConf>  (940) 
nan

>  <Num_Resolved_Atoms>  (940) 
nan

>  <Num_Not_Resolved_Atoms>  (940) 
nan

$$$$
CHEMBL3822974
     RDKit          3D

  0  0  0  0  0  0  0  0  0  0999 V3000
M  V30 BEGIN CTAB
M  V30 COUNTS 51 54 0 0 0
M  V30 BEGIN ATOM
M  V30 1 O 0.151041 -4.953232 2.103692 0
M  V30 2 C 0.182926 -3.789229 1.606924 0
M  V30 3 C 1.157494 -2.951282 2.339673 0
M  V30 4 N 1.258490 -1.613755 1.838561 0
M  V30 5 C 2.198152 -0.868804 2.576427 0
M  V30 6 O 2.702119 -1.607841 3.494830 0
M  V30 7 C 2.599914 0.509496 2.405700 0
M  V30 8 C 3.568738 0.983420 3.298503 0
M  V30 9 C 4.016220 2.285123 3.215713 0
M  V30 10 C 3.568418 3.185453 2.291407 0
M  V30 11 N 2.628197 2.688500 1.442020 0
M  V30 12 C 2.090374 3.576566 0.422632 0
M  V30 13 C 0.889223 4.322359 0.888466 0
M  V30 14 C 1.158626 5.542621 1.489938 0
M  V30 15 C 0.157736 6.355892 1.976257 0
M  V30 16 C -1.176016 5.990117 1.886520 0
M  V30 17 F -2.248122 6.691805 2.321830 0
M  V30 18 C -1.425012 4.775765 1.286696 0
M  V30 19 F -2.669099 4.265563 1.117322 0
M  V30 20 C -0.441052 3.946190 0.793368 0
M  V30 21 C 2.177961 1.421415 1.505587 0
M  V30 22 O 1.323605 1.061296 0.692096 0
M  V30 23 N -0.607661 -3.371022 0.509424 0
M  V30 24 C -1.552350 -4.147724 -0.218287 0
M  V30 25 C -2.883986 -4.205982 0.153174 0
M  V30 26 C -3.845910 -4.954435 -0.534850 0
M  V30 27 C -3.431044 -5.680178 -1.657878 0
M  V30 28 C -2.103193 -5.618754 -2.023531 0
M  V30 29 C -1.151408 -4.872789 -1.334934 0
M  V30 30 C -1.848503 -6.452242 -3.238580 0
M  V30 31 C -3.176447 -7.009939 -3.547095 0
M  V30 32 O -3.612153 -7.776503 -4.439848 0
M  V30 33 N -4.115488 -6.529373 -2.577957 0
M  V30 34 H 2.165451 -3.432275 2.166208 0
M  V30 35 H 1.001392 -3.012585 3.434230 0
M  V30 36 H 0.776216 -1.121057 1.055632 0
M  V30 37 H 4.007152 0.372986 4.078860 0
M  V30 38 H 4.771414 2.640494 3.917117 0
M  V30 39 H 3.870878 4.204785 2.171692 0
M  V30 40 H 2.854852 4.287082 0.058137 0
M  V30 41 H 1.753121 2.958876 -0.451516 0
M  V30 42 H 2.158611 5.966501 1.633339 0
M  V30 43 H 0.336359 7.322068 2.454894 0
M  V30 44 H -0.597727 2.991834 0.319435 0
M  V30 45 H -0.513187 -2.390793 0.169198 0
M  V30 46 H -3.196096 -3.636930 1.027659 0
M  V30 47 H -4.872749 -4.989224 -0.234428 0
M  V30 48 H -0.110303 -4.818576 -1.613507 0
M  V30 49 H -1.065626 -7.213617 -3.051239 0
M  V30 50 H -1.480752 -5.756317 -4.038199 0
M  V30 51 H -5.153097 -6.698453 -2.456652 0
M  V30 END ATOM
M  V30 BEGIN BOND
M  V30 1 2 1 2
M  V30 2 1 2 3
M  V30 3 1 3 4
M  V30 4 1 4 5
M  V30 5 2 5 6
M  V30 6 1 5 7
M  V30 7 2 7 8
M  V30 8 1 8 9
M  V30 9 2 9 10
M  V30 10 1 10 11
M  V30 11 1 11 12
M  V30 12 1 12 13
M  V30 13 2 13 14
M  V30 14 1 14 15
M  V30 15 2 15 16
M  V30 16 1 16 17
M  V30 17 1 16 18
M  V30 18 1 18 19
M  V30 19 2 18 20
M  V30 20 1 11 21
M  V30 21 2 21 22
M  V30 22 1 2 23
M  V30 23 1 23 24
M  V30 24 2 24 25
M  V30 25 1 25 26
M  V30 26 2 26 27
M  V30 27 1 27 28
M  V30 28 2 28 29
M  V30 29 1 28 30
M  V30 30 1 30 31
M  V30 31 2 31 32
M  V30 32 1 31 33
M  V30 33 1 21 7
M  V30 34 1 29 24
M  V30 35 1 20 13
M  V30 36 1 33 27
M  V30 37 1 3 34
M  V30 38 1 3 35
M  V30 39 1 4 36
M  V30 40 1 8 37
M  V30 41 1 9 38
M  V30 42 1 10 39
M  V30 43 1 12 40
M  V30 44 1 12 41
M  V30 45 1 14 42
M  V30 46 1 15 43
M  V30 47 1 20 44
M  V30 48 1 23 45
M  V30 49 1 25 46
M  V30 50 1 26 47
M  V30 51 1 29 48
M  V30 52 1 30 49
M  V30 53 1 30 50
M  V30 54 1 33 51
M  V30 END BOND
M  V30 END CTAB
M  END
>  <Dataset>  (941) 
ChEMBL_Kinases

>  <Ligand_Instance>  (941) 
nan

>  <PDB_ID>  (941) 
nan

>  <Standardized_SMILES>  (941) 
O=C(CNC(=O)c1cccn(Cc2ccc(F)c(F)c2)c1=O)Nc1ccc2c(c1)CC(=O)N2

>  <Name>  (941) 
nan

>  <Pocket>  (941) 
nan

>  <ATP_Site>  (941) 
nan

>  <Peripheral>  (941) 
nan

>  <Num_H_Atoms_ProtBoundConf>  (941) 
nan

>  <Num_Resolved_Atoms>  (941) 
nan

>  <Num_Not_Resolved_Atoms>  (941) 
nan

$$$$
CHEMBL3822962
     RDKit          3D

  0  0  0  0  0  0  0  0  0  0999 V3000
M  V30 BEGIN CTAB
M  V30 COUNTS 58 62 0 0 0
M  V30 BEGIN ATOM
M  V30 1 C 3.073936 -3.617435 2.270227 0
M  V30 2 C 2.159569 -3.538789 1.027428 0
M  V30 3 C 1.080001 -2.584284 1.255349 0
M  V30 4 C 1.337784 -1.243628 1.167539 0
M  V30 5 N 2.447257 -0.410932 0.874548 0
M  V30 6 C 2.611340 0.982704 0.730911 0
M  V30 7 N 3.934996 1.355477 0.635660 0
M  V30 8 C 4.234852 2.646711 0.486791 0
M  V30 9 C 3.243275 3.580519 0.430272 0
M  V30 10 Cl 3.862557 5.187634 0.209204 0
M  V30 11 C 1.905512 3.232604 0.523154 0
M  V30 12 C 0.864690 4.233328 0.420982 0
M  V30 13 C 1.012246 5.593896 0.495141 0
M  V30 14 N -0.182130 6.202689 0.425651 0
M  V30 15 N -1.144915 5.285272 0.305271 0
M  V30 16 C -2.471373 5.476620 0.199818 0
M  V30 17 C -3.223121 4.330763 0.077075 0
M  V30 18 C -2.681334 3.072103 0.060360 0
M  V30 19 C -1.306273 3.009069 0.176918 0
M  V30 20 C -0.498802 4.104880 0.303288 0
M  V30 21 N 1.676444 1.920061 0.671038 0
M  V30 22 C 0.143350 -0.629077 1.470985 0
M  V30 23 N -0.728291 -1.612499 1.711541 0
M  V30 24 N -0.188236 -2.815986 1.588044 0
M  V30 25 C -0.997854 -3.935046 1.822968 0
M  V30 26 C -0.695408 -5.250772 1.236270 0
M  V30 27 C -0.729130 -5.287109 -0.268586 0
M  V30 28 N -1.624384 -4.268081 -0.796157 0
M  V30 29 C -1.712792 -4.418402 -2.209074 0
M  V30 30 C -2.568455 -3.499281 -3.015627 0
M  V30 31 O -1.003051 -5.382838 -2.636513 0
M  V30 32 C -2.351121 -3.227601 -0.095266 0
M  V30 33 C -2.431275 -3.618213 1.355083 0
M  V30 34 H 2.432048 -3.669954 3.180112 0
M  V30 35 H 3.772473 -2.787301 2.307014 0
M  V30 36 H 3.660692 -4.553421 2.189999 0
M  V30 37 H 1.876977 -4.585149 0.852091 0
M  V30 38 H 2.854753 -3.155330 0.240786 0
M  V30 39 H 3.251318 -1.070657 0.749425 0
M  V30 40 H 5.315864 2.862262 0.418407 0
M  V30 41 H 1.822579 6.255011 0.599201 0
M  V30 42 H -2.891793 6.489189 0.213824 0
M  V30 43 H -4.309247 4.500574 -0.007075 0
M  V30 44 H -3.289550 2.206458 -0.036624 0
M  V30 45 H -0.869292 2.031329 0.149417 0
M  V30 46 H -0.130413 0.394329 1.540584 0
M  V30 47 H -1.150502 -4.111147 2.939426 0
M  V30 48 H -1.606942 -5.893989 1.532906 0
M  V30 49 H 0.127752 -5.838398 1.601351 0
M  V30 50 H -1.147697 -6.267815 -0.584880 0
M  V30 51 H 0.266519 -5.236389 -0.734164 0
M  V30 52 H -2.224108 -2.445737 -2.932386 0
M  V30 53 H -3.627102 -3.535220 -2.729171 0
M  V30 54 H -2.430086 -3.802149 -4.081555 0
M  V30 55 H -3.373153 -3.094838 -0.537336 0
M  V30 56 H -1.744253 -2.303978 -0.265544 0
M  V30 57 H -2.839171 -2.768486 1.954591 0
M  V30 58 H -3.052921 -4.531408 1.416570 0
M  V30 END ATOM
M  V30 BEGIN BOND
M  V30 1 1 1 2
M  V30 2 1 2 3
M  V30 3 2 3 4
M  V30 4 1 4 5
M  V30 5 1 5 6
M  V30 6 2 6 7
M  V30 7 1 7 8
M  V30 8 2 8 9
M  V30 9 1 9 10
M  V30 10 1 9 11
M  V30 11 1 11 12
M  V30 12 1 12 13
M  V30 13 2 13 14
M  V30 14 1 14 15
M  V30 15 1 15 16
M  V30 16 2 16 17
M  V30 17 1 17 18
M  V30 18 2 18 19
M  V30 19 1 19 20
M  V30 20 2 11 21
M  V30 21 1 4 22
M  V30 22 2 22 23
M  V30 23 1 23 24
M  V30 24 1 24 25
M  V30 25 1 25 26
M  V30 26 1 26 27
M  V30 27 1 27 28
M  V30 28 1 28 29
M  V30 29 1 29 30
M  V30 30 2 29 31
M  V30 31 1 28 32
M  V30 32 1 32 33
M  V30 33 1 24 3
M  V30 34 1 33 25
M  V30 35 1 21 6
M  V30 36 2 20 12
M  V30 37 1 20 15
M  V30 38 1 1 34
M  V30 39 1 1 35
M  V30 40 1 1 36
M  V30 41 1 2 37
M  V30 42 1 2 38
M  V30 43 1 5 39
M  V30 44 1 8 40
M  V30 45 1 13 41
M  V30 46 1 16 42
M  V30 47 1 17 43
M  V30 48 1 18 44
M  V30 49 1 19 45
M  V30 50 1 22 46
M  V30 51 1 25 47
M  V30 52 1 26 48
M  V30 53 1 26 49
M  V30 54 1 27 50
M  V30 55 1 27 51
M  V30 56 1 30 52
M  V30 57 1 30 53
M  V30 58 1 30 54
M  V30 59 1 32 55
M  V30 60 1 32 56
M  V30 61 1 33 57
M  V30 62 1 33 58
M  V30 END BOND
M  V30 END CTAB
M  END
>  <Dataset>  (942) 
ChEMBL_Kinases

>  <Ligand_Instance>  (942) 
nan

>  <PDB_ID>  (942) 
nan

>  <Standardized_SMILES>  (942) 
CCc1c(Nc2ncc(Cl)c(-c3cnn4ccccc34)n2)cnn1C1CCN(C(C)=O)CC1

>  <Name>  (942) 
nan

>  <Pocket>  (942) 
nan

>  <ATP_Site>  (942) 
nan

>  <Peripheral>  (942) 
nan

>  <Num_H_Atoms_ProtBoundConf>  (942) 
nan

>  <Num_Resolved_Atoms>  (942) 
nan

>  <Num_Not_Resolved_Atoms>  (942) 
nan

$$$$
CHEMBL3822943
     RDKit          3D

  0  0  0  0  0  0  0  0  0  0999 V3000
M  V30 BEGIN CTAB
M  V30 COUNTS 59 63 0 0 0
M  V30 BEGIN ATOM
M  V30 1 C 3.277739 -1.432820 5.038899 0
M  V30 2 C 1.958223 -0.730033 5.177022 0
M  V30 3 O 1.111733 -0.783236 4.079976 0
M  V30 4 C 1.358193 -0.326879 2.801976 0
M  V30 5 N 2.319453 0.264740 2.087340 0
M  V30 6 N 1.952109 0.462599 0.832005 0
M  V30 7 C 2.938918 1.117220 -0.000804 0
M  V30 8 C 3.134554 2.499148 0.623397 0
M  V30 9 C 1.729732 3.019199 0.857433 0
M  V30 10 N 0.950647 2.908949 -0.346390 0
M  V30 11 C -0.451758 3.132224 -0.328499 0
M  V30 12 C -1.287896 3.464356 0.824498 0
M  V30 13 O -1.071935 3.034499 -1.436692 0
M  V30 14 C 1.633839 2.552713 -1.568558 0
M  V30 15 C 2.422161 1.272299 -1.419466 0
M  V30 16 C 0.711416 -0.007472 0.689554 0
M  V30 17 C 0.287694 -0.519988 1.918938 0
M  V30 18 N -1.038380 -1.068380 2.068123 0
M  V30 19 C -1.932238 -1.154585 0.936724 0
M  V30 20 N -2.504970 -0.031234 0.422165 0
M  V30 21 C -3.343760 -0.061461 -0.626870 0
M  V30 22 C -3.638330 -1.284997 -1.207940 0
M  V30 23 Cl -4.701817 -1.487142 -2.583981 0
M  V30 24 C -3.061504 -2.435043 -0.691892 0
M  V30 25 C -3.299824 -3.801107 -1.210286 0
M  V30 26 C -4.428285 -4.465235 -1.681538 0
M  V30 27 N -4.030667 -5.720884 -2.009739 0
M  V30 28 N -2.733468 -5.872680 -1.771950 0
M  V30 29 C -1.932061 -6.937056 -1.948224 0
M  V30 30 C -0.573543 -6.858254 -1.623500 0
M  V30 31 C -0.016284 -5.689953 -1.114394 0
M  V30 32 C -0.911754 -4.655400 -0.967312 0
M  V30 33 C -2.253334 -4.694941 -1.275751 0
M  V30 34 N -2.212519 -2.363481 0.375995 0
M  V30 35 H 4.065818 -0.788882 5.539510 0
M  V30 36 H 3.566817 -1.657872 3.989515 0
M  V30 37 H 3.297906 -2.402598 5.588629 0
M  V30 38 H 2.166646 0.359550 5.374111 0
M  V30 39 H 1.438051 -1.170537 6.079523 0
M  V30 40 H 3.903949 0.584942 0.024374 0
M  V30 41 H 3.586520 2.332777 1.610337 0
M  V30 42 H 3.658289 3.195310 -0.032113 0
M  V30 43 H 1.218768 2.347964 1.611034 0
M  V30 44 H 1.716993 4.025833 1.318039 0
M  V30 45 H -0.944666 2.966157 1.766360 0
M  V30 46 H -2.344085 3.126352 0.680466 0
M  V30 47 H -1.335221 4.549421 1.036133 0
M  V30 48 H 2.248869 3.407163 -1.870776 0
M  V30 49 H 0.873702 2.390016 -2.352695 0
M  V30 50 H 3.294525 1.338784 -2.097237 0
M  V30 51 H 1.843367 0.370633 -1.665595 0
M  V30 52 H 0.240950 0.058465 -0.273866 0
M  V30 53 H -1.351507 -1.411711 3.027261 0
M  V30 54 H -3.793036 0.812720 -1.034502 0
M  V30 55 H -5.350267 -3.902993 -1.700801 0
M  V30 56 H -2.323560 -7.872238 -2.347096 0
M  V30 57 H 0.102181 -7.713071 -1.758860 0
M  V30 58 H 1.024586 -5.572146 -0.849530 0
M  V30 59 H -0.498815 -3.734661 -0.572931 0
M  V30 END ATOM
M  V30 BEGIN BOND
M  V30 1 1 1 2
M  V30 2 1 2 3
M  V30 3 1 3 4
M  V30 4 2 4 5
M  V30 5 1 5 6
M  V30 6 1 6 7
M  V30 7 1 7 8
M  V30 8 1 8 9
M  V30 9 1 9 10
M  V30 10 1 10 11
M  V30 11 1 11 12
M  V30 12 2 11 13
M  V30 13 1 10 14
M  V30 14 1 14 15
M  V30 15 1 6 16
M  V30 16 2 16 17
M  V30 17 1 17 18
M  V30 18 1 18 19
M  V30 19 2 19 20
M  V30 20 1 20 21
M  V30 21 2 21 22
M  V30 22 1 22 23
M  V30 23 1 22 24
M  V30 24 1 24 25
M  V30 25 1 25 26
M  V30 26 2 26 27
M  V30 27 1 27 28
M  V30 28 1 28 29
M  V30 29 2 29 30
M  V30 30 1 30 31
M  V30 31 2 31 32
M  V30 32 1 32 33
M  V30 33 2 24 34
M  V30 34 1 17 4
M  V30 35 1 34 19
M  V30 36 1 15 7
M  V30 37 2 33 25
M  V30 38 1 33 28
M  V30 39 1 1 35
M  V30 40 1 1 36
M  V30 41 1 1 37
M  V30 42 1 2 38
M  V30 43 1 2 39
M  V30 44 1 7 40
M  V30 45 1 8 41
M  V30 46 1 8 42
M  V30 47 1 9 43
M  V30 48 1 9 44
M  V30 49 1 12 45
M  V30 50 1 12 46
M  V30 51 1 12 47
M  V30 52 1 14 48
M  V30 53 1 14 49
M  V30 54 1 15 50
M  V30 55 1 15 51
M  V30 56 1 16 52
M  V30 57 1 18 53
M  V30 58 1 21 54
M  V30 59 1 26 55
M  V30 60 1 29 56
M  V30 61 1 30 57
M  V30 62 1 31 58
M  V30 63 1 32 59
M  V30 END BOND
M  V30 END CTAB
M  END
>  <Dataset>  (943) 
ChEMBL_Kinases

>  <Ligand_Instance>  (943) 
nan

>  <PDB_ID>  (943) 
nan

>  <Standardized_SMILES>  (943) 
CCOc1nn(C2CCN(C(C)=O)CC2)cc1Nc1ncc(Cl)c(-c2cnn3ccccc23)n1

>  <Name>  (943) 
nan

>  <Pocket>  (943) 
nan

>  <ATP_Site>  (943) 
nan

>  <Peripheral>  (943) 
nan

>  <Num_H_Atoms_ProtBoundConf>  (943) 
nan

>  <Num_Resolved_Atoms>  (943) 
nan

>  <Num_Not_Resolved_Atoms>  (943) 
nan

$$$$
CHEMBL3822938
     RDKit          3D

  0  0  0  0  0  0  0  0  0  0999 V3000
M  V30 BEGIN CTAB
M  V30 COUNTS 36 38 0 0 0
M  V30 BEGIN ATOM
M  V30 1 C -0.324572 -4.148796 -0.254224 0
M  V30 2 C 0.771763 -3.377822 0.386365 0
M  V30 3 C 1.676830 -4.008700 1.216302 0
M  V30 4 C 2.718602 -3.361089 1.845226 0
M  V30 5 C 2.860259 -2.009588 1.630569 0
M  V30 6 O 3.885425 -1.286676 2.229119 0
M  V30 7 C 1.942690 -1.405729 0.797638 0
M  V30 8 C 0.913868 -2.040184 0.175347 0
M  V30 9 N -0.037949 -1.430110 -0.684596 0
M  V30 10 C -0.250232 -0.102149 -1.135967 0
M  V30 11 C -0.162800 0.228919 -2.494824 0
M  V30 12 C -0.351593 1.478345 -3.045687 0
M  V30 13 N -0.647553 2.456810 -2.171680 0
M  V30 14 C -0.758171 2.258407 -0.848507 0
M  V30 15 C -1.070942 3.289363 0.019987 0
M  V30 16 C -1.186020 3.050984 1.387522 0
M  V30 17 C -0.990181 1.775644 1.910928 0
M  V30 18 C -1.109818 1.497313 3.381683 0
M  V30 19 F 0.116514 1.194837 3.924908 0
M  V30 20 F -1.886852 0.341267 3.517956 0
M  V30 21 F -1.755099 2.533264 4.002598 0
M  V30 22 C -0.680562 0.782039 1.007304 0
M  V30 23 C -0.559351 0.988150 -0.350779 0
M  V30 24 H -0.442217 -5.087438 0.325192 0
M  V30 25 H -1.302741 -3.609180 -0.089438 0
M  V30 26 H -0.142139 -4.424405 -1.296765 0
M  V30 27 H 1.563425 -5.089857 1.387843 0
M  V30 28 H 3.420987 -3.878956 2.495961 0
M  V30 29 H 4.134003 -1.452709 3.215027 0
M  V30 30 H 2.038129 -0.324136 0.612405 0
M  V30 31 H -0.790514 -1.942284 -1.145754 0
M  V30 32 H 0.080869 -0.594334 -3.184314 0
M  V30 33 H -0.253795 1.596644 -4.116422 0
M  V30 34 H -1.231689 4.299114 -0.347646 0
M  V30 35 H -1.429416 3.868702 2.038795 0
M  V30 36 H -0.545491 -0.192533 1.452910 0
M  V30 END ATOM
M  V30 BEGIN BOND
M  V30 1 1 1 2
M  V30 2 2 2 3
M  V30 3 1 3 4
M  V30 4 2 4 5
M  V30 5 1 5 6
M  V30 6 1 5 7
M  V30 7 2 7 8
M  V30 8 1 8 9
M  V30 9 1 9 10
M  V30 10 2 10 11
M  V30 11 1 11 12
M  V30 12 2 12 13
M  V30 13 1 13 14
M  V30 14 2 14 15
M  V30 15 1 15 16
M  V30 16 2 16 17
M  V30 17 1 17 18
M  V30 18 1 18 19
M  V30 19 1 18 20
M  V30 20 1 18 21
M  V30 21 1 17 22
M  V30 22 2 22 23
M  V30 23 1 8 2
M  V30 24 1 23 10
M  V30 25 1 23 14
M  V30 26 1 1 24
M  V30 27 1 1 25
M  V30 28 1 1 26
M  V30 29 1 3 27
M  V30 30 1 4 28
M  V30 31 1 6 29
M  V30 32 1 7 30
M  V30 33 1 9 31
M  V30 34 1 11 32
M  V30 35 1 12 33
M  V30 36 1 15 34
M  V30 37 1 16 35
M  V30 38 1 22 36
M  V30 END BOND
M  V30 END CTAB
M  END
>  <Dataset>  (944) 
ChEMBL_Kinases

>  <Ligand_Instance>  (944) 
nan

>  <PDB_ID>  (944) 
nan

>  <Standardized_SMILES>  (944) 
Cc1ccc(O)cc1Nc1ccnc2ccc(C(F)(F)F)cc12

>  <Name>  (944) 
nan

>  <Pocket>  (944) 
nan

>  <ATP_Site>  (944) 
nan

>  <Peripheral>  (944) 
nan

>  <Num_H_Atoms_ProtBoundConf>  (944) 
nan

>  <Num_Resolved_Atoms>  (944) 
nan

>  <Num_Not_Resolved_Atoms>  (944) 
nan

$$$$
CHEMBL3822902
     RDKit          3D

  0  0  0  0  0  0  0  0  0  0999 V3000
M  V30 BEGIN CTAB
M  V30 COUNTS 66 65 0 0 0
M  V30 BEGIN ATOM
M  V30 1 C 3.409841 -5.656792 2.618482 0
M  V30 2 C 3.062093 -4.270394 2.144724 0
M  V30 3 C 3.445665 -3.250309 3.191481 0
M  V30 4 C 3.099156 -1.829490 2.735497 0
M  V30 5 C 3.507774 -0.866711 3.831710 0
M  V30 6 C 3.208310 0.556648 3.488934 0
M  V30 7 C 3.913653 1.045629 2.239271 0
M  V30 8 C 3.493898 2.481871 2.053391 0
M  V30 9 O 2.114960 2.650853 1.905940 0
M  V30 10 C 1.413796 2.109883 0.855454 0
M  V30 11 O 2.188330 1.481273 0.091769 0
M  V30 12 C -0.016194 2.473400 1.016059 0
M  V30 13 C -0.788111 1.913323 -0.162256 0 CFG=1
M  V30 14 O -2.171646 2.216010 -0.038599 0
M  V30 15 C -3.144596 1.290551 0.159324 0
M  V30 16 O -3.080311 0.073807 0.271009 0
M  V30 17 C -4.514143 0.852478 0.354500 0
M  V30 18 C -4.777005 -0.573992 0.073893 0
M  V30 19 C -4.677192 -1.101328 -1.290393 0
M  V30 20 C -3.504017 -1.192816 -2.132660 0
M  V30 21 C -2.356396 -2.056439 -1.799035 0
M  V30 22 C -2.702122 -3.522881 -1.676040 0
M  V30 23 C -3.272491 -4.107190 -2.947492 0
M  V30 24 C -0.252021 2.437189 -1.453064 0 CFG=1
M  V30 25 C -1.042275 1.820763 -2.612669 0
M  V30 26 O -0.382028 3.833378 -1.535759 0
M  V30 27 H 3.418996 -6.315066 1.719691 0
M  V30 28 H 4.432948 -5.711799 3.044999 0
M  V30 29 H 2.678481 -6.086147 3.315327 0
M  V30 30 H 3.601816 -4.089274 1.189630 0
M  V30 31 H 1.957411 -4.233015 2.029981 0
M  V30 32 H 4.531630 -3.297064 3.426030 0
M  V30 33 H 2.882448 -3.474148 4.110734 0
M  V30 34 H 2.037992 -1.762105 2.486921 0
M  V30 35 H 3.731840 -1.607871 1.853816 0
M  V30 36 H 4.564236 -0.951876 4.089829 0
M  V30 37 H 2.893449 -1.109952 4.732668 0
M  V30 38 H 2.128265 0.799669 3.441470 0
M  V30 39 H 3.608469 1.177848 4.325270 0
M  V30 40 H 3.748302 0.450610 1.352897 0
M  V30 41 H 5.026622 1.062226 2.403846 0
M  V30 42 H 4.044065 2.950385 1.190797 0
M  V30 43 H 3.779934 3.074190 2.973982 0
M  V30 44 H -0.079832 3.582236 1.039606 0
M  V30 45 H -0.371109 2.005932 1.952405 0
M  V30 46 H -0.672851 0.827195 -0.111833 0
M  V30 47 H -4.830930 1.136497 1.412902 0
M  V30 48 H -5.187108 1.493784 -0.331002 0
M  V30 49 H -5.885621 -0.729770 0.370462 0
M  V30 50 H -4.267089 -1.233057 0.837573 0
M  V30 51 H -5.428917 -0.442305 -1.901296 0
M  V30 52 H -5.292014 -2.084109 -1.319643 0
M  V30 53 H -3.109057 -0.152919 -2.361767 0
M  V30 54 H -3.826275 -1.500943 -3.206933 0
M  V30 55 H -1.770284 -1.788365 -0.920263 0
M  V30 56 H -1.611668 -2.024253 -2.661691 0
M  V30 57 H -1.719985 -4.040625 -1.503035 0
M  V30 58 H -3.326854 -3.745777 -0.795403 0
M  V30 59 H -2.513109 -4.157339 -3.752974 0
M  V30 60 H -4.122063 -3.513241 -3.348660 0
M  V30 61 H -3.561681 -5.161224 -2.756356 0
M  V30 62 H 0.811431 2.191139 -1.555530 0
M  V30 63 H -2.121746 2.025111 -2.475367 0
M  V30 64 H -0.786843 0.747795 -2.658510 0
M  V30 65 H -0.657224 2.284332 -3.553102 0
M  V30 66 H -1.356222 4.020281 -1.553708 0
M  V30 END ATOM
M  V30 BEGIN BOND
M  V30 1 1 1 2
M  V30 2 1 2 3
M  V30 3 1 3 4
M  V30 4 1 4 5
M  V30 5 1 5 6
M  V30 6 1 6 7
M  V30 7 1 7 8
M  V30 8 1 8 9
M  V30 9 1 9 10
M  V30 10 2 10 11
M  V30 11 1 10 12
M  V30 12 1 12 13
M  V30 13 1 13 14
M  V30 14 1 14 15
M  V30 15 2 15 16
M  V30 16 1 15 17
M  V30 17 1 17 18
M  V30 18 1 18 19
M  V30 19 1 19 20
M  V30 20 1 20 21
M  V30 21 1 21 22
M  V30 22 1 22 23
M  V30 23 1 13 24
M  V30 24 1 24 25
M  V30 25 1 24 26
M  V30 26 1 1 27
M  V30 27 1 1 28
M  V30 28 1 1 29
M  V30 29 1 2 30
M  V30 30 1 2 31
M  V30 31 1 3 32
M  V30 32 1 3 33
M  V30 33 1 4 34
M  V30 34 1 4 35
M  V30 35 1 5 36
M  V30 36 1 5 37
M  V30 37 1 6 38
M  V30 38 1 6 39
M  V30 39 1 7 40
M  V30 40 1 7 41
M  V30 41 1 8 42
M  V30 42 1 8 43
M  V30 43 1 12 44
M  V30 44 1 12 45
M  V30 45 1 13 46 CFG=3
M  V30 46 1 17 47
M  V30 47 1 17 48
M  V30 48 1 18 49
M  V30 49 1 18 50
M  V30 50 1 19 51
M  V30 51 1 19 52
M  V30 52 1 20 53
M  V30 53 1 20 54
M  V30 54 1 21 55
M  V30 55 1 21 56
M  V30 56 1 22 57
M  V30 57 1 22 58
M  V30 58 1 23 59
M  V30 59 1 23 60
M  V30 60 1 23 61
M  V30 61 1 24 62 CFG=3
M  V30 62 1 25 63
M  V30 63 1 25 64
M  V30 64 1 25 65
M  V30 65 1 26 66
M  V30 END BOND
M  V30 END CTAB
M  END
>  <Dataset>  (945) 
ChEMBL_Kinases

>  <Ligand_Instance>  (945) 
nan

>  <PDB_ID>  (945) 
nan

>  <Standardized_SMILES>  (945) 
CCCCCCCCOC(=O)C[C@@H](OC(=O)CCCCCCC)[C@@H](C)O

>  <Name>  (945) 
nan

>  <Pocket>  (945) 
nan

>  <ATP_Site>  (945) 
nan

>  <Peripheral>  (945) 
nan

>  <Num_H_Atoms_ProtBoundConf>  (945) 
nan

>  <Num_Resolved_Atoms>  (945) 
nan

>  <Num_Not_Resolved_Atoms>  (945) 
nan

$$$$
CHEMBL3822876
     RDKit          3D

  0  0  0  0  0  0  0  0  0  0999 V3000
M  V30 BEGIN CTAB
M  V30 COUNTS 47 50 0 0 0
M  V30 BEGIN ATOM
M  V30 1 F 0.318282 -4.332466 -0.205456 0
M  V30 2 C 1.431723 -4.240085 -0.981423 0
M  V30 3 C 2.216302 -5.376471 -0.992993 0
M  V30 4 C 3.363516 -5.389724 -1.744197 0
M  V30 5 C 3.714264 -4.272747 -2.473246 0
M  V30 6 C 2.954699 -3.138711 -2.477141 0
M  V30 7 C 1.795015 -3.111357 -1.723988 0
M  V30 8 N 0.852435 -2.053108 -1.573338 0
M  V30 9 C 0.972950 -0.829374 -1.023069 0
M  V30 10 C -0.253899 -0.207067 -1.143403 0
M  V30 11 C -0.566845 1.161323 -0.663300 0
M  V30 12 C -1.267073 1.858860 -1.644473 0
M  V30 13 C -1.643494 3.141019 -1.385415 0
M  V30 14 N -1.330453 3.696891 -0.194727 0
M  V30 15 C -0.656204 3.013648 0.739780 0
M  V30 16 C -0.232936 1.730059 0.586054 0
M  V30 17 O 0.430775 0.793261 1.270225 0
M  V30 18 C 1.031582 0.553845 2.443040 0
M  V30 19 C 0.262242 0.545073 3.725201 0
M  V30 20 C -0.446597 1.779209 4.116472 0
M  V30 21 C -1.896606 1.825733 3.777091 0
M  V30 22 N -2.515908 0.671952 4.429649 0
M  V30 23 C -2.035359 -0.538630 3.778573 0
M  V30 24 C -0.563713 -0.682648 3.914408 0
M  V30 25 C -1.105949 -1.085976 -1.776453 0
M  V30 26 N -0.380355 -2.207905 -2.021193 0
M  V30 27 H 1.957951 -6.272590 -0.423308 0
M  V30 28 H 4.013226 -6.274369 -1.778894 0
M  V30 29 H 4.622681 -4.231431 -3.091167 0
M  V30 30 H 3.140109 -2.214264 -3.011311 0
M  V30 31 H 1.890145 -0.459458 -0.583114 0
M  V30 32 H -1.560048 1.508242 -2.611985 0
M  V30 33 H -2.182230 3.835045 -2.003699 0
M  V30 34 H -0.375009 3.392875 1.694943 0
M  V30 35 H 1.916570 1.255886 2.652060 0
M  V30 36 H 1.585894 -0.454714 2.452870 0
M  V30 37 H 1.103703 0.432323 4.525342 0
M  V30 38 H 0.116190 2.710546 3.869157 0
M  V30 39 H -0.427957 1.799551 5.264190 0
M  V30 40 H -2.172034 1.754533 2.732529 0
M  V30 41 H -2.357940 2.726676 4.191254 0
M  V30 42 H -3.549373 0.705990 4.255883 0
M  V30 43 H -2.518575 -1.393503 4.298532 0
M  V30 44 H -2.308614 -0.602486 2.707666 0
M  V30 45 H -0.223021 -1.525073 3.270554 0
M  V30 46 H -0.388699 -1.065246 4.964125 0
M  V30 47 H -2.141278 -0.877409 -2.010712 0
M  V30 END ATOM
M  V30 BEGIN BOND
M  V30 1 1 1 2
M  V30 2 2 2 3
M  V30 3 1 3 4
M  V30 4 2 4 5
M  V30 5 1 5 6
M  V30 6 2 6 7
M  V30 7 1 7 8
M  V30 8 1 8 9
M  V30 9 2 9 10
M  V30 10 1 10 11
M  V30 11 2 11 12
M  V30 12 1 12 13
M  V30 13 2 13 14
M  V30 14 1 14 15
M  V30 15 2 15 16
M  V30 16 1 16 17
M  V30 17 1 17 18
M  V30 18 1 18 19
M  V30 19 1 19 20
M  V30 20 1 20 21
M  V30 21 1 21 22
M  V30 22 1 22 23
M  V30 23 1 23 24
M  V30 24 1 10 25
M  V30 25 2 25 26
M  V30 26 1 7 2
M  V30 27 1 26 8
M  V30 28 1 16 11
M  V30 29 1 24 19
M  V30 30 1 3 27
M  V30 31 1 4 28
M  V30 32 1 5 29
M  V30 33 1 6 30
M  V30 34 1 9 31
M  V30 35 1 12 32
M  V30 36 1 13 33
M  V30 37 1 15 34
M  V30 38 1 18 35
M  V30 39 1 18 36
M  V30 40 1 19 37
M  V30 41 1 20 38
M  V30 42 1 20 39
M  V30 43 1 21 40
M  V30 44 1 21 41
M  V30 45 1 22 42
M  V30 46 1 23 43
M  V30 47 1 23 44
M  V30 48 1 24 45
M  V30 49 1 24 46
M  V30 50 1 25 47
M  V30 END BOND
M  V30 END CTAB
M  END
>  <Dataset>  (946) 
ChEMBL_Kinases

>  <Ligand_Instance>  (946) 
nan

>  <PDB_ID>  (946) 
nan

>  <Standardized_SMILES>  (946) 
Fc1ccccc1-n1cc(-c2ccncc2OCC2CCNCC2)cn1

>  <Name>  (946) 
nan

>  <Pocket>  (946) 
nan

>  <ATP_Site>  (946) 
nan

>  <Peripheral>  (946) 
nan

>  <Num_H_Atoms_ProtBoundConf>  (946) 
nan

>  <Num_Resolved_Atoms>  (946) 
nan

>  <Num_Not_Resolved_Atoms>  (946) 
nan

$$$$
CHEMBL3822858
     RDKit          3D

  0  0  0  0  0  0  0  0  0  0999 V3000
M  V30 BEGIN CTAB
M  V30 COUNTS 56 60 0 0 0
M  V30 BEGIN ATOM
M  V30 1 C 4.022976 0.088763 0.026116 0
M  V30 2 O 2.655255 -0.171049 -0.110774 0
M  V30 3 C 1.686397 0.002098 0.842078 0
M  V30 4 N 1.787488 0.445211 2.103310 0
M  V30 5 N 0.642186 0.480958 2.733650 0
M  V30 6 C 0.511977 0.933911 4.107145 0
M  V30 7 C 1.720029 1.719705 4.559525 0
M  V30 8 C 2.014099 2.790099 3.565938 0
M  V30 9 N 0.890822 3.151323 2.725961 0
M  V30 10 C 0.997522 3.523274 1.335071 0
M  V30 11 C 2.207127 3.589521 0.516129 0
M  V30 12 O -0.064700 3.837905 0.701040 0
M  V30 13 C -0.407711 3.120520 3.359484 0
M  V30 14 C -0.663442 1.883616 4.175286 0
M  V30 15 C -0.286224 0.041800 1.865796 0
M  V30 16 C 0.345281 -0.260809 0.681629 0
M  V30 17 N -0.227848 -0.735981 -0.526894 0
M  V30 18 C -1.550142 -1.122444 -0.893170 0
M  V30 19 N -2.598660 -0.259615 -1.067566 0
M  V30 20 C -3.777845 -0.796007 -1.428028 0
M  V30 21 C -3.978945 -2.140542 -1.627378 0
M  V30 22 Cl -5.504130 -2.866804 -2.092710 0
M  V30 23 C -2.919234 -2.993698 -1.450559 0
M  V30 24 C -2.939009 -4.464092 -1.642518 0
M  V30 25 C -3.786031 -5.484551 -1.233280 0
M  V30 26 N -3.282013 -6.647274 -1.740578 0
M  V30 27 C -2.149420 -6.348581 -2.447096 0
M  V30 28 C -1.309563 -7.232180 -3.139436 0
M  V30 29 C -0.213556 -6.681136 -3.786954 0
M  V30 30 C 0.041093 -5.313678 -3.752195 0
M  V30 31 C -0.851791 -4.543775 -3.041542 0
M  V30 32 N -1.943804 -5.018062 -2.384674 0
M  V30 33 N -1.738423 -2.416843 -1.083953 0
M  V30 34 H 4.397400 -0.015313 1.047043 0
M  V30 35 H 4.569679 -0.672173 -0.595110 0
M  V30 36 H 4.338004 1.082908 -0.387236 0
M  V30 37 H 0.305368 0.081753 4.796670 0
M  V30 38 H 1.432927 2.214209 5.511338 0
M  V30 39 H 2.562227 1.004836 4.713447 0
M  V30 40 H 2.853138 2.453705 2.926435 0
M  V30 41 H 2.328287 3.755492 4.051925 0
M  V30 42 H 2.319954 4.626223 0.143151 0
M  V30 43 H 3.157587 3.358684 1.073629 0
M  V30 44 H 2.162654 2.843111 -0.310462 0
M  V30 45 H -1.176920 3.130752 2.557867 0
M  V30 46 H -0.566846 3.993100 4.031447 0
M  V30 47 H -0.906612 2.127015 5.240922 0
M  V30 48 H -1.536241 1.291950 3.796033 0
M  V30 49 H -1.337115 -0.044854 2.098422 0
M  V30 50 H 0.355534 -0.864002 -1.390138 0
M  V30 51 H -4.619413 -0.152005 -1.574323 0
M  V30 52 H -4.634072 -5.241884 -0.635823 0
M  V30 53 H -1.475445 -8.300687 -3.192799 0
M  V30 54 H 0.515510 -7.271877 -4.362977 0
M  V30 55 H 0.893627 -4.848767 -4.250085 0
M  V30 56 H -0.645490 -3.469624 -3.015390 0
M  V30 END ATOM
M  V30 BEGIN BOND
M  V30 1 1 1 2
M  V30 2 1 2 3
M  V30 3 2 3 4
M  V30 4 1 4 5
M  V30 5 1 5 6
M  V30 6 1 6 7
M  V30 7 1 7 8
M  V30 8 1 8 9
M  V30 9 1 9 10
M  V30 10 1 10 11
M  V30 11 2 10 12
M  V30 12 1 9 13
M  V30 13 1 13 14
M  V30 14 1 5 15
M  V30 15 2 15 16
M  V30 16 1 16 17
M  V30 17 1 17 18
M  V30 18 2 18 19
M  V30 19 1 19 20
M  V30 20 2 20 21
M  V30 21 1 21 22
M  V30 22 1 21 23
M  V30 23 1 23 24
M  V30 24 2 24 25
M  V30 25 1 25 26
M  V30 26 2 26 27
M  V30 27 1 27 28
M  V30 28 2 28 29
M  V30 29 1 29 30
M  V30 30 2 30 31
M  V30 31 1 31 32
M  V30 32 2 23 33
M  V30 33 1 16 3
M  V30 34 1 33 18
M  V30 35 1 14 6
M  V30 36 1 32 24
M  V30 37 1 32 27
M  V30 38 1 1 34
M  V30 39 1 1 35
M  V30 40 1 1 36
M  V30 41 1 6 37
M  V30 42 1 7 38
M  V30 43 1 7 39
M  V30 44 1 8 40
M  V30 45 1 8 41
M  V30 46 1 11 42
M  V30 47 1 11 43
M  V30 48 1 11 44
M  V30 49 1 13 45
M  V30 50 1 13 46
M  V30 51 1 14 47
M  V30 52 1 14 48
M  V30 53 1 15 49
M  V30 54 1 17 50
M  V30 55 1 20 51
M  V30 56 1 25 52
M  V30 57 1 28 53
M  V30 58 1 29 54
M  V30 59 1 30 55
M  V30 60 1 31 56
M  V30 END BOND
M  V30 END CTAB
M  END
>  <Dataset>  (947) 
ChEMBL_Kinases

>  <Ligand_Instance>  (947) 
nan

>  <PDB_ID>  (947) 
nan

>  <Standardized_SMILES>  (947) 
COc1nn(C2CCN(C(C)=O)CC2)cc1Nc1ncc(Cl)c(-c2cnc3ccccn23)n1

>  <Name>  (947) 
nan

>  <Pocket>  (947) 
nan

>  <ATP_Site>  (947) 
nan

>  <Peripheral>  (947) 
nan

>  <Num_H_Atoms_ProtBoundConf>  (947) 
nan

>  <Num_Resolved_Atoms>  (947) 
nan

>  <Num_Not_Resolved_Atoms>  (947) 
nan

$$$$
CHEMBL3822836
     RDKit          3D

  0  0  0  0  0  0  0  0  0  0999 V3000
M  V30 BEGIN CTAB
M  V30 COUNTS 50 54 0 0 0
M  V30 BEGIN ATOM
M  V30 1 C -0.954802 -0.071783 2.946910 0
M  V30 2 C -1.080330 -1.544905 3.313085 0 CFG=2
M  V30 3 N 0.160034 -1.939284 3.938855 0
M  V30 4 C 1.442059 -1.857057 3.337843 0
M  V30 5 N 2.600959 -2.245890 3.946870 0
M  V30 6 C 3.765485 -2.138798 3.326789 0
M  V30 7 C 3.907873 -1.642614 2.055380 0
M  V30 8 C 2.725269 -1.256428 1.460165 0
M  V30 9 N 2.771599 -0.726344 0.134122 0
M  V30 10 C 1.727261 -0.258805 -0.702933 0
M  V30 11 C 1.468825 1.108946 -0.548759 0
M  V30 12 C 0.427205 1.456751 -1.417723 0
M  V30 13 C -0.237389 2.769850 -1.657273 0
M  V30 14 C 0.729959 3.911700 -1.883765 0
M  V30 15 C 0.292380 4.576321 -0.619483 0
M  V30 16 F -0.313736 5.792174 -0.862545 0
M  V30 17 F 1.287782 4.632829 0.345680 0
M  V30 18 C -0.656903 3.437594 -0.364622 0
M  V30 19 N 0.108864 0.307201 -2.045697 0
M  V30 20 N 0.869057 -0.716273 -1.633592 0
M  V30 21 N 1.551396 -1.366619 2.090731 0
M  V30 22 C -1.451687 -2.354584 2.151561 0
M  V30 23 C -2.765536 -2.810603 1.995526 0
M  V30 24 C -3.241332 -3.572804 0.959431 0
M  V30 25 C -2.341212 -3.918773 -0.013876 0
M  V30 26 N -2.402942 -4.630349 -1.153537 0
M  V30 27 C -1.177096 -4.640046 -1.721951 0
M  V30 28 C -0.298119 -3.915582 -0.929484 0
M  V30 29 C -1.051535 -3.460435 0.156845 0
M  V30 30 N -0.618029 -2.713775 1.186500 0
M  V30 31 H -0.080048 0.417509 3.401852 0
M  V30 32 H -0.844223 0.008364 1.844817 0
M  V30 33 H -1.869973 0.480053 3.248881 0
M  V30 34 H -1.897357 -1.663958 4.085824 0
M  V30 35 H 0.175332 -2.329729 4.928510 0
M  V30 36 H 4.625306 -2.471227 3.887400 0
M  V30 37 H 4.855765 -1.560895 1.564127 0
M  V30 38 H 3.668052 -0.629521 -0.380241 0
M  V30 39 H 1.871639 1.928363 0.062525 0
M  V30 40 H -1.046208 2.727904 -2.420059 0
M  V30 41 H 1.785337 3.535207 -1.798960 0
M  V30 42 H 0.556448 4.475924 -2.818121 0
M  V30 43 H -0.391224 2.819509 0.524796 0
M  V30 44 H -1.723855 3.737615 -0.319614 0
M  V30 45 H -0.629471 0.147643 -2.778836 0
M  V30 46 H -3.501341 -2.540340 2.770546 0
M  V30 47 H -4.262703 -3.880605 0.914792 0
M  V30 48 H -3.310173 -5.070550 -1.466900 0
M  V30 49 H -1.062929 -5.173742 -2.649065 0
M  V30 50 H 0.737788 -3.810581 -1.224062 0
M  V30 END ATOM
M  V30 BEGIN BOND
M  V30 1 1 1 2
M  V30 2 1 2 3
M  V30 3 1 3 4
M  V30 4 2 4 5
M  V30 5 1 5 6
M  V30 6 2 6 7
M  V30 7 1 7 8
M  V30 8 1 8 9
M  V30 9 1 9 10
M  V30 10 1 10 11
M  V30 11 2 11 12
M  V30 12 1 12 13
M  V30 13 1 13 14
M  V30 14 1 14 15
M  V30 15 1 15 16
M  V30 16 1 15 17
M  V30 17 1 15 18
M  V30 18 1 12 19
M  V30 19 1 19 20
M  V30 20 2 8 21
M  V30 21 1 2 22
M  V30 22 2 22 23
M  V30 23 1 23 24
M  V30 24 2 24 25
M  V30 25 1 25 26
M  V30 26 1 26 27
M  V30 27 2 27 28
M  V30 28 1 28 29
M  V30 29 2 29 30
M  V30 30 1 21 4
M  V30 31 1 30 22
M  V30 32 2 20 10
M  V30 33 1 29 25
M  V30 34 1 18 13
M  V30 35 1 1 31
M  V30 36 1 1 32
M  V30 37 1 1 33
M  V30 38 1 2 34 CFG=1
M  V30 39 1 3 35
M  V30 40 1 6 36
M  V30 41 1 7 37
M  V30 42 1 9 38
M  V30 43 1 11 39
M  V30 44 1 13 40
M  V30 45 1 14 41
M  V30 46 1 14 42
M  V30 47 1 18 43
M  V30 48 1 18 44
M  V30 49 1 19 45
M  V30 50 1 23 46
M  V30 51 1 24 47
M  V30 52 1 26 48
M  V30 53 1 27 49
M  V30 54 1 28 50
M  V30 END BOND
M  V30 END CTAB
M  END
>  <Dataset>  (948) 
ChEMBL_Kinases

>  <Ligand_Instance>  (948) 
nan

>  <PDB_ID>  (948) 
nan

>  <Standardized_SMILES>  (948) 
C[C@H](Nc1nccc(Nc2cc(C3CC(F)(F)C3)[nH]n2)n1)c1ccc2[nH]ccc2n1

>  <Name>  (948) 
nan

>  <Pocket>  (948) 
nan

>  <ATP_Site>  (948) 
nan

>  <Peripheral>  (948) 
nan

>  <Num_H_Atoms_ProtBoundConf>  (948) 
nan

>  <Num_Resolved_Atoms>  (948) 
nan

>  <Num_Not_Resolved_Atoms>  (948) 
nan

$$$$
CHEMBL3822619
     RDKit          3D

  0  0  0  0  0  0  0  0  0  0999 V3000
M  V30 BEGIN CTAB
M  V30 COUNTS 58 62 0 0 0
M  V30 BEGIN ATOM
M  V30 1 C 1.073387 -0.925415 6.024115 0
M  V30 2 C 1.748900 -1.538626 4.820475 0
M  V30 3 C 1.467854 -0.708212 3.602918 0
M  V30 4 N 2.270602 0.141664 2.921600 0
M  V30 5 N 1.618983 0.656492 1.898105 0
M  V30 6 C 2.172189 1.610734 0.938060 0
M  V30 7 C 2.920326 0.851092 -0.133630 0
M  V30 8 C 2.928673 1.557713 -1.449359 0
M  V30 9 N 1.613611 2.003427 -1.852176 0
M  V30 10 C 1.464700 2.240339 -3.255055 0
M  V30 11 C 0.166982 2.702304 -3.791727 0
M  V30 12 O 2.571134 1.983507 -3.799620 0
M  V30 13 C 0.537656 2.191031 -0.903332 0
M  V30 14 C 1.118118 2.528788 0.430691 0
M  V30 15 C 0.379227 0.139622 1.909747 0
M  V30 16 C 0.235841 -0.742875 2.988168 0
M  V30 17 N -0.957370 -1.475336 3.330582 0
M  V30 18 C -2.096144 -1.340583 2.490032 0
M  V30 19 N -3.087213 -0.405987 2.524635 0
M  V30 20 C -4.095003 -0.454214 1.624044 0
M  V30 21 C -4.181049 -1.422157 0.644526 0
M  V30 22 Cl -5.470784 -1.498716 -0.522009 0
M  V30 23 C -3.171282 -2.358812 0.623811 0
M  V30 24 C -3.115105 -3.454589 -0.369391 0
M  V30 25 C -4.040807 -4.296440 -0.946851 0
M  V30 26 N -3.397352 -5.129215 -1.803065 0
M  V30 27 N -2.089030 -4.828461 -1.774069 0
M  V30 28 C -1.059236 -5.389574 -2.465483 0
M  V30 29 C 0.237381 -4.901998 -2.278278 0
M  V30 30 C 0.509630 -3.860789 -1.406486 0
M  V30 31 C -0.586392 -3.349492 -0.746171 0
M  V30 32 C -1.896717 -3.816570 -0.912863 0
M  V30 33 N -2.150134 -2.311475 1.535518 0
M  V30 34 H 0.500852 -0.018632 5.665519 0
M  V30 35 H 0.324360 -1.634486 6.456828 0
M  V30 36 H 1.808670 -0.554209 6.759038 0
M  V30 37 H 2.837841 -1.561485 5.036716 0
M  V30 38 H 1.341282 -2.559871 4.687753 0
M  V30 39 H 2.957623 2.231810 1.454871 0
M  V30 40 H 3.962626 0.618931 0.155261 0
M  V30 41 H 2.408424 -0.125709 -0.291773 0
M  V30 42 H 3.634979 2.435570 -1.456082 0
M  V30 43 H 3.309319 0.851462 -2.212514 0
M  V30 44 H -0.104573 3.666018 -3.313909 0
M  V30 45 H 0.269514 2.782292 -4.905555 0
M  V30 46 H -0.673706 2.017770 -3.610079 0
M  V30 47 H -0.091209 3.083599 -1.195791 0
M  V30 48 H -0.057182 1.256189 -0.936035 0
M  V30 49 H 1.553607 3.566032 0.318912 0
M  V30 50 H 0.342652 2.650085 1.222281 0
M  V30 51 H -0.432893 0.332080 1.224922 0
M  V30 52 H -0.876410 -2.054383 4.189684 0
M  V30 53 H -4.854424 0.311374 1.694951 0
M  V30 54 H -5.087841 -4.211350 -0.682949 0
M  V30 55 H -1.186874 -6.218439 -3.172512 0
M  V30 56 H 1.099445 -5.307583 -2.802358 0
M  V30 57 H 1.501116 -3.459523 -1.236715 0
M  V30 58 H -0.384166 -2.532570 -0.060661 0
M  V30 END ATOM
M  V30 BEGIN BOND
M  V30 1 1 1 2
M  V30 2 1 2 3
M  V30 3 2 3 4
M  V30 4 1 4 5
M  V30 5 1 5 6
M  V30 6 1 6 7
M  V30 7 1 7 8
M  V30 8 1 8 9
M  V30 9 1 9 10
M  V30 10 1 10 11
M  V30 11 2 10 12
M  V30 12 1 9 13
M  V30 13 1 13 14
M  V30 14 1 5 15
M  V30 15 2 15 16
M  V30 16 1 16 17
M  V30 17 1 17 18
M  V30 18 2 18 19
M  V30 19 1 19 20
M  V30 20 2 20 21
M  V30 21 1 21 22
M  V30 22 1 21 23
M  V30 23 1 23 24
M  V30 24 1 24 25
M  V30 25 2 25 26
M  V30 26 1 26 27
M  V30 27 1 27 28
M  V30 28 2 28 29
M  V30 29 1 29 30
M  V30 30 2 30 31
M  V30 31 1 31 32
M  V30 32 2 23 33
M  V30 33 1 16 3
M  V30 34 1 33 18
M  V30 35 1 14 6
M  V30 36 2 32 24
M  V30 37 1 32 27
M  V30 38 1 1 34
M  V30 39 1 1 35
M  V30 40 1 1 36
M  V30 41 1 2 37
M  V30 42 1 2 38
M  V30 43 1 6 39
M  V30 44 1 7 40
M  V30 45 1 7 41
M  V30 46 1 8 42
M  V30 47 1 8 43
M  V30 48 1 11 44
M  V30 49 1 11 45
M  V30 50 1 11 46
M  V30 51 1 13 47
M  V30 52 1 13 48
M  V30 53 1 14 49
M  V30 54 1 14 50
M  V30 55 1 15 51
M  V30 56 1 17 52
M  V30 57 1 20 53
M  V30 58 1 25 54
M  V30 59 1 28 55
M  V30 60 1 29 56
M  V30 61 1 30 57
M  V30 62 1 31 58
M  V30 END BOND
M  V30 END CTAB
M  END
>  <Dataset>  (949) 
ChEMBL_Kinases

>  <Ligand_Instance>  (949) 
nan

>  <PDB_ID>  (949) 
nan

>  <Standardized_SMILES>  (949) 
CCc1nn(C2CCN(C(C)=O)CC2)cc1Nc1ncc(Cl)c(-c2cnn3ccccc23)n1

>  <Name>  (949) 
nan

>  <Pocket>  (949) 
nan

>  <ATP_Site>  (949) 
nan

>  <Peripheral>  (949) 
nan

>  <Num_H_Atoms_ProtBoundConf>  (949) 
nan

>  <Num_Resolved_Atoms>  (949) 
nan

>  <Num_Not_Resolved_Atoms>  (949) 
nan

$$$$
CHEMBL3822583
     RDKit          3D

  0  0  0  0  0  0  0  0  0  0999 V3000
M  V30 BEGIN CTAB
M  V30 COUNTS 55 59 0 0 0
M  V30 BEGIN ATOM
M  V30 1 C 2.587124 -4.548862 6.109235 0
M  V30 2 C 2.071722 -5.033965 4.797364 0
M  V30 3 O 1.320422 -6.063625 4.873685 0
M  V30 4 N 2.438481 -4.343949 3.604927 0
M  V30 5 C 3.285271 -3.166359 3.405471 0
M  V30 6 C 2.526242 -2.051130 2.735307 0
M  V30 7 C 1.175549 -2.409025 2.261467 0
M  V30 8 N 0.758624 -1.443659 1.231242 0
M  V30 9 N -0.287759 -0.602915 1.256474 0
M  V30 10 C -0.318719 0.111753 0.119882 0
M  V30 11 C 0.746066 -0.287968 -0.657227 0
M  V30 12 N 1.036652 0.251024 -1.938715 0
M  V30 13 C 0.301441 1.262966 -2.614377 0
M  V30 14 N 0.693520 1.680842 -3.830335 0
M  V30 15 C 0.040636 2.632639 -4.517387 0
M  V30 16 C -1.084301 3.230441 -3.985789 0
M  V30 17 Cl -2.011045 4.483675 -4.799865 0
M  V30 18 C -1.496340 2.809753 -2.738344 0
M  V30 19 C -2.667399 3.346020 -2.044921 0
M  V30 20 C -3.110580 4.656857 -1.861034 0
M  V30 21 N -4.263647 4.625498 -1.139209 0
M  V30 22 C -4.550048 3.341771 -0.869765 0
M  V30 23 C -5.612291 2.773554 -0.167098 0
M  V30 24 C -5.715492 1.402247 -0.006101 0
M  V30 25 C -4.715385 0.616861 -0.574708 0
M  V30 26 C -3.690204 1.259345 -1.259505 0
M  V30 27 N -3.580295 2.584017 -1.421384 0
M  V30 28 N -0.794965 1.851761 -2.106349 0
M  V30 29 C 1.410973 -1.263291 0.053993 0
M  V30 30 C 2.608341 -1.917751 -0.481905 0
M  V30 31 C 0.937715 -3.826720 1.845469 0
M  V30 32 C 1.925790 -4.828359 2.325397 0
M  V30 33 H 2.636971 -5.357175 6.862333 0
M  V30 34 H 1.920473 -3.768972 6.532973 0
M  V30 35 H 3.591082 -4.098192 5.962225 0
M  V30 36 H 4.088862 -3.494014 2.702482 0
M  V30 37 H 3.791482 -2.889146 4.329749 0
M  V30 38 H 2.427761 -1.266204 3.544711 0
M  V30 39 H 3.138782 -1.520621 1.972147 0
M  V30 40 H 0.453745 -2.232513 3.114981 0
M  V30 41 H -1.111197 0.834155 -0.002460 0
M  V30 42 H 1.877980 -0.148483 -2.416546 0
M  V30 43 H 0.363989 2.959958 -5.491707 0
M  V30 44 H -2.569355 5.499921 -2.258275 0
M  V30 45 H -6.392418 3.376292 0.276884 0
M  V30 46 H -6.506407 0.903942 0.522225 0
M  V30 47 H -4.774016 -0.439926 -0.463615 0
M  V30 48 H -2.928055 0.621042 -1.690204 0
M  V30 49 H 3.497227 -1.230366 -0.380694 0
M  V30 50 H 2.544528 -2.058069 -1.601652 0
M  V30 51 H 2.878894 -2.852436 0.000319 0
M  V30 52 H 0.865147 -3.921115 0.724521 0
M  V30 53 H -0.081081 -4.195870 2.171747 0
M  V30 54 H 1.458630 -5.823339 2.421487 0
M  V30 55 H 2.805959 -4.973251 1.667724 0
M  V30 END ATOM
M  V30 BEGIN BOND
M  V30 1 1 1 2
M  V30 2 2 2 3
M  V30 3 1 2 4
M  V30 4 1 4 5
M  V30 5 1 5 6
M  V30 6 1 6 7
M  V30 7 1 7 8
M  V30 8 1 8 9
M  V30 9 2 9 10
M  V30 10 1 10 11
M  V30 11 1 11 12
M  V30 12 1 12 13
M  V30 13 2 13 14
M  V30 14 1 14 15
M  V30 15 2 15 16
M  V30 16 1 16 17
M  V30 17 1 16 18
M  V30 18 1 18 19
M  V30 19 2 19 20
M  V30 20 1 20 21
M  V30 21 2 21 22
M  V30 22 1 22 23
M  V30 23 2 23 24
M  V30 24 1 24 25
M  V30 25 2 25 26
M  V30 26 1 26 27
M  V30 27 2 18 28
M  V30 28 2 11 29
M  V30 29 1 29 30
M  V30 30 1 7 31
M  V30 31 1 31 32
M  V30 32 1 32 4
M  V30 33 1 29 8
M  V30 34 1 28 13
M  V30 35 1 27 19
M  V30 36 1 27 22
M  V30 37 1 1 33
M  V30 38 1 1 34
M  V30 39 1 1 35
M  V30 40 1 5 36
M  V30 41 1 5 37
M  V30 42 1 6 38
M  V30 43 1 6 39
M  V30 44 1 7 40
M  V30 45 1 10 41
M  V30 46 1 12 42
M  V30 47 1 15 43
M  V30 48 1 20 44
M  V30 49 1 23 45
M  V30 50 1 24 46
M  V30 51 1 25 47
M  V30 52 1 26 48
M  V30 53 1 30 49
M  V30 54 1 30 50
M  V30 55 1 30 51
M  V30 56 1 31 52
M  V30 57 1 31 53
M  V30 58 1 32 54
M  V30 59 1 32 55
M  V30 END BOND
M  V30 END CTAB
M  END
>  <Dataset>  (950) 
ChEMBL_Kinases

>  <Ligand_Instance>  (950) 
nan

>  <PDB_ID>  (950) 
nan

>  <Standardized_SMILES>  (950) 
CC(=O)N1CCC(n2ncc(Nc3ncc(Cl)c(-c4cnc5ccccn45)n3)c2C)CC1

>  <Name>  (950) 
nan

>  <Pocket>  (950) 
nan

>  <ATP_Site>  (950) 
nan

>  <Peripheral>  (950) 
nan

>  <Num_H_Atoms_ProtBoundConf>  (950) 
nan

>  <Num_Resolved_Atoms>  (950) 
nan

>  <Num_Not_Resolved_Atoms>  (950) 
nan

$$$$
CHEMBL3822543
     RDKit          3D

  0  0  0  0  0  0  0  0  0  0999 V3000
M  V30 BEGIN CTAB
M  V30 COUNTS 50 54 0 0 0
M  V30 BEGIN ATOM
M  V30 1 C -3.135632 -1.194611 -0.004741 0
M  V30 2 C -1.716923 -1.530324 0.211399 0
M  V30 3 C -0.649421 -0.788876 -0.284454 0
M  V30 4 N -0.747772 0.396969 -1.065215 0
M  V30 5 C 0.449681 1.035101 -1.487151 0
M  V30 6 N 1.123760 0.845523 -2.646649 0
M  V30 7 C 2.260916 1.527892 -2.912105 0
M  V30 8 C 2.758357 2.435340 -2.000577 0
M  V30 9 Cl 4.223011 3.351607 -2.279813 0
M  V30 10 C 2.081391 2.637620 -0.815546 0
M  V30 11 C 2.510607 3.577495 0.244950 0
M  V30 12 C 2.961336 4.876946 0.206365 0
M  V30 13 N 3.209675 5.236505 1.483545 0
M  V30 14 C 2.935004 4.221314 2.321429 0
M  V30 15 C 3.004221 4.043556 3.687350 0
M  V30 16 C 2.651977 2.865214 4.306663 0
M  V30 17 C 2.206657 1.807040 3.520417 0
M  V30 18 C 2.155576 2.035184 2.161291 0
M  V30 19 N 2.499308 3.185997 1.554111 0
M  V30 20 N 0.968849 1.926906 -0.629286 0
M  V30 21 C 0.498547 -1.428262 0.133389 0
M  V30 22 N 0.119923 -2.502199 0.846274 0
M  V30 23 N -1.218895 -2.582630 0.905946 0
M  V30 24 C -1.974850 -3.596295 1.584410 0
M  V30 25 C -3.112006 -4.171118 0.795777 0
M  V30 26 C -2.594273 -4.582001 -0.555465 0
M  V30 27 N -1.553496 -5.554113 -0.393503 0
M  V30 28 C -1.254909 -5.923492 0.956070 0
M  V30 29 C -1.035268 -4.765689 1.875184 0
M  V30 30 H -3.684667 -1.195441 0.976469 0
M  V30 31 H -3.635470 -1.769041 -0.794672 0
M  V30 32 H -3.223728 -0.118022 -0.336687 0
M  V30 33 H -1.669244 0.778321 -1.315651 0
M  V30 34 H 2.776628 1.355899 -3.845714 0
M  V30 35 H 3.061729 5.416821 -0.716031 0
M  V30 36 H 3.340380 4.828586 4.329420 0
M  V30 37 H 2.687385 2.672878 5.370976 0
M  V30 38 H 1.913928 0.851287 3.949925 0
M  V30 39 H 1.798397 1.174861 1.572449 0
M  V30 40 H 1.527140 -1.144113 -0.059647 0
M  V30 41 H -2.369249 -3.255601 2.564850 0
M  V30 42 H -3.414700 -5.115524 1.306999 0
M  V30 43 H -4.016530 -3.559537 0.752755 0
M  V30 44 H -2.292286 -3.729518 -1.190460 0
M  V30 45 H -3.435804 -5.086880 -1.104386 0
M  V30 46 H -0.707302 -5.393860 -0.969086 0
M  V30 47 H -1.982857 -6.682637 1.366402 0
M  V30 48 H -0.286649 -6.498975 0.905253 0
M  V30 49 H -1.142046 -5.118997 2.927705 0
M  V30 50 H 0.031114 -4.438542 1.758330 0
M  V30 END ATOM
M  V30 BEGIN BOND
M  V30 1 1 1 2
M  V30 2 2 2 3
M  V30 3 1 3 4
M  V30 4 1 4 5
M  V30 5 2 5 6
M  V30 6 1 6 7
M  V30 7 2 7 8
M  V30 8 1 8 9
M  V30 9 1 8 10
M  V30 10 1 10 11
M  V30 11 2 11 12
M  V30 12 1 12 13
M  V30 13 2 13 14
M  V30 14 1 14 15
M  V30 15 2 15 16
M  V30 16 1 16 17
M  V30 17 2 17 18
M  V30 18 1 18 19
M  V30 19 2 10 20
M  V30 20 1 3 21
M  V30 21 2 21 22
M  V30 22 1 22 23
M  V30 23 1 23 24
M  V30 24 1 24 25
M  V30 25 1 25 26
M  V30 26 1 26 27
M  V30 27 1 27 28
M  V30 28 1 28 29
M  V30 29 1 23 2
M  V30 30 1 29 24
M  V30 31 1 20 5
M  V30 32 1 19 11
M  V30 33 1 19 14
M  V30 34 1 1 30
M  V30 35 1 1 31
M  V30 36 1 1 32
M  V30 37 1 4 33
M  V30 38 1 7 34
M  V30 39 1 12 35
M  V30 40 1 15 36
M  V30 41 1 16 37
M  V30 42 1 17 38
M  V30 43 1 18 39
M  V30 44 1 21 40
M  V30 45 1 24 41
M  V30 46 1 25 42
M  V30 47 1 25 43
M  V30 48 1 26 44
M  V30 49 1 26 45
M  V30 50 1 27 46
M  V30 51 1 28 47
M  V30 52 1 28 48
M  V30 53 1 29 49
M  V30 54 1 29 50
M  V30 END BOND
M  V30 END CTAB
M  END
>  <Dataset>  (951) 
ChEMBL_Kinases

>  <Ligand_Instance>  (951) 
nan

>  <PDB_ID>  (951) 
nan

>  <Standardized_SMILES>  (951) 
Cc1c(Nc2ncc(Cl)c(-c3cnc4ccccn34)n2)cnn1C1CCNCC1

>  <Name>  (951) 
nan

>  <Pocket>  (951) 
nan

>  <ATP_Site>  (951) 
nan

>  <Peripheral>  (951) 
nan

>  <Num_H_Atoms_ProtBoundConf>  (951) 
nan

>  <Num_Resolved_Atoms>  (951) 
nan

>  <Num_Not_Resolved_Atoms>  (951) 
nan

$$$$
CHEMBL3822986
     RDKit          3D

  0  0  0  0  0  0  0  0  0  0999 V3000
M  V30 BEGIN CTAB
M  V30 COUNTS 47 51 0 0 0
M  V30 BEGIN ATOM
M  V30 1 C 0.028928 -2.852031 3.689717 0
M  V30 2 C 0.391098 -2.232423 2.361855 0 CFG=1
M  V30 3 N 1.059150 -3.202354 1.494707 0
M  V30 4 C 1.552000 -2.760592 0.236109 0
M  V30 5 N 2.027488 -3.704483 -0.627540 0
M  V30 6 C 2.512663 -3.369419 -1.830320 0
M  V30 7 C 2.500456 -2.032743 -2.132781 0
M  V30 8 C 2.034577 -1.034559 -1.302140 0
M  V30 9 N 2.055174 0.320725 -1.725989 0
M  V30 10 C 1.767264 1.437785 -0.900941 0
M  V30 11 C 1.535341 1.487023 0.455751 0
M  V30 12 C 1.286682 2.779668 0.866632 0
M  V30 13 C 1.004337 3.443473 2.164431 0
M  V30 14 C 2.027632 3.401290 3.245490 0
M  V30 15 C 0.723943 2.582028 3.336207 0
M  V30 16 N 1.380242 3.488376 -0.298095 0
M  V30 17 N 1.659595 2.706768 -1.322574 0
M  V30 18 N 1.553432 -1.434651 -0.092924 0
M  V30 19 C -0.827892 -1.698788 1.678498 0
M  V30 20 C -1.317098 -0.419467 1.538506 0
M  V30 21 C -2.487508 -0.198530 0.848452 0
M  V30 22 C -3.196611 -1.229956 0.284480 0
M  V30 23 N -4.339046 -1.247928 -0.418051 0
M  V30 24 C -4.590526 -2.542463 -0.734375 0
M  V30 25 C -3.576531 -3.313086 -0.209328 0
M  V30 26 C -2.659788 -2.489496 0.455728 0
M  V30 27 N -1.520131 -2.734493 1.124040 0
M  V30 28 H 0.974333 -3.249077 4.126905 0
M  V30 29 H -0.342951 -2.033992 4.344610 0
M  V30 30 H -0.770001 -3.613597 3.634878 0
M  V30 31 H 1.061194 -1.384840 2.553602 0
M  V30 32 H 1.162570 -4.175365 1.799200 0
M  V30 33 H 2.887166 -4.126169 -2.508395 0
M  V30 34 H 2.889542 -1.744320 -3.106116 0
M  V30 35 H 2.302597 0.494577 -2.724446 0
M  V30 36 H 1.533656 0.669908 1.157857 0
M  V30 37 H 0.485568 4.444139 2.098643 0
M  V30 38 H 2.091503 4.253466 3.942577 0
M  V30 39 H 2.952980 2.829245 3.151911 0
M  V30 40 H -0.007487 2.929364 4.107310 0
M  V30 41 H 0.875242 1.492791 3.346078 0
M  V30 42 H 1.277441 4.501745 -0.532681 0
M  V30 43 H -0.668627 0.291255 2.024379 0
M  V30 44 H -2.779228 0.844432 0.801407 0
M  V30 45 H -4.892682 -0.386212 -0.649771 0
M  V30 46 H -5.481221 -2.761001 -1.308876 0
M  V30 47 H -3.546381 -4.370296 -0.323024 0
M  V30 END ATOM
M  V30 BEGIN BOND
M  V30 1 1 1 2
M  V30 2 1 2 3
M  V30 3 1 3 4
M  V30 4 2 4 5
M  V30 5 1 5 6
M  V30 6 2 6 7
M  V30 7 1 7 8
M  V30 8 1 8 9
M  V30 9 1 9 10
M  V30 10 1 10 11
M  V30 11 2 11 12
M  V30 12 1 12 13
M  V30 13 1 13 14
M  V30 14 1 14 15
M  V30 15 1 12 16
M  V30 16 1 16 17
M  V30 17 2 8 18
M  V30 18 1 2 19
M  V30 19 2 19 20
M  V30 20 1 20 21
M  V30 21 2 21 22
M  V30 22 1 22 23
M  V30 23 1 23 24
M  V30 24 2 24 25
M  V30 25 1 25 26
M  V30 26 2 26 27
M  V30 27 1 18 4
M  V30 28 1 27 19
M  V30 29 2 17 10
M  V30 30 1 26 22
M  V30 31 1 15 13
M  V30 32 1 1 28
M  V30 33 1 1 29
M  V30 34 1 1 30
M  V30 35 1 2 31 CFG=1
M  V30 36 1 3 32
M  V30 37 1 6 33
M  V30 38 1 7 34
M  V30 39 1 9 35
M  V30 40 1 11 36
M  V30 41 1 13 37
M  V30 42 1 14 38
M  V30 43 1 14 39
M  V30 44 1 15 40
M  V30 45 1 15 41
M  V30 46 1 16 42
M  V30 47 1 20 43
M  V30 48 1 21 44
M  V30 49 1 23 45
M  V30 50 1 24 46
M  V30 51 1 25 47
M  V30 END BOND
M  V30 END CTAB
M  END
>  <Dataset>  (952) 
ChEMBL_Kinases

>  <Ligand_Instance>  (952) 
nan

>  <PDB_ID>  (952) 
nan

>  <Standardized_SMILES>  (952) 
C[C@@H](Nc1nccc(Nc2cc(C3CC3)[nH]n2)n1)c1ccc2[nH]ccc2n1

>  <Name>  (952) 
nan

>  <Pocket>  (952) 
nan

>  <ATP_Site>  (952) 
nan

>  <Peripheral>  (952) 
nan

>  <Num_H_Atoms_ProtBoundConf>  (952) 
nan

>  <Num_Resolved_Atoms>  (952) 
nan

>  <Num_Not_Resolved_Atoms>  (952) 
nan

$$$$
CHEMBL3818273
     RDKit          3D

  0  0  0  0  0  0  0  0  0  0999 V3000
M  V30 BEGIN CTAB
M  V30 COUNTS 54 57 0 0 0
M  V30 BEGIN ATOM
M  V30 1 C 3.597917 -7.143044 -0.297065 0
M  V30 2 N 2.602277 -6.868215 0.728359 0
M  V30 3 C 2.024175 -5.585959 0.757717 0
M  V30 4 N 2.812345 -4.653746 1.288238 0
M  V30 5 C 2.490252 -3.376636 1.443691 0
M  V30 6 C 1.208029 -2.995241 1.006563 0
M  V30 7 C 0.742511 -1.663072 1.124070 0
M  V30 8 C -0.562749 -1.395630 0.663620 0
M  V30 9 C -0.731671 0.027708 0.931793 0
M  V30 10 C -0.249194 0.936432 0.016704 0
M  V30 11 C -0.332057 2.292787 0.267665 0
M  V30 12 C -0.909519 2.707463 1.451741 0
M  V30 13 N -0.885273 4.119648 1.574327 0
M  V30 14 C -1.919801 4.964733 1.728577 0
M  V30 15 C -1.754705 6.365236 1.832382 0
M  V30 16 C -0.473331 6.860119 1.770662 0
M  V30 17 C 0.650411 6.080910 1.614220 0
M  V30 18 C 2.036481 6.571103 1.547602 0
M  V30 19 C 0.325277 4.761798 1.529431 0
M  V30 20 O 1.334706 3.971818 1.381926 0
M  V30 21 C -1.415058 1.851296 2.408741 0
M  V30 22 C -1.313163 0.491777 2.120003 0
M  V30 23 Cl -1.937992 -0.656867 3.288795 0
M  V30 24 C -1.351515 -2.372110 0.124387 0
M  V30 25 O -2.445982 -1.938196 -0.209636 0
M  V30 26 N -0.894735 -3.619018 0.020027 0
M  V30 27 C -1.655886 -4.713924 -0.518820 0
M  V30 28 C -1.517044 -4.952694 -1.976570 0
M  V30 29 O -1.984191 -3.943694 -2.775233 0
M  V30 30 C -3.351404 -3.873042 -2.659000 0
M  V30 31 C 0.367205 -3.942065 0.450275 0
M  V30 32 N 0.797383 -5.239875 0.334766 0
M  V30 33 H 3.093989 -7.093496 -1.286546 0
M  V30 34 H 4.432394 -6.398982 -0.263298 0
M  V30 35 H 4.003713 -8.164211 -0.178313 0
M  V30 36 H 2.353976 -7.634537 1.401841 0
M  V30 37 H 3.135546 -2.612488 1.873329 0
M  V30 38 H 1.501660 -1.023676 1.576592 0
M  V30 39 H 0.193545 0.549938 -0.907390 0
M  V30 40 H 0.074873 2.926928 -0.503667 0
M  V30 41 H -2.898289 4.481955 1.771156 0
M  V30 42 H -2.645724 6.962811 1.952837 0
M  V30 43 H -0.316870 7.955459 1.849444 0
M  V30 44 H 2.063683 7.637565 1.230193 0
M  V30 45 H 2.657948 5.998071 0.808026 0
M  V30 46 H 2.569691 6.483123 2.515869 0
M  V30 47 H -1.846979 2.256632 3.304340 0
M  V30 48 H -2.738387 -4.629031 -0.217474 0
M  V30 49 H -1.336679 -5.671469 -0.005568 0
M  V30 50 H -2.009180 -5.928407 -2.205945 0
M  V30 51 H -0.413351 -5.071591 -2.220636 0
M  V30 52 H -3.830277 -4.839085 -2.997882 0
M  V30 53 H -3.766999 -3.688860 -1.664659 0
M  V30 54 H -3.691026 -3.089905 -3.393508 0
M  V30 END ATOM
M  V30 BEGIN BOND
M  V30 1 1 1 2
M  V30 2 1 2 3
M  V30 3 2 3 4
M  V30 4 1 4 5
M  V30 5 2 5 6
M  V30 6 1 6 7
M  V30 7 2 7 8
M  V30 8 1 8 9
M  V30 9 2 9 10
M  V30 10 1 10 11
M  V30 11 2 11 12
M  V30 12 1 12 13
M  V30 13 1 13 14
M  V30 14 2 14 15
M  V30 15 1 15 16
M  V30 16 2 16 17
M  V30 17 1 17 18
M  V30 18 1 17 19
M  V30 19 2 19 20
M  V30 20 1 12 21
M  V30 21 2 21 22
M  V30 22 1 22 23
M  V30 23 1 8 24
M  V30 24 2 24 25
M  V30 25 1 24 26
M  V30 26 1 26 27
M  V30 27 1 27 28
M  V30 28 1 28 29
M  V30 29 1 29 30
M  V30 30 1 26 31
M  V30 31 2 31 32
M  V30 32 1 32 3
M  V30 33 1 31 6
M  V30 34 1 22 9
M  V30 35 1 19 13
M  V30 36 1 1 33
M  V30 37 1 1 34
M  V30 38 1 1 35
M  V30 39 1 2 36
M  V30 40 1 5 37
M  V30 41 1 7 38
M  V30 42 1 10 39
M  V30 43 1 11 40
M  V30 44 1 14 41
M  V30 45 1 15 42
M  V30 46 1 16 43
M  V30 47 1 18 44
M  V30 48 1 18 45
M  V30 49 1 18 46
M  V30 50 1 21 47
M  V30 51 1 27 48
M  V30 52 1 27 49
M  V30 53 1 28 50
M  V30 54 1 28 51
M  V30 55 1 30 52
M  V30 56 1 30 53
M  V30 57 1 30 54
M  V30 END BOND
M  V30 END CTAB
M  END
>  <Dataset>  (953) 
ChEMBL_Kinases

>  <Ligand_Instance>  (953) 
nan

>  <PDB_ID>  (953) 
nan

>  <Standardized_SMILES>  (953) 
CNc1ncc2cc(-c3ccc(-n4cccc(C)c4=O)cc3Cl)c(=O)n(CCOC)c2n1

>  <Name>  (953) 
nan

>  <Pocket>  (953) 
nan

>  <ATP_Site>  (953) 
nan

>  <Peripheral>  (953) 
nan

>  <Num_H_Atoms_ProtBoundConf>  (953) 
nan

>  <Num_Resolved_Atoms>  (953) 
nan

>  <Num_Not_Resolved_Atoms>  (953) 
nan

$$$$
CHEMBL3818271
     RDKit          3D

  0  0  0  0  0  0  0  0  0  0999 V3000
M  V30 BEGIN CTAB
M  V30 COUNTS 69 73 0 0 0
M  V30 BEGIN ATOM
M  V30 1 C 6.140908 1.948317 5.546752 0
M  V30 2 C 6.532525 1.531742 4.124017 0
M  V30 3 C 7.015864 0.120244 4.183330 0
M  V30 4 C 5.327199 1.630904 3.226957 0
M  V30 5 O 4.827914 0.649113 2.585394 0
M  V30 6 N 4.660032 2.872975 3.043728 0
M  V30 7 C 3.549864 2.678945 2.142046 0
M  V30 8 C 3.817699 2.851862 0.799656 0
M  V30 9 C 2.787379 2.676764 -0.109016 0
M  V30 10 C 1.528282 2.336476 0.345600 0
M  V30 11 C 0.401389 2.139713 -0.590754 0
M  V30 12 C -0.081726 2.826960 -1.686065 0
M  V30 13 N -1.157566 2.171773 -2.160314 0
M  V30 14 N -1.347084 1.106142 -1.389572 0
M  V30 15 C -2.332094 0.182885 -1.533067 0
M  V30 16 N -3.328529 0.217161 -2.549108 0
M  V30 17 C -4.358827 -0.769275 -2.679180 0
M  V30 18 C -3.890050 -2.173494 -2.901019 0
M  V30 19 C -5.081774 -3.095145 -3.018604 0
M  V30 20 C -5.531776 -3.228903 -4.457612 0
M  V30 21 O -4.431833 -3.745423 -5.152881 0
M  V30 22 C -3.594088 -2.627166 -5.366164 0
M  V30 23 C -2.942488 -2.339154 -4.033520 0
M  V30 24 N -2.336389 -0.820001 -0.635718 0
M  V30 25 C -1.437339 -0.930608 0.352220 0
M  V30 26 O -1.414850 -1.952014 1.292608 0
M  V30 27 C -2.335171 -3.015163 1.338606 0
M  V30 28 C -1.604376 -4.359463 1.269020 0
M  V30 29 C -1.188806 -4.650584 2.694167 0
M  V30 30 C -1.840542 -3.590282 3.557769 0
M  V30 31 C -2.961571 -3.008209 2.723209 0
M  V30 32 N -0.470044 -0.003517 0.474728 0
M  V30 33 C -0.428963 1.026451 -0.410547 0
M  V30 34 C 1.299982 2.172103 1.700475 0
M  V30 35 C 2.308699 2.339025 2.645943 0
M  V30 36 H 5.658196 1.106711 6.080374 0
M  V30 37 H 7.055326 2.197501 6.117755 0
M  V30 38 H 5.448746 2.832662 5.439628 0
M  V30 39 H 7.356751 2.171245 3.748831 0
M  V30 40 H 7.923235 -0.072290 3.552988 0
M  V30 41 H 7.320228 -0.138266 5.212045 0
M  V30 42 H 6.169232 -0.530518 3.880289 0
M  V30 43 H 5.004999 3.746628 3.538571 0
M  V30 44 H 4.812348 3.118358 0.468827 0
M  V30 45 H 2.969966 2.806449 -1.169172 0
M  V30 46 H 0.478306 3.731493 -1.945700 0
M  V30 47 H -3.251796 1.024655 -3.200654 0
M  V30 48 H -5.038665 -0.465902 -3.500109 0
M  V30 49 H -4.974134 -0.709585 -1.758127 0
M  V30 50 H -3.359457 -2.500106 -1.973085 0
M  V30 51 H -5.909653 -2.769205 -2.353881 0
M  V30 52 H -4.777565 -4.108336 -2.669619 0
M  V30 53 H -5.802648 -2.230364 -4.849655 0
M  V30 54 H -6.399463 -3.917130 -4.476747 0
M  V30 55 H -4.240207 -1.834134 -5.746103 0
M  V30 56 H -2.784536 -2.851823 -6.084726 0
M  V30 57 H -2.318531 -3.247520 -3.827311 0
M  V30 58 H -2.232632 -1.496781 -4.080423 0
M  V30 59 H -3.104687 -3.001529 0.565501 0
M  V30 60 H -2.257967 -5.132816 0.830890 0
M  V30 61 H -0.704218 -4.153416 0.618867 0
M  V30 62 H -1.491478 -5.663198 3.039174 0
M  V30 63 H -0.083068 -4.590933 2.780402 0
M  V30 64 H -2.233610 -4.052629 4.468681 0
M  V30 65 H -1.105436 -2.781597 3.742186 0
M  V30 66 H -3.893384 -3.624128 2.753412 0
M  V30 67 H -3.161224 -1.955472 2.983724 0
M  V30 68 H 0.295623 1.903383 2.029290 0
M  V30 69 H 2.138392 2.211659 3.715118 0
M  V30 END ATOM
M  V30 BEGIN BOND
M  V30 1 1 1 2
M  V30 2 1 2 3
M  V30 3 1 2 4
M  V30 4 2 4 5
M  V30 5 1 4 6
M  V30 6 1 6 7
M  V30 7 2 7 8
M  V30 8 1 8 9
M  V30 9 2 9 10
M  V30 10 1 10 11
M  V30 11 1 11 12
M  V30 12 2 12 13
M  V30 13 1 13 14
M  V30 14 1 14 15
M  V30 15 1 15 16
M  V30 16 1 16 17
M  V30 17 1 17 18
M  V30 18 1 18 19
M  V30 19 1 19 20
M  V30 20 1 20 21
M  V30 21 1 21 22
M  V30 22 1 22 23
M  V30 23 2 15 24
M  V30 24 1 24 25
M  V30 25 1 25 26
M  V30 26 1 26 27
M  V30 27 1 27 28
M  V30 28 1 28 29
M  V30 29 1 29 30
M  V30 30 1 30 31
M  V30 31 2 25 32
M  V30 32 1 32 33
M  V30 33 1 10 34
M  V30 34 2 34 35
M  V30 35 1 35 7
M  V30 36 2 33 11
M  V30 37 1 33 14
M  V30 38 1 23 18
M  V30 39 1 31 27
M  V30 40 1 1 36
M  V30 41 1 1 37
M  V30 42 1 1 38
M  V30 43 1 2 39
M  V30 44 1 3 40
M  V30 45 1 3 41
M  V30 46 1 3 42
M  V30 47 1 6 43
M  V30 48 1 8 44
M  V30 49 1 9 45
M  V30 50 1 12 46
M  V30 51 1 16 47
M  V30 52 1 17 48
M  V30 53 1 17 49
M  V30 54 1 18 50
M  V30 55 1 19 51
M  V30 56 1 19 52
M  V30 57 1 20 53
M  V30 58 1 20 54
M  V30 59 1 22 55
M  V30 60 1 22 56
M  V30 61 1 23 57
M  V30 62 1 23 58
M  V30 63 1 27 59
M  V30 64 1 28 60
M  V30 65 1 28 61
M  V30 66 1 29 62
M  V30 67 1 29 63
M  V30 68 1 30 64
M  V30 69 1 30 65
M  V30 70 1 31 66
M  V30 71 1 31 67
M  V30 72 1 34 68
M  V30 73 1 35 69
M  V30 END BOND
M  V30 END CTAB
M  END
>  <Dataset>  (954) 
ChEMBL_Kinases

>  <Ligand_Instance>  (954) 
nan

>  <PDB_ID>  (954) 
nan

>  <Standardized_SMILES>  (954) 
CC(C)C(=O)Nc1ccc(-c2cnn3c(NCC4CCOCC4)nc(OC4CCCC4)nc23)cc1

>  <Name>  (954) 
nan

>  <Pocket>  (954) 
nan

>  <ATP_Site>  (954) 
nan

>  <Peripheral>  (954) 
nan

>  <Num_H_Atoms_ProtBoundConf>  (954) 
nan

>  <Num_Resolved_Atoms>  (954) 
nan

>  <Num_Not_Resolved_Atoms>  (954) 
nan

$$$$
CHEMBL592999
     RDKit          3D

  0  0  0  0  0  0  0  0  0  0999 V3000
M  V30 BEGIN CTAB
M  V30 COUNTS 40 43 0 0 0
M  V30 BEGIN ATOM
M  V30 1 C 1.437639 -1.940572 3.763295 0
M  V30 2 N 0.362557 -1.105168 3.319703 0
M  V30 3 C 0.249242 -0.826003 2.007901 0
M  V30 4 C 0.983347 -1.166517 0.788812 0
M  V30 5 C 1.090058 -2.499293 0.402130 0
M  V30 6 C 1.788038 -2.819704 -0.756374 0
M  V30 7 C 2.362051 -1.809155 -1.501146 0
M  V30 8 N 3.050167 -2.106333 -2.640221 0
M  V30 9 C 3.621487 -1.120366 -3.384734 0
M  V30 10 C 3.492719 0.192601 -2.966329 0
M  V30 11 N 2.808089 0.467831 -1.836360 0
M  V30 12 C 2.237292 -0.492975 -1.088569 0
M  V30 13 C 1.554114 -0.145543 0.050889 0
M  V30 14 C -0.870759 -0.000220 1.840577 0
M  V30 15 C -1.470194 0.610295 0.635482 0
M  V30 16 C -1.588040 1.957777 0.452613 0
M  V30 17 C -2.173923 2.384986 -0.732714 0
M  V30 18 C -2.625780 1.522653 -1.699355 0
M  V30 19 C -2.485041 0.169071 -1.469702 0
M  V30 20 C -1.902699 -0.301292 -0.293558 0
M  V30 21 C -1.408959 0.194807 3.095913 0
M  V30 22 O -2.436225 0.879177 3.425892 0
M  V30 23 N -0.630555 -0.489369 3.942013 0
M  V30 24 C -0.806020 -0.581091 5.379258 0
M  V30 25 H 1.384974 -1.965612 4.875422 0
M  V30 26 H 1.313033 -3.014828 3.453868 0
M  V30 27 H 2.440768 -1.541266 3.514996 0
M  V30 28 H 0.650247 -3.277631 0.972074 0
M  V30 29 H 1.917540 -3.819599 -1.124825 0
M  V30 30 H 4.159982 -1.393277 -4.282734 0
M  V30 31 H 3.934076 1.000984 -3.533832 0
M  V30 32 H 1.463269 0.882367 0.362701 0
M  V30 33 H -1.221211 2.605200 1.235055 0
M  V30 34 H -2.255998 3.461826 -0.854018 0
M  V30 35 H -3.076090 1.873139 -2.609477 0
M  V30 36 H -2.832967 -0.549550 -2.216363 0
M  V30 37 H -1.819558 -1.369365 -0.169697 0
M  V30 38 H 0.179037 -0.666431 5.916816 0
M  V30 39 H -1.420092 -1.441127 5.695213 0
M  V30 40 H -1.252135 0.391128 5.735213 0
M  V30 END ATOM
M  V30 BEGIN BOND
M  V30 1 1 1 2
M  V30 2 1 2 3
M  V30 3 1 3 4
M  V30 4 2 4 5
M  V30 5 1 5 6
M  V30 6 2 6 7
M  V30 7 1 7 8
M  V30 8 2 8 9
M  V30 9 1 9 10
M  V30 10 2 10 11
M  V30 11 1 11 12
M  V30 12 2 12 13
M  V30 13 2 3 14
M  V30 14 1 14 15
M  V30 15 2 15 16
M  V30 16 1 16 17
M  V30 17 2 17 18
M  V30 18 1 18 19
M  V30 19 2 19 20
M  V30 20 1 14 21
M  V30 21 2 21 22
M  V30 22 1 21 23
M  V30 23 1 23 24
M  V30 24 1 23 2
M  V30 25 1 13 4
M  V30 26 1 20 15
M  V30 27 1 12 7
M  V30 28 1 1 25
M  V30 29 1 1 26
M  V30 30 1 1 27
M  V30 31 1 5 28
M  V30 32 1 6 29
M  V30 33 1 9 30
M  V30 34 1 10 31
M  V30 35 1 13 32
M  V30 36 1 16 33
M  V30 37 1 17 34
M  V30 38 1 18 35
M  V30 39 1 19 36
M  V30 40 1 20 37
M  V30 41 1 24 38
M  V30 42 1 24 39
M  V30 43 1 24 40
M  V30 END BOND
M  V30 END CTAB
M  END
>  <Dataset>  (955) 
ChEMBL_Kinases

>  <Ligand_Instance>  (955) 
nan

>  <PDB_ID>  (955) 
nan

>  <Standardized_SMILES>  (955) 
Cn1c(-c2ccc3nccnc3c2)c(-c2ccccc2)c(=O)n1C

>  <Name>  (955) 
nan

>  <Pocket>  (955) 
nan

>  <ATP_Site>  (955) 
nan

>  <Peripheral>  (955) 
nan

>  <Num_H_Atoms_ProtBoundConf>  (955) 
nan

>  <Num_Resolved_Atoms>  (955) 
nan

>  <Num_Not_Resolved_Atoms>  (955) 
nan

$$$$
CHEMBL495751
     RDKit          3D

  0  0  0  0  0  0  0  0  0  0999 V3000
M  V30 BEGIN CTAB
M  V30 COUNTS 58 61 0 0 0
M  V30 BEGIN ATOM
M  V30 1 C 4.695597 -1.722197 1.263982 0
M  V30 2 C 3.905585 -1.947951 2.540903 0
M  V30 3 N 3.685161 -0.790635 3.317011 0
M  V30 4 C 4.790363 -0.190006 3.973501 0
M  V30 5 C 5.773201 0.452400 3.056419 0
M  V30 6 C 2.469399 -0.783346 4.060952 0
M  V30 7 C 1.296695 -0.673945 3.123680 0
M  V30 8 N 1.449942 0.580589 2.378018 0
M  V30 9 C 0.326323 0.657458 1.505997 0
M  V30 10 O -0.458095 -0.342830 1.617431 0
M  V30 11 C 0.077256 1.770465 0.562556 0
M  V30 12 C 0.851247 2.897892 0.393383 0
M  V30 13 C 0.478382 3.840495 -0.541309 0
M  V30 14 C -0.662693 3.660627 -1.306088 0
M  V30 15 C -1.467666 2.537347 -1.163998 0
M  V30 16 N -2.653725 2.319051 -1.956945 0
M  V30 17 C -3.441741 1.175695 -1.624487 0
M  V30 18 N -4.511223 1.350410 -0.824339 0
M  V30 19 C -5.250310 0.280021 -0.490968 0
M  V30 20 C -4.854304 -0.932401 -0.998118 0
M  V30 21 C -3.786372 -1.181576 -1.809733 0
M  V30 22 C -3.296166 -2.406105 -2.393354 0
M  V30 23 C -2.282083 -2.364605 -3.356611 0
M  V30 24 N -1.984354 -3.618356 -3.730326 0
M  V30 25 N -2.729802 -4.477364 -3.080486 0
M  V30 26 N -2.811768 -5.794595 -3.084016 0
M  V30 27 C -3.665679 -6.485522 -2.304083 0
M  V30 28 C -4.494801 -5.747213 -1.457442 0
M  V30 29 C -4.386249 -4.381079 -1.477435 0
M  V30 30 C -3.505750 -3.735467 -2.287332 0
M  V30 31 N -3.110120 -0.040511 -2.086627 0
M  V30 32 C -1.045500 1.638419 -0.220154 0
M  V30 33 H 4.605051 -2.618352 0.587637 0
M  V30 34 H 4.292766 -0.888650 0.675704 0
M  V30 35 H 5.763226 -1.599410 1.494025 0
M  V30 36 H 4.378193 -2.780444 3.136713 0
M  V30 37 H 2.933356 -2.374400 2.216357 0
M  V30 38 H 4.362964 0.608888 4.644937 0
M  V30 39 H 5.312871 -0.874715 4.683885 0
M  V30 40 H 5.342061 0.690189 2.076657 0
M  V30 41 H 6.745430 -0.084475 3.006514 0
M  V30 42 H 6.049696 1.470783 3.482784 0
M  V30 43 H 2.393264 0.090840 4.758573 0
M  V30 44 H 2.362093 -1.712288 4.699221 0
M  V30 45 H 1.171160 -1.538395 2.480313 0
M  V30 46 H 0.398668 -0.508245 3.793041 0
M  V30 47 H 2.142336 1.361123 2.347591 0
M  V30 48 H 1.721142 2.958588 1.030073 0
M  V30 49 H 1.099276 4.726650 -0.662774 0
M  V30 50 H -0.931146 4.408493 -2.024361 0
M  V30 51 H -2.815317 3.046361 -2.717773 0
M  V30 52 H -6.117313 0.359295 0.146166 0
M  V30 53 H -5.474759 -1.753022 -0.718943 0
M  V30 54 H -1.705517 -1.583163 -3.850577 0
M  V30 55 H -3.766426 -7.575076 -2.276266 0
M  V30 56 H -5.200542 -6.286501 -0.806734 0
M  V30 57 H -5.033109 -3.876426 -0.805429 0
M  V30 58 H -1.685565 0.749339 -0.110048 0
M  V30 END ATOM
M  V30 BEGIN BOND
M  V30 1 1 1 2
M  V30 2 1 2 3
M  V30 3 1 3 4
M  V30 4 1 4 5
M  V30 5 1 3 6
M  V30 6 1 6 7
M  V30 7 1 7 8
M  V30 8 1 8 9
M  V30 9 2 9 10
M  V30 10 1 9 11
M  V30 11 2 11 12
M  V30 12 1 12 13
M  V30 13 2 13 14
M  V30 14 1 14 15
M  V30 15 1 15 16
M  V30 16 1 16 17
M  V30 17 2 17 18
M  V30 18 1 18 19
M  V30 19 2 19 20
M  V30 20 1 20 21
M  V30 21 1 21 22
M  V30 22 1 22 23
M  V30 23 2 23 24
M  V30 24 1 24 25
M  V30 25 1 25 26
M  V30 26 2 26 27
M  V30 27 1 27 28
M  V30 28 2 28 29
M  V30 29 1 29 30
M  V30 30 2 21 31
M  V30 31 2 15 32
M  V30 32 1 32 11
M  V30 33 1 31 17
M  V30 34 2 30 22
M  V30 35 1 30 25
M  V30 36 1 1 33
M  V30 37 1 1 34
M  V30 38 1 1 35
M  V30 39 1 2 36
M  V30 40 1 2 37
M  V30 41 1 4 38
M  V30 42 1 4 39
M  V30 43 1 5 40
M  V30 44 1 5 41
M  V30 45 1 5 42
M  V30 46 1 6 43
M  V30 47 1 6 44
M  V30 48 1 7 45
M  V30 49 1 7 46
M  V30 50 1 8 47
M  V30 51 1 12 48
M  V30 52 1 13 49
M  V30 53 1 14 50
M  V30 54 1 16 51
M  V30 55 1 19 52
M  V30 56 1 20 53
M  V30 57 1 23 54
M  V30 58 1 27 55
M  V30 59 1 28 56
M  V30 60 1 29 57
M  V30 61 1 32 58
M  V30 END BOND
M  V30 END CTAB
M  END
>  <Dataset>  (956) 
ChEMBL_Kinases

>  <Ligand_Instance>  (956) 
nan

>  <PDB_ID>  (956) 
nan

>  <Standardized_SMILES>  (956) 
CCN(CC)CCNC(=O)c1cccc(Nc2nccc(-c3cnn4ncccc34)n2)c1

>  <Name>  (956) 
nan

>  <Pocket>  (956) 
nan

>  <ATP_Site>  (956) 
nan

>  <Peripheral>  (956) 
nan

>  <Num_H_Atoms_ProtBoundConf>  (956) 
nan

>  <Num_Resolved_Atoms>  (956) 
nan

>  <Num_Not_Resolved_Atoms>  (956) 
nan

$$$$
CHEMBL495757
     RDKit          3D

  0  0  0  0  0  0  0  0  0  0999 V3000
M  V30 BEGIN CTAB
M  V30 COUNTS 33 35 0 0 0
M  V30 BEGIN ATOM
M  V30 1 C -2.814228 -1.837821 1.783232 0
M  V30 2 C -2.102229 -2.929300 1.044423 0
M  V30 3 C -0.626735 -2.833445 1.185673 0
M  V30 4 C 0.094835 -3.950899 0.448514 0
M  V30 5 N 1.471142 -3.968650 0.916514 0
M  V30 6 C 2.185793 -2.774301 0.536457 0
M  V30 7 O 3.421269 -2.759321 0.271838 0
M  V30 8 C 1.346945 -1.556326 0.481954 0
M  V30 9 C 1.759813 -0.289581 0.127428 0
M  V30 10 C 0.646276 0.519092 0.195475 0
M  V30 11 C 0.601409 1.944615 -0.094823 0
M  V30 12 C -0.580084 2.643174 0.010868 0
M  V30 13 C -0.505698 3.993414 -0.289005 0
M  V30 14 N 0.602629 4.663375 -0.666870 0
M  V30 15 C 1.744326 3.952700 -0.761507 0
M  V30 16 C 1.747048 2.601502 -0.477914 0
M  V30 17 N -0.357926 -0.285025 0.579466 0
M  V30 18 C -0.017104 -1.567182 0.776723 0
M  V30 19 H -3.575637 -2.264345 2.510541 0
M  V30 20 H -3.309506 -1.087118 1.129299 0
M  V30 21 H -2.075861 -1.318447 2.426881 0
M  V30 22 H -2.396514 -3.909559 1.523004 0
M  V30 23 H -2.444293 -3.036442 -0.005891 0
M  V30 24 H -0.394157 -3.001493 2.273387 0
M  V30 25 H 0.001343 -3.800749 -0.636535 0
M  V30 26 H -0.366481 -4.942330 0.687845 0
M  V30 27 H 2.020059 -4.688698 1.469109 0
M  V30 28 H 2.744760 0.057360 -0.156031 0
M  V30 29 H -1.499812 2.190371 0.302732 0
M  V30 30 H -1.399271 4.590447 -0.223527 0
M  V30 31 H 2.643044 4.481559 -1.064868 0
M  V30 32 H 2.687389 2.066544 -0.566469 0
M  V30 33 H -1.311564 0.114806 0.697182 0
M  V30 END ATOM
M  V30 BEGIN BOND
M  V30 1 1 1 2
M  V30 2 1 2 3
M  V30 3 1 3 4
M  V30 4 1 4 5
M  V30 5 1 5 6
M  V30 6 2 6 7
M  V30 7 1 6 8
M  V30 8 1 8 9
M  V30 9 2 9 10
M  V30 10 1 10 11
M  V30 11 2 11 12
M  V30 12 1 12 13
M  V30 13 2 13 14
M  V30 14 1 14 15
M  V30 15 2 15 16
M  V30 16 1 10 17
M  V30 17 1 17 18
M  V30 18 1 18 3
M  V30 19 2 18 8
M  V30 20 1 16 11
M  V30 21 1 1 19
M  V30 22 1 1 20
M  V30 23 1 1 21
M  V30 24 1 2 22
M  V30 25 1 2 23
M  V30 26 1 3 24
M  V30 27 1 4 25
M  V30 28 1 4 26
M  V30 29 1 5 27
M  V30 30 1 9 28
M  V30 31 1 12 29
M  V30 32 1 13 30
M  V30 33 1 15 31
M  V30 34 1 16 32
M  V30 35 1 17 33
M  V30 END BOND
M  V30 END CTAB
M  END
>  <Dataset>  (957) 
ChEMBL_Kinases

>  <Ligand_Instance>  (957) 
nan

>  <PDB_ID>  (957) 
nan

>  <Standardized_SMILES>  (957) 
CCC1CNC(=O)c2cc(-c3ccncc3)[nH]c21

>  <Name>  (957) 
nan

>  <Pocket>  (957) 
nan

>  <ATP_Site>  (957) 
nan

>  <Peripheral>  (957) 
nan

>  <Num_H_Atoms_ProtBoundConf>  (957) 
nan

>  <Num_Resolved_Atoms>  (957) 
nan

>  <Num_Not_Resolved_Atoms>  (957) 
nan

$$$$
CHEMBL3818233
     RDKit          3D

  0  0  0  0  0  0  0  0  0  0999 V3000
M  V30 BEGIN CTAB
M  V30 COUNTS 55 58 0 0 0
M  V30 BEGIN ATOM
M  V30 1 C 1.755913 -6.556891 5.095638 0
M  V30 2 N 1.499660 -6.342596 3.702977 0
M  V30 3 C 1.308278 -5.019483 3.220024 0
M  V30 4 N 1.373828 -3.995490 4.092941 0
M  V30 5 C 1.196225 -2.724162 3.665596 0
M  V30 6 C 0.946909 -2.472347 2.331533 0
M  V30 7 C 0.754696 -1.201273 1.818847 0
M  V30 8 C 0.506402 -1.022793 0.455646 0
M  V30 9 C 0.334366 0.391158 0.129091 0
M  V30 10 C 1.360861 1.241089 -0.237687 0
M  V30 11 C 1.124705 2.568591 -0.532996 0
M  V30 12 C -0.152253 3.097801 -0.472237 0
M  V30 13 N -0.493870 4.451983 -0.758278 0
M  V30 14 C -0.124309 5.167807 -1.843927 0
M  V30 15 C -0.531617 6.477372 -1.989819 0
M  V30 16 C -1.315904 7.092435 -1.051102 0
M  V30 17 C -1.701369 6.370189 0.065674 0
M  V30 18 C -2.555519 7.005983 1.109808 0
M  V30 19 C -1.274293 5.081628 0.164552 0
M  V30 20 O -1.651881 4.464499 1.200701 0
M  V30 21 C -1.183607 2.229457 -0.100134 0
M  V30 22 C -0.958729 0.888630 0.200197 0
M  V30 23 Cl -2.307593 -0.150444 0.662768 0
M  V30 24 C 0.451293 -2.105470 -0.384437 0
M  V30 25 O 0.224571 -1.830759 -1.575668 0
M  V30 26 N 0.639182 -3.312578 0.133650 0
M  V30 27 C 0.579157 -4.443592 -0.758465 0
M  V30 28 C -0.855620 -4.930872 -0.808703 0
M  V30 29 F -1.313654 -5.314548 0.417262 0
M  V30 30 F -1.698045 -3.941682 -1.300163 0
M  V30 31 C -0.961136 -6.150045 -1.722006 0
M  V30 32 N -0.543140 -5.820794 -3.049504 0
M  V30 33 C 0.882274 -3.530377 1.447656 0
M  V30 34 N 1.063752 -4.783463 1.906340 0
M  V30 35 H 2.000396 -5.592135 5.596629 0
M  V30 36 H 2.559318 -7.312796 5.253492 0
M  V30 37 H 0.846250 -6.943910 5.595047 0
M  V30 38 H 1.456523 -7.161724 3.058865 0
M  V30 39 H 1.245156 -1.886804 4.352119 0
M  V30 40 H 0.817296 -0.400201 2.567760 0
M  V30 41 H 2.359000 0.830466 -0.285936 0
M  V30 42 H 1.911704 3.240378 -0.819225 0
M  V30 43 H 0.492287 4.624652 -2.543809 0
M  V30 44 H -0.218340 7.017865 -2.867697 0
M  V30 45 H -1.657326 8.122173 -1.129895 0
M  V30 46 H -3.317455 6.231392 1.398951 0
M  V30 47 H -1.988603 7.186665 2.057117 0
M  V30 48 H -3.108111 7.873672 0.749335 0
M  V30 49 H -2.226219 2.557682 -0.024641 0
M  V30 50 H 0.959574 -4.209848 -1.755062 0
M  V30 51 H 1.158520 -5.294008 -0.297243 0
M  V30 52 H -0.257574 -6.916292 -1.304503 0
M  V30 53 H -1.989383 -6.562643 -1.695726 0
M  V30 54 H -0.929719 -6.424382 -3.785301 0
M  V30 55 H -0.547743 -4.800102 -3.248806 0
M  V30 END ATOM
M  V30 BEGIN BOND
M  V30 1 1 1 2
M  V30 2 1 2 3
M  V30 3 2 3 4
M  V30 4 1 4 5
M  V30 5 2 5 6
M  V30 6 1 6 7
M  V30 7 2 7 8
M  V30 8 1 8 9
M  V30 9 2 9 10
M  V30 10 1 10 11
M  V30 11 2 11 12
M  V30 12 1 12 13
M  V30 13 1 13 14
M  V30 14 2 14 15
M  V30 15 1 15 16
M  V30 16 2 16 17
M  V30 17 1 17 18
M  V30 18 1 17 19
M  V30 19 2 19 20
M  V30 20 1 12 21
M  V30 21 2 21 22
M  V30 22 1 22 23
M  V30 23 1 8 24
M  V30 24 2 24 25
M  V30 25 1 24 26
M  V30 26 1 26 27
M  V30 27 1 27 28
M  V30 28 1 28 29
M  V30 29 1 28 30
M  V30 30 1 28 31
M  V30 31 1 31 32
M  V30 32 1 26 33
M  V30 33 2 33 34
M  V30 34 1 34 3
M  V30 35 1 33 6
M  V30 36 1 22 9
M  V30 37 1 19 13
M  V30 38 1 1 35
M  V30 39 1 1 36
M  V30 40 1 1 37
M  V30 41 1 2 38
M  V30 42 1 5 39
M  V30 43 1 7 40
M  V30 44 1 10 41
M  V30 45 1 11 42
M  V30 46 1 14 43
M  V30 47 1 15 44
M  V30 48 1 16 45
M  V30 49 1 18 46
M  V30 50 1 18 47
M  V30 51 1 18 48
M  V30 52 1 21 49
M  V30 53 1 27 50
M  V30 54 1 27 51
M  V30 55 1 31 52
M  V30 56 1 31 53
M  V30 57 1 32 54
M  V30 58 1 32 55
M  V30 END BOND
M  V30 END CTAB
M  END
>  <Dataset>  (958) 
ChEMBL_Kinases

>  <Ligand_Instance>  (958) 
nan

>  <PDB_ID>  (958) 
nan

>  <Standardized_SMILES>  (958) 
CNc1ncc2cc(-c3ccc(-n4cccc(C)c4=O)cc3Cl)c(=O)n(CC(F)(F)CN)c2n1

>  <Name>  (958) 
nan

>  <Pocket>  (958) 
nan

>  <ATP_Site>  (958) 
nan

>  <Peripheral>  (958) 
nan

>  <Num_H_Atoms_ProtBoundConf>  (958) 
nan

>  <Num_Resolved_Atoms>  (958) 
nan

>  <Num_Not_Resolved_Atoms>  (958) 
nan

$$$$
CHEMBL3818217
     RDKit          3D

  0  0  0  0  0  0  0  0  0  0999 V3000
M  V30 BEGIN CTAB
M  V30 COUNTS 55 58 0 0 0
M  V30 BEGIN ATOM
M  V30 1 C -0.586070 -7.837393 2.032031 0
M  V30 2 N 0.738230 -7.270305 1.815178 0
M  V30 3 C 0.811313 -5.843585 1.877248 0
M  V30 4 N 1.056688 -5.156164 3.021372 0
M  V30 5 C 1.116083 -3.803823 3.027504 0
M  V30 6 C 0.913273 -3.162189 1.805599 0
M  V30 7 C 0.977425 -1.783427 1.820575 0
M  V30 8 C 0.782804 -1.100008 0.622160 0
M  V30 9 C 0.857666 0.355385 0.675715 0
M  V30 10 C 1.978956 1.140576 0.503825 0
M  V30 11 C 1.902139 2.514157 0.581769 0
M  V30 12 C 0.700321 3.135759 0.833831 0
M  V30 13 N 0.569542 4.568480 0.924541 0
M  V30 14 C 0.679194 5.484644 2.050129 0
M  V30 15 C -0.373467 6.529103 1.780197 0
M  V30 16 N -0.396424 6.567022 0.322137 0
M  V30 17 C -1.008823 7.615498 -0.469158 0
M  V30 18 C 0.279895 5.407729 -0.199067 0
M  V30 19 O 0.565402 5.173476 -1.421666 0
M  V30 20 C -0.435018 2.369563 1.009210 0
M  V30 21 C -0.342805 0.987598 0.928020 0
M  V30 22 Cl -1.852826 0.132950 1.168917 0
M  V30 23 C 0.535172 -1.825858 -0.524304 0
M  V30 24 O 0.363243 -1.190994 -1.590455 0
M  V30 25 N 0.473149 -3.174541 -0.534635 0
M  V30 26 C 0.218559 -3.888731 -1.742901 0
M  V30 27 C -1.212281 -4.147268 -2.068381 0
M  V30 28 C -1.964714 -4.949826 -1.046125 0
M  V30 29 N -3.346927 -5.109696 -1.529876 0
M  V30 30 C 0.660864 -3.861099 0.627144 0
M  V30 31 N 0.617271 -5.212412 0.704379 0
M  V30 32 H -1.234387 -7.488283 1.186751 0
M  V30 33 H -0.558265 -8.935920 2.095310 0
M  V30 34 H -0.981445 -7.369775 2.956987 0
M  V30 35 H 1.725342 -7.569045 1.615277 0
M  V30 36 H 1.311289 -3.283069 3.943656 0
M  V30 37 H 1.170293 -1.259152 2.723565 0
M  V30 38 H 2.893169 0.600824 0.308985 0
M  V30 39 H 2.775792 3.114356 0.447305 0
M  V30 40 H 1.664066 5.979337 2.077367 0
M  V30 41 H 0.425614 4.998031 3.008882 0
M  V30 42 H -0.034854 7.525448 2.155839 0
M  V30 43 H -1.371508 6.264445 2.174618 0
M  V30 44 H -0.431573 7.843110 -1.386782 0
M  V30 45 H -1.110843 8.523093 0.155342 0
M  V30 46 H -2.044375 7.284285 -0.759782 0
M  V30 47 H -1.378895 2.889626 1.208645 0
M  V30 48 H 0.712635 -4.899102 -1.654859 0
M  V30 49 H 0.678995 -3.421765 -2.634590 0
M  V30 50 H -1.766723 -3.241314 -2.389104 0
M  V30 51 H -1.203704 -4.788957 -2.999812 0
M  V30 52 H -1.567490 -5.976766 -0.930534 0
M  V30 53 H -1.970732 -4.489956 -0.034062 0
M  V30 54 H -3.270012 -5.700177 -2.389558 0
M  V30 55 H -3.765140 -4.204833 -1.777117 0
M  V30 END ATOM
M  V30 BEGIN BOND
M  V30 1 1 1 2
M  V30 2 1 2 3
M  V30 3 2 3 4
M  V30 4 1 4 5
M  V30 5 2 5 6
M  V30 6 1 6 7
M  V30 7 2 7 8
M  V30 8 1 8 9
M  V30 9 2 9 10
M  V30 10 1 10 11
M  V30 11 2 11 12
M  V30 12 1 12 13
M  V30 13 1 13 14
M  V30 14 1 14 15
M  V30 15 1 15 16
M  V30 16 1 16 17
M  V30 17 1 16 18
M  V30 18 2 18 19
M  V30 19 1 12 20
M  V30 20 2 20 21
M  V30 21 1 21 22
M  V30 22 1 8 23
M  V30 23 2 23 24
M  V30 24 1 23 25
M  V30 25 1 25 26
M  V30 26 1 26 27
M  V30 27 1 27 28
M  V30 28 1 28 29
M  V30 29 1 25 30
M  V30 30 2 30 31
M  V30 31 1 31 3
M  V30 32 1 30 6
M  V30 33 1 21 9
M  V30 34 1 18 13
M  V30 35 1 1 32
M  V30 36 1 1 33
M  V30 37 1 1 34
M  V30 38 1 2 35
M  V30 39 1 5 36
M  V30 40 1 7 37
M  V30 41 1 10 38
M  V30 42 1 11 39
M  V30 43 1 14 40
M  V30 44 1 14 41
M  V30 45 1 15 42
M  V30 46 1 15 43
M  V30 47 1 17 44
M  V30 48 1 17 45
M  V30 49 1 17 46
M  V30 50 1 20 47
M  V30 51 1 26 48
M  V30 52 1 26 49
M  V30 53 1 27 50
M  V30 54 1 27 51
M  V30 55 1 28 52
M  V30 56 1 28 53
M  V30 57 1 29 54
M  V30 58 1 29 55
M  V30 END BOND
M  V30 END CTAB
M  END
>  <Dataset>  (959) 
ChEMBL_Kinases

>  <Ligand_Instance>  (959) 
nan

>  <PDB_ID>  (959) 
nan

>  <Standardized_SMILES>  (959) 
CNc1ncc2cc(-c3ccc(N4CCN(C)C4=O)cc3Cl)c(=O)n(CCCN)c2n1

>  <Name>  (959) 
nan

>  <Pocket>  (959) 
nan

>  <ATP_Site>  (959) 
nan

>  <Peripheral>  (959) 
nan

>  <Num_H_Atoms_ProtBoundConf>  (959) 
nan

>  <Num_Resolved_Atoms>  (959) 
nan

>  <Num_Not_Resolved_Atoms>  (959) 
nan

$$$$
CHEMBL592977
     RDKit          3D

  0  0  0  0  0  0  0  0  0  0999 V3000
M  V30 BEGIN CTAB
M  V30 COUNTS 40 43 0 0 0
M  V30 BEGIN ATOM
M  V30 1 C 1.053336 -3.547281 2.364323 0
M  V30 2 N 0.166133 -2.383258 2.496896 0
M  V30 3 C 0.248010 -1.298979 1.705224 0
M  V30 4 C 1.170736 -1.016820 0.589331 0
M  V30 5 C 2.528163 -0.895395 0.580732 0
M  V30 6 C 3.177558 -0.628388 -0.594590 0
M  V30 7 C 2.457740 -0.481525 -1.774128 0
M  V30 8 N 3.129394 -0.220519 -2.905850 0
M  V30 9 C 2.474439 -0.068725 -4.082059 0
M  V30 10 C 1.086066 -0.188202 -4.099540 0
M  V30 11 N 0.441592 -0.446559 -2.969420 0
M  V30 12 C 1.087393 -0.598499 -1.796869 0
M  V30 13 C 0.443020 -0.869429 -0.596968 0
M  V30 14 C -0.747184 -0.433171 2.141432 0
M  V30 15 C -1.022718 0.883182 1.559350 0
M  V30 16 C 0.063312 1.725567 1.707970 0
M  V30 17 C 0.018350 3.035845 1.223821 0
M  V30 18 C -1.148335 3.429192 0.602741 0
M  V30 19 C -2.244858 2.596246 0.446356 0
M  V30 20 Cl -3.727658 3.095313 -0.342688 0
M  V30 21 C -2.173216 1.313907 0.931618 0
M  V30 22 C -1.413648 -1.024134 3.199321 0
M  V30 23 O -2.383046 -0.537999 3.857687 0
M  V30 24 N -0.809276 -2.217175 3.370828 0
M  V30 25 C -1.223679 -3.167203 4.409395 0
M  V30 26 H 0.559790 -4.216464 1.624467 0
M  V30 27 H 2.036367 -3.242585 1.959307 0
M  V30 28 H 1.228286 -4.016626 3.339220 0
M  V30 29 H 2.956823 -1.033533 1.569167 0
M  V30 30 H 4.271268 -0.544182 -0.524618 0
M  V30 31 H 2.969220 0.142372 -5.022284 0
M  V30 32 H 0.577636 -0.065381 -5.038267 0
M  V30 33 H -0.644128 -0.943454 -0.720359 0
M  V30 34 H 1.015646 1.485827 2.185888 0
M  V30 35 H 0.812103 3.738759 1.301358 0
M  V30 36 H -1.222280 4.432531 0.215643 0
M  V30 37 H -2.949023 0.565071 0.877539 0
M  V30 38 H -1.150650 -2.680003 5.389652 0
M  V30 39 H -2.295070 -3.441134 4.184823 0
M  V30 40 H -0.614134 -4.085635 4.339379 0
M  V30 END ATOM
M  V30 BEGIN BOND
M  V30 1 1 1 2
M  V30 2 1 2 3
M  V30 3 1 3 4
M  V30 4 2 4 5
M  V30 5 1 5 6
M  V30 6 2 6 7
M  V30 7 1 7 8
M  V30 8 2 8 9
M  V30 9 1 9 10
M  V30 10 2 10 11
M  V30 11 1 11 12
M  V30 12 2 12 13
M  V30 13 2 3 14
M  V30 14 1 14 15
M  V30 15 2 15 16
M  V30 16 1 16 17
M  V30 17 2 17 18
M  V30 18 1 18 19
M  V30 19 1 19 20
M  V30 20 2 19 21
M  V30 21 1 14 22
M  V30 22 2 22 23
M  V30 23 1 22 24
M  V30 24 1 24 25
M  V30 25 1 24 2
M  V30 26 1 13 4
M  V30 27 1 21 15
M  V30 28 1 12 7
M  V30 29 1 1 26
M  V30 30 1 1 27
M  V30 31 1 1 28
M  V30 32 1 5 29
M  V30 33 1 6 30
M  V30 34 1 9 31
M  V30 35 1 10 32
M  V30 36 1 13 33
M  V30 37 1 16 34
M  V30 38 1 17 35
M  V30 39 1 18 36
M  V30 40 1 21 37
M  V30 41 1 25 38
M  V30 42 1 25 39
M  V30 43 1 25 40
M  V30 END BOND
M  V30 END CTAB
M  END
>  <Dataset>  (960) 
ChEMBL_Kinases

>  <Ligand_Instance>  (960) 
nan

>  <PDB_ID>  (960) 
nan

>  <Standardized_SMILES>  (960) 
Cn1c(-c2ccc3nccnc3c2)c(-c2cccc(Cl)c2)c(=O)n1C

>  <Name>  (960) 
nan

>  <Pocket>  (960) 
nan

>  <ATP_Site>  (960) 
nan

>  <Peripheral>  (960) 
nan

>  <Num_H_Atoms_ProtBoundConf>  (960) 
nan

>  <Num_Resolved_Atoms>  (960) 
nan

>  <Num_Not_Resolved_Atoms>  (960) 
nan

$$$$
CHEMBL3818138
     RDKit          3D

  0  0  0  0  0  0  0  0  0  0999 V3000
M  V30 BEGIN CTAB
M  V30 COUNTS 51 54 0 0 0
M  V30 BEGIN ATOM
M  V30 1 C 1.120271 -6.178267 5.989761 0
M  V30 2 N 0.530102 -6.232924 4.668747 0
M  V30 3 C 0.509569 -5.021877 3.883742 0
M  V30 4 N 1.680147 -4.759422 3.279114 0
M  V30 5 C 1.792748 -3.661728 2.511171 0
M  V30 6 C 0.699623 -2.834816 2.367123 0
M  V30 7 C 0.704848 -1.670872 1.591411 0
M  V30 8 C -0.423205 -0.856597 1.465872 0
M  V30 9 C -0.104803 0.268640 0.600755 0
M  V30 10 C 0.423909 1.477393 0.988274 0
M  V30 11 C 0.726534 2.506755 0.116492 0
M  V30 12 C 0.497300 2.347790 -1.233095 0
M  V30 13 N 0.799407 3.368587 -2.167492 0
M  V30 14 C 0.546300 4.689015 -2.032620 0
M  V30 15 C 0.873175 5.627708 -2.985567 0
M  V30 16 C 1.489935 5.190158 -4.136489 0
M  V30 17 C 1.772507 3.872754 -4.333602 0
M  V30 18 C 2.438117 3.346081 -5.576503 0
M  V30 19 C 1.412362 2.980775 -3.322718 0
M  V30 20 O 1.695538 1.777837 -3.552603 0
M  V30 21 C -0.036745 1.128060 -1.621918 0
M  V30 22 C -0.348586 0.078333 -0.765398 0
M  V30 23 Cl -1.025352 -1.421920 -1.356089 0
M  V30 24 C -1.574375 -1.207409 2.122546 0
M  V30 25 O -2.521265 -0.421042 1.949557 0
M  V30 26 N -1.575805 -2.318977 2.861559 0
M  V30 27 C -2.776947 -2.721655 3.557876 0
M  V30 28 C -3.583452 -3.638686 2.630009 0
M  V30 29 O -4.745895 -4.075238 3.265868 0
M  V30 30 C -0.508292 -3.119752 3.000694 0
M  V30 31 N -0.583899 -4.230591 3.763612 0
M  V30 32 H 1.657018 -5.221348 6.178775 0
M  V30 33 H 0.365187 -6.340796 6.752554 0
M  V30 34 H 1.889506 -6.989821 6.112854 0
M  V30 35 H 0.174746 -7.209897 4.452808 0
M  V30 36 H 2.713573 -3.401717 1.997932 0
M  V30 37 H 1.696348 -1.523218 1.131913 0
M  V30 38 H 0.589791 1.571688 2.053829 0
M  V30 39 H 1.143658 3.425785 0.502237 0
M  V30 40 H 0.052724 4.961563 -1.088087 0
M  V30 41 H 0.644214 6.669281 -2.823697 0
M  V30 42 H 1.759790 5.898762 -4.899590 0
M  V30 43 H 1.772951 2.519580 -5.932499 0
M  V30 44 H 2.556662 4.148791 -6.326181 0
M  V30 45 H 3.424322 2.891251 -5.350642 0
M  V30 46 H -0.258248 0.913512 -2.677358 0
M  V30 47 H -3.370948 -1.852134 3.829948 0
M  V30 48 H -2.534136 -3.349972 4.441160 0
M  V30 49 H -2.993995 -4.494172 2.276449 0
M  V30 50 H -3.915738 -3.081232 1.725265 0
M  V30 51 H -5.023493 -4.950724 2.836901 0
M  V30 END ATOM
M  V30 BEGIN BOND
M  V30 1 1 1 2
M  V30 2 1 2 3
M  V30 3 2 3 4
M  V30 4 1 4 5
M  V30 5 2 5 6
M  V30 6 1 6 7
M  V30 7 2 7 8
M  V30 8 1 8 9
M  V30 9 2 9 10
M  V30 10 1 10 11
M  V30 11 2 11 12
M  V30 12 1 12 13
M  V30 13 1 13 14
M  V30 14 2 14 15
M  V30 15 1 15 16
M  V30 16 2 16 17
M  V30 17 1 17 18
M  V30 18 1 17 19
M  V30 19 2 19 20
M  V30 20 1 12 21
M  V30 21 2 21 22
M  V30 22 1 22 23
M  V30 23 1 8 24
M  V30 24 2 24 25
M  V30 25 1 24 26
M  V30 26 1 26 27
M  V30 27 1 27 28
M  V30 28 1 28 29
M  V30 29 1 26 30
M  V30 30 2 30 31
M  V30 31 1 31 3
M  V30 32 1 30 6
M  V30 33 1 22 9
M  V30 34 1 19 13
M  V30 35 1 1 32
M  V30 36 1 1 33
M  V30 37 1 1 34
M  V30 38 1 2 35
M  V30 39 1 5 36
M  V30 40 1 7 37
M  V30 41 1 10 38
M  V30 42 1 11 39
M  V30 43 1 14 40
M  V30 44 1 15 41
M  V30 45 1 16 42
M  V30 46 1 18 43
M  V30 47 1 18 44
M  V30 48 1 18 45
M  V30 49 1 21 46
M  V30 50 1 27 47
M  V30 51 1 27 48
M  V30 52 1 28 49
M  V30 53 1 28 50
M  V30 54 1 29 51
M  V30 END BOND
M  V30 END CTAB
M  END
>  <Dataset>  (961) 
ChEMBL_Kinases

>  <Ligand_Instance>  (961) 
nan

>  <PDB_ID>  (961) 
nan

>  <Standardized_SMILES>  (961) 
CNc1ncc2cc(-c3ccc(-n4cccc(C)c4=O)cc3Cl)c(=O)n(CCO)c2n1

>  <Name>  (961) 
nan

>  <Pocket>  (961) 
nan

>  <ATP_Site>  (961) 
nan

>  <Peripheral>  (961) 
nan

>  <Num_H_Atoms_ProtBoundConf>  (961) 
nan

>  <Num_Resolved_Atoms>  (961) 
nan

>  <Num_Not_Resolved_Atoms>  (961) 
nan

$$$$
CHEMBL3818088
     RDKit          3D

  0  0  0  0  0  0  0  0  0  0999 V3000
M  V30 BEGIN CTAB
M  V30 COUNTS 42 44 0 0 0
M  V30 BEGIN ATOM
M  V30 1 C 1.110591 -5.105346 3.072293 0
M  V30 2 N 2.271748 -4.388347 2.601376 0
M  V30 3 C 2.228141 -3.195397 1.829059 0
M  V30 4 N 3.358309 -2.577590 1.421629 0
M  V30 5 C 3.336241 -1.448788 0.690393 0
M  V30 6 C 2.162506 -0.860418 0.316586 0
M  V30 7 C 2.072244 0.283112 -0.431505 0
M  V30 8 C 0.824966 0.735194 -0.723873 0
M  V30 9 C 0.726049 1.956987 -1.523484 0
M  V30 10 C 0.665817 2.071172 -2.901161 0
M  V30 11 C 0.574085 3.329101 -3.466361 0
M  V30 12 C 0.540751 4.480464 -2.690015 0
M  V30 13 C 0.600207 4.378212 -1.315263 0
M  V30 14 C 0.692671 3.109713 -0.746299 0
M  V30 15 Cl 0.761881 3.105033 1.015701 0
M  V30 16 C -0.299399 0.057250 -0.276775 0
M  V30 17 O -1.401709 0.599264 -0.628553 0
M  V30 18 N -0.219082 -1.085464 0.471234 0
M  V30 19 C -1.505464 -1.613451 0.806331 0
M  V30 20 C -2.072359 -1.040873 2.059395 0
M  V30 21 C -1.295148 -1.273143 3.304210 0
M  V30 22 N -1.146642 -2.654492 3.642047 0
M  V30 23 C 1.021545 -1.493406 0.734240 0
M  V30 24 N 1.092489 -2.606060 1.454565 0
M  V30 25 H 0.944563 -4.883061 4.146202 0
M  V30 26 H 0.178017 -4.858676 2.535661 0
M  V30 27 H 1.230471 -6.211527 2.942458 0
M  V30 28 H 3.205608 -4.779515 2.849410 0
M  V30 29 H 4.274425 -0.986888 0.385201 0
M  V30 30 H 2.985956 0.758716 -0.745299 0
M  V30 31 H 0.697181 1.138644 -3.418460 0
M  V30 32 H 0.529446 3.369713 -4.549621 0
M  V30 33 H 0.468116 5.461694 -3.158722 0
M  V30 34 H 0.573158 5.286025 -0.722609 0
M  V30 35 H -1.369275 -2.705569 0.974757 0
M  V30 36 H -2.265124 -1.428378 0.001386 0
M  V30 37 H -3.100248 -1.484234 2.226677 0
M  V30 38 H -2.246690 0.069056 1.948582 0
M  V30 39 H -1.853986 -0.764671 4.131396 0
M  V30 40 H -0.309733 -0.759555 3.258929 0
M  V30 41 H -0.266905 -2.812175 4.195065 0
M  V30 42 H -1.910527 -2.964868 4.314930 0
M  V30 END ATOM
M  V30 BEGIN BOND
M  V30 1 1 1 2
M  V30 2 1 2 3
M  V30 3 2 3 4
M  V30 4 1 4 5
M  V30 5 2 5 6
M  V30 6 1 6 7
M  V30 7 2 7 8
M  V30 8 1 8 9
M  V30 9 2 9 10
M  V30 10 1 10 11
M  V30 11 2 11 12
M  V30 12 1 12 13
M  V30 13 2 13 14
M  V30 14 1 14 15
M  V30 15 1 8 16
M  V30 16 2 16 17
M  V30 17 1 16 18
M  V30 18 1 18 19
M  V30 19 1 19 20
M  V30 20 1 20 21
M  V30 21 1 21 22
M  V30 22 1 18 23
M  V30 23 2 23 24
M  V30 24 1 24 3
M  V30 25 1 23 6
M  V30 26 1 14 9
M  V30 27 1 1 25
M  V30 28 1 1 26
M  V30 29 1 1 27
M  V30 30 1 2 28
M  V30 31 1 5 29
M  V30 32 1 7 30
M  V30 33 1 10 31
M  V30 34 1 11 32
M  V30 35 1 12 33
M  V30 36 1 13 34
M  V30 37 1 19 35
M  V30 38 1 19 36
M  V30 39 1 20 37
M  V30 40 1 20 38
M  V30 41 1 21 39
M  V30 42 1 21 40
M  V30 43 1 22 41
M  V30 44 1 22 42
M  V30 END BOND
M  V30 END CTAB
M  END
>  <Dataset>  (962) 
ChEMBL_Kinases

>  <Ligand_Instance>  (962) 
nan

>  <PDB_ID>  (962) 
nan

>  <Standardized_SMILES>  (962) 
CNc1ncc2cc(-c3ccccc3Cl)c(=O)n(CCCN)c2n1

>  <Name>  (962) 
nan

>  <Pocket>  (962) 
nan

>  <ATP_Site>  (962) 
nan

>  <Peripheral>  (962) 
nan

>  <Num_H_Atoms_ProtBoundConf>  (962) 
nan

>  <Num_Resolved_Atoms>  (962) 
nan

>  <Num_Not_Resolved_Atoms>  (962) 
nan

$$$$
CHEMBL3819164
     RDKit          3D

  0  0  0  0  0  0  0  0  0  0999 V3000
M  V30 BEGIN CTAB
M  V30 COUNTS 68 73 0 0 0
M  V30 BEGIN ATOM
M  V30 1 O 5.411412 1.297827 3.846370 0
M  V30 2 C 5.315724 1.754217 2.654450 0
M  V30 3 N 6.593181 2.146817 2.180718 0
M  V30 4 C 7.816028 2.038869 2.949122 0
M  V30 5 C 8.654880 3.300287 2.923205 0
M  V30 6 C 9.129200 2.016318 2.258613 0
M  V30 7 C 4.054521 1.835678 1.936618 0
M  V30 8 C 2.954542 1.365856 2.643262 0
M  V30 9 C 1.681910 1.365921 2.115418 0
M  V30 10 C 1.445332 1.840974 0.841537 0
M  V30 11 C 0.080891 1.822025 0.318416 0
M  V30 12 C -0.617726 2.791364 -0.369812 0
M  V30 13 N -1.808790 2.207803 -0.584255 0
M  V30 14 N -1.873027 0.993336 -0.088572 0
M  V30 15 C -2.895013 0.085830 -0.098200 0
M  V30 16 N -4.169491 0.378633 -0.678593 0
M  V30 17 C -5.352487 -0.357125 -0.949569 0
M  V30 18 C -5.301818 -1.304764 -2.112808 0
M  V30 19 C -4.994723 -0.554788 -3.392716 0
M  V30 20 C -3.523115 -0.607510 -3.738745 0
M  V30 21 O -3.249025 -1.976267 -3.934304 0
M  V30 22 C -3.186283 -2.523866 -2.668590 0
M  V30 23 C -4.509129 -2.539749 -1.943058 0
M  V30 24 N -2.618087 -1.077746 0.508950 0
M  V30 25 C -1.497464 -1.436794 1.101175 0
M  V30 26 N -1.213245 -2.646606 1.748281 0
M  V30 27 C -2.100680 -3.773314 1.899221 0
M  V30 28 C -2.489139 -4.419255 0.611921 0
M  V30 29 C -1.766876 -5.751379 0.541994 0
M  V30 30 C -1.013213 -5.919361 1.838937 0
M  V30 31 C -1.579203 -4.877128 2.750869 0
M  V30 32 N -0.539146 -0.495188 1.070873 0
M  V30 33 C -0.705001 0.700094 0.492902 0
M  V30 34 C 2.525486 2.310879 0.126953 0
M  V30 35 C 3.791175 2.304247 0.668209 0
M  V30 36 F 4.862135 2.759075 -0.011167 0
M  V30 37 H 6.681949 2.533218 1.241111 0
M  V30 38 H 7.710067 1.618056 3.975806 0
M  V30 39 H 9.183153 3.630992 3.828210 0
M  V30 40 H 8.416114 4.092733 2.180797 0
M  V30 41 H 9.948263 1.500093 2.798623 0
M  V30 42 H 9.106862 1.926414 1.160543 0
M  V30 43 H 3.044822 0.969265 3.661679 0
M  V30 44 H 0.855620 0.996554 2.686631 0
M  V30 45 H -0.231357 3.765114 -0.636299 0
M  V30 46 H -4.225506 1.390981 -0.972722 0
M  V30 47 H -5.612605 -0.933976 -0.000091 0
M  V30 48 H -6.187175 0.362736 -1.164327 0
M  V30 49 H -6.379811 -1.641516 -2.252979 0
M  V30 50 H -5.530092 -1.018586 -4.253437 0
M  V30 51 H -5.377666 0.482508 -3.292999 0
M  V30 52 H -3.378844 -0.055771 -4.690860 0
M  V30 53 H -2.872201 -0.138798 -2.991244 0
M  V30 54 H -2.357547 -2.087211 -2.077864 0
M  V30 55 H -2.887611 -3.603463 -2.809383 0
M  V30 56 H -5.070811 -3.469066 -2.276653 0
M  V30 57 H -4.316230 -2.726729 -0.873520 0
M  V30 58 H -0.281204 -2.810643 2.185795 0
M  V30 59 H -3.034342 -3.402824 2.377273 0
M  V30 60 H -3.573598 -4.644747 0.595038 0
M  V30 61 H -2.252604 -3.786696 -0.269508 0
M  V30 62 H -1.027903 -5.698906 -0.305025 0
M  V30 63 H -2.435675 -6.601881 0.332187 0
M  V30 64 H -1.178909 -6.953827 2.223962 0
M  V30 65 H 0.079317 -5.712836 1.737738 0
M  V30 66 H -2.442010 -5.374775 3.283648 0
M  V30 67 H -0.889397 -4.534745 3.548651 0
M  V30 68 H 2.385970 2.692256 -0.873643 0
M  V30 END ATOM
M  V30 BEGIN BOND
M  V30 1 2 1 2
M  V30 2 1 2 3
M  V30 3 1 3 4
M  V30 4 1 4 5
M  V30 5 1 5 6
M  V30 6 1 2 7
M  V30 7 2 7 8
M  V30 8 1 8 9
M  V30 9 2 9 10
M  V30 10 1 10 11
M  V30 11 1 11 12
M  V30 12 2 12 13
M  V30 13 1 13 14
M  V30 14 1 14 15
M  V30 15 1 15 16
M  V30 16 1 16 17
M  V30 17 1 17 18
M  V30 18 1 18 19
M  V30 19 1 19 20
M  V30 20 1 20 21
M  V30 21 1 21 22
M  V30 22 1 22 23
M  V30 23 2 15 24
M  V30 24 1 24 25
M  V30 25 1 25 26
M  V30 26 1 26 27
M  V30 27 1 27 28
M  V30 28 1 28 29
M  V30 29 1 29 30
M  V30 30 1 30 31
M  V30 31 2 25 32
M  V30 32 1 32 33
M  V30 33 1 10 34
M  V30 34 2 34 35
M  V30 35 1 35 36
M  V30 36 1 6 4
M  V30 37 1 35 7
M  V30 38 2 33 11
M  V30 39 1 33 14
M  V30 40 1 23 18
M  V30 41 1 31 27
M  V30 42 1 3 37
M  V30 43 1 4 38
M  V30 44 1 5 39
M  V30 45 1 5 40
M  V30 46 1 6 41
M  V30 47 1 6 42
M  V30 48 1 8 43
M  V30 49 1 9 44
M  V30 50 1 12 45
M  V30 51 1 16 46
M  V30 52 1 17 47
M  V30 53 1 17 48
M  V30 54 1 18 49
M  V30 55 1 19 50
M  V30 56 1 19 51
M  V30 57 1 20 52
M  V30 58 1 20 53
M  V30 59 1 22 54
M  V30 60 1 22 55
M  V30 61 1 23 56
M  V30 62 1 23 57
M  V30 63 1 26 58
M  V30 64 1 27 59
M  V30 65 1 28 60
M  V30 66 1 28 61
M  V30 67 1 29 62
M  V30 68 1 29 63
M  V30 69 1 30 64
M  V30 70 1 30 65
M  V30 71 1 31 66
M  V30 72 1 31 67
M  V30 73 1 34 68
M  V30 END BOND
M  V30 END CTAB
M  END
>  <Dataset>  (963) 
ChEMBL_Kinases

>  <Ligand_Instance>  (963) 
nan

>  <PDB_ID>  (963) 
nan

>  <Standardized_SMILES>  (963) 
O=C(NC1CC1)c1ccc(-c2cnn3c(NCC4CCOCC4)nc(NC4CCCC4)nc23)cc1F

>  <Name>  (963) 
nan

>  <Pocket>  (963) 
nan

>  <ATP_Site>  (963) 
nan

>  <Peripheral>  (963) 
nan

>  <Num_H_Atoms_ProtBoundConf>  (963) 
nan

>  <Num_Resolved_Atoms>  (963) 
nan

>  <Num_Not_Resolved_Atoms>  (963) 
nan

$$$$
CHEMBL3818046
     RDKit          3D

  0  0  0  0  0  0  0  0  0  0999 V3000
M  V30 BEGIN CTAB
M  V30 COUNTS 54 57 0 0 0
M  V30 BEGIN ATOM
M  V30 1 C 4.335623 4.047366 3.371314 0
M  V30 2 N 4.740922 2.662501 3.396267 0
M  V30 3 C 3.738011 1.734348 2.999473 0
M  V30 4 N 3.146430 0.992685 3.972406 0
M  V30 5 C 2.170950 0.100443 3.669315 0
M  V30 6 C 1.793432 -0.034375 2.350949 0
M  V30 7 C 0.798402 -0.900065 1.881694 0
M  V30 8 C 0.475021 -0.966631 0.529325 0
M  V30 9 C -0.618251 -1.947906 0.394502 0
M  V30 10 C -0.647367 -3.303303 0.195910 0
M  V30 11 C -1.851038 -3.960885 0.149469 0
M  V30 12 C -3.028495 -3.271963 0.299620 0
M  V30 13 C -4.333959 -3.953632 0.280388 0
M  V30 14 C -4.462928 -5.314066 0.116683 0
M  V30 15 C -5.716701 -5.901009 0.111561 0
M  V30 16 C -6.854272 -5.139194 0.268750 0
M  V30 17 C -6.706912 -3.782430 0.430588 0
M  V30 18 C -7.765011 -2.724233 0.620067 0
M  V30 19 N -5.471644 -3.258581 0.429196 0
M  V30 20 C -3.036297 -1.887341 0.502224 0
M  V30 21 C -1.806424 -1.218497 0.549217 0
M  V30 22 Cl -1.996161 0.516669 0.804823 0
M  V30 23 C 1.130459 -0.177702 -0.389282 0
M  V30 24 O 0.710089 -0.373546 -1.555512 0
M  V30 25 N 2.077649 0.649734 0.060738 0
M  V30 26 C 2.719427 1.473098 -0.940762 0
M  V30 27 C 3.972488 0.863948 -1.527777 0
M  V30 28 C 4.580611 1.800088 -2.571471 0
M  V30 29 N 3.707846 2.070412 -3.666792 0
M  V30 30 C 2.409776 0.735889 1.355745 0
M  V30 31 N 3.384523 1.617005 1.707455 0
M  V30 32 H 4.473990 4.504405 2.365590 0
M  V30 33 H 3.240448 4.133845 3.574521 0
M  V30 34 H 4.888213 4.612582 4.141892 0
M  V30 35 H 5.709322 2.378918 3.699594 0
M  V30 36 H 1.656354 -0.518902 4.399329 0
M  V30 37 H 0.377500 -1.450782 2.720824 0
M  V30 38 H 0.341760 -3.679400 0.099318 0
M  V30 39 H -1.803786 -5.020972 -0.012122 0
M  V30 40 H -3.602229 -5.926609 -0.004438 0
M  V30 41 H -5.884705 -6.956440 -0.012275 0
M  V30 42 H -7.886332 -5.467053 0.281441 0
M  V30 43 H -7.737023 -2.341960 1.679461 0
M  V30 44 H -7.648189 -1.900711 -0.122317 0
M  V30 45 H -8.780044 -3.191828 0.510068 0
M  V30 46 H -4.003077 -1.395036 0.611856 0
M  V30 47 H 2.943346 2.450884 -0.470672 0
M  V30 48 H 2.031292 1.623144 -1.837454 0
M  V30 49 H 4.721850 0.674942 -0.760428 0
M  V30 50 H 3.764743 -0.072651 -2.082347 0
M  V30 51 H 5.480467 1.274997 -2.959558 0
M  V30 52 H 4.881679 2.761443 -2.112762 0
M  V30 53 H 2.946452 2.732199 -3.511323 0
M  V30 54 H 4.182729 2.102706 -4.585579 0
M  V30 END ATOM
M  V30 BEGIN BOND
M  V30 1 1 1 2
M  V30 2 1 2 3
M  V30 3 2 3 4
M  V30 4 1 4 5
M  V30 5 2 5 6
M  V30 6 1 6 7
M  V30 7 2 7 8
M  V30 8 1 8 9
M  V30 9 2 9 10
M  V30 10 1 10 11
M  V30 11 2 11 12
M  V30 12 1 12 13
M  V30 13 2 13 14
M  V30 14 1 14 15
M  V30 15 2 15 16
M  V30 16 1 16 17
M  V30 17 1 17 18
M  V30 18 2 17 19
M  V30 19 1 12 20
M  V30 20 2 20 21
M  V30 21 1 21 22
M  V30 22 1 8 23
M  V30 23 2 23 24
M  V30 24 1 23 25
M  V30 25 1 25 26
M  V30 26 1 26 27
M  V30 27 1 27 28
M  V30 28 1 28 29
M  V30 29 1 25 30
M  V30 30 2 30 31
M  V30 31 1 31 3
M  V30 32 1 30 6
M  V30 33 1 21 9
M  V30 34 1 19 13
M  V30 35 1 1 32
M  V30 36 1 1 33
M  V30 37 1 1 34
M  V30 38 1 2 35
M  V30 39 1 5 36
M  V30 40 1 7 37
M  V30 41 1 10 38
M  V30 42 1 11 39
M  V30 43 1 14 40
M  V30 44 1 15 41
M  V30 45 1 16 42
M  V30 46 1 18 43
M  V30 47 1 18 44
M  V30 48 1 18 45
M  V30 49 1 20 46
M  V30 50 1 26 47
M  V30 51 1 26 48
M  V30 52 1 27 49
M  V30 53 1 27 50
M  V30 54 1 28 51
M  V30 55 1 28 52
M  V30 56 1 29 53
M  V30 57 1 29 54
M  V30 END BOND
M  V30 END CTAB
M  END
>  <Dataset>  (964) 
ChEMBL_Kinases

>  <Ligand_Instance>  (964) 
nan

>  <PDB_ID>  (964) 
nan

>  <Standardized_SMILES>  (964) 
CNc1ncc2cc(-c3ccc(-c4cccc(C)n4)cc3Cl)c(=O)n(CCCN)c2n1

>  <Name>  (964) 
nan

>  <Pocket>  (964) 
nan

>  <ATP_Site>  (964) 
nan

>  <Peripheral>  (964) 
nan

>  <Num_H_Atoms_ProtBoundConf>  (964) 
nan

>  <Num_Resolved_Atoms>  (964) 
nan

>  <Num_Not_Resolved_Atoms>  (964) 
nan

$$$$
CHEMBL3818025
     RDKit          3D

  0  0  0  0  0  0  0  0  0  0999 V3000
M  V30 BEGIN CTAB
M  V30 COUNTS 69 74 0 0 0
M  V30 BEGIN ATOM
M  V30 1 O 6.682823 0.295091 0.702703 0
M  V30 2 C 5.937911 0.696377 1.631737 0
M  V30 3 N 6.227087 0.936859 3.019165 0
M  V30 4 C 7.561816 0.701884 3.490246 0
M  V30 5 C 7.639499 0.043825 4.854991 0
M  V30 6 C 8.119213 1.458640 4.639463 0
M  V30 7 C 4.624525 0.895966 1.028587 0
M  V30 8 C 4.085243 2.179439 1.028305 0
M  V30 9 C 2.838547 2.334256 0.449442 0
M  V30 10 C 2.147496 1.275754 -0.106785 0
M  V30 11 C 0.820523 1.508840 -0.708504 0
M  V30 12 C 0.532398 2.566289 -1.545901 0
M  V30 13 N -0.765064 2.378750 -1.841352 0
M  V30 14 N -1.222199 1.297242 -1.232409 0
M  V30 15 C -2.481238 0.781996 -1.285283 0
M  V30 16 N -3.587723 1.318962 -1.995987 0
M  V30 17 C -4.923452 0.898490 -2.240726 0
M  V30 18 C -5.121774 -0.252506 -3.161505 0
M  V30 19 C -6.644805 -0.472123 -3.228512 0
M  V30 20 C -6.963337 -1.606832 -4.173548 0
M  V30 21 O -6.442396 -2.756263 -3.573045 0
M  V30 22 C -5.075208 -2.716960 -3.509304 0
M  V30 23 C -4.515558 -1.551976 -2.712412 0
M  V30 24 N -2.681519 -0.326173 -0.573270 0
M  V30 25 C -1.778854 -0.971303 0.176834 0
M  V30 26 N -2.120061 -2.148656 0.893237 0
M  V30 27 C -1.156184 -2.852362 1.706250 0
M  V30 28 C -0.596239 -1.976185 2.810965 0
M  V30 29 C 0.130071 -2.848122 3.782386 0
M  V30 30 O 0.442169 -4.115126 3.297899 0
M  V30 31 C -0.708827 -4.876928 3.078050 0
M  V30 32 C -1.788493 -4.045101 2.402954 0
M  V30 33 N -0.550590 -0.423789 0.196873 0
M  V30 34 C -0.281271 0.690773 -0.496925 0
M  V30 35 C 2.683456 0.003169 -0.105892 0
M  V30 36 C 3.926650 -0.175228 0.466455 0
M  V30 37 Cl 4.655024 -1.749257 0.499192 0
M  V30 38 H 5.435671 1.274448 3.613657 0
M  V30 39 H 8.252814 0.335746 2.718116 0
M  V30 40 H 6.711597 -0.109429 5.450417 0
M  V30 41 H 8.362986 -0.774321 5.009297 0
M  V30 42 H 7.493859 2.289910 5.012748 0
M  V30 43 H 9.222995 1.571671 4.643992 0
M  V30 44 H 4.573561 3.048366 1.445815 0
M  V30 45 H 2.371381 3.303605 0.420091 0
M  V30 46 H 1.205876 3.345150 -1.871203 0
M  V30 47 H -3.287239 2.247280 -2.420714 0
M  V30 48 H -5.472977 0.657847 -1.294447 0
M  V30 49 H -5.491541 1.773221 -2.674733 0
M  V30 50 H -4.759765 -0.026312 -4.208955 0
M  V30 51 H -7.145138 0.483340 -3.513633 0
M  V30 52 H -6.933661 -0.804589 -2.206218 0
M  V30 53 H -6.522839 -1.432180 -5.172753 0
M  V30 54 H -8.047356 -1.718368 -4.236308 0
M  V30 55 H -4.726090 -3.655224 -3.018999 0
M  V30 56 H -4.706752 -2.706154 -4.569833 0
M  V30 57 H -4.794118 -1.741945 -1.669585 0
M  V30 58 H -3.416049 -1.585239 -2.891897 0
M  V30 59 H -3.096122 -2.507205 0.823979 0
M  V30 60 H -0.313522 -3.274550 1.117766 0
M  V30 61 H 0.111469 -1.281446 2.312292 0
M  V30 62 H -1.447017 -1.418930 3.293654 0
M  V30 63 H 1.084869 -2.357175 4.047526 0
M  V30 64 H -0.511101 -2.947776 4.684602 0
M  V30 65 H -1.091259 -5.315615 4.023063 0
M  V30 66 H -0.424731 -5.702468 2.401286 0
M  V30 67 H -2.376300 -4.646646 1.687784 0
M  V30 68 H -2.461003 -3.690574 3.219796 0
M  V30 69 H 2.156680 -0.837930 -0.536654 0
M  V30 END ATOM
M  V30 BEGIN BOND
M  V30 1 2 1 2
M  V30 2 1 2 3
M  V30 3 1 3 4
M  V30 4 1 4 5
M  V30 5 1 5 6
M  V30 6 1 2 7
M  V30 7 2 7 8
M  V30 8 1 8 9
M  V30 9 2 9 10
M  V30 10 1 10 11
M  V30 11 1 11 12
M  V30 12 2 12 13
M  V30 13 1 13 14
M  V30 14 1 14 15
M  V30 15 1 15 16
M  V30 16 1 16 17
M  V30 17 1 17 18
M  V30 18 1 18 19
M  V30 19 1 19 20
M  V30 20 1 20 21
M  V30 21 1 21 22
M  V30 22 1 22 23
M  V30 23 2 15 24
M  V30 24 1 24 25
M  V30 25 1 25 26
M  V30 26 1 26 27
M  V30 27 1 27 28
M  V30 28 1 28 29
M  V30 29 1 29 30
M  V30 30 1 30 31
M  V30 31 1 31 32
M  V30 32 2 25 33
M  V30 33 1 33 34
M  V30 34 1 10 35
M  V30 35 2 35 36
M  V30 36 1 36 37
M  V30 37 1 6 4
M  V30 38 1 36 7
M  V30 39 2 34 11
M  V30 40 1 34 14
M  V30 41 1 23 18
M  V30 42 1 32 27
M  V30 43 1 3 38
M  V30 44 1 4 39
M  V30 45 1 5 40
M  V30 46 1 5 41
M  V30 47 1 6 42
M  V30 48 1 6 43
M  V30 49 1 8 44
M  V30 50 1 9 45
M  V30 51 1 12 46
M  V30 52 1 16 47
M  V30 53 1 17 48
M  V30 54 1 17 49
M  V30 55 1 18 50
M  V30 56 1 19 51
M  V30 57 1 19 52
M  V30 58 1 20 53
M  V30 59 1 20 54
M  V30 60 1 22 55
M  V30 61 1 22 56
M  V30 62 1 23 57
M  V30 63 1 23 58
M  V30 64 1 26 59
M  V30 65 1 27 60
M  V30 66 1 28 61
M  V30 67 1 28 62
M  V30 68 1 29 63
M  V30 69 1 29 64
M  V30 70 1 31 65
M  V30 71 1 31 66
M  V30 72 1 32 67
M  V30 73 1 32 68
M  V30 74 1 35 69
M  V30 END BOND
M  V30 END CTAB
M  END
>  <Dataset>  (965) 
ChEMBL_Kinases

>  <Ligand_Instance>  (965) 
nan

>  <PDB_ID>  (965) 
nan

>  <Standardized_SMILES>  (965) 
O=C(NC1CC1)c1ccc(-c2cnn3c(NCC4CCOCC4)nc(NC4CCOCC4)nc23)cc1Cl

>  <Name>  (965) 
nan

>  <Pocket>  (965) 
nan

>  <ATP_Site>  (965) 
nan

>  <Peripheral>  (965) 
nan

>  <Num_H_Atoms_ProtBoundConf>  (965) 
nan

>  <Num_Resolved_Atoms>  (965) 
nan

>  <Num_Not_Resolved_Atoms>  (965) 
nan

$$$$
CHEMBL3818016
     RDKit          3D

  0  0  0  0  0  0  0  0  0  0999 V3000
M  V30 BEGIN CTAB
M  V30 COUNTS 59 63 0 0 0
M  V30 BEGIN ATOM
M  V30 1 C 3.058849 -4.589615 3.184078 0
M  V30 2 O 3.272517 -3.513359 2.355682 0
M  V30 3 C 3.489735 -2.323549 3.024205 0
M  V30 4 C 3.710743 -1.222016 1.980442 0
M  V30 5 N 2.510208 -1.138107 1.147628 0
M  V30 6 C 1.551126 -0.291772 1.565274 0
M  V30 7 O 1.580911 0.420899 2.579202 0
M  V30 8 C 0.399055 -0.178432 0.811682 0
M  V30 9 C -0.769060 0.677622 1.077555 0
M  V30 10 C -0.696686 1.939265 0.513683 0
M  V30 11 C -1.766010 2.787195 0.730301 0
M  V30 12 C -2.857972 2.386728 1.478780 0
M  V30 13 N -3.966659 3.259550 1.705999 0
M  V30 14 C -4.003946 4.338768 2.504839 0
M  V30 15 C -5.173303 5.075907 2.606242 0
M  V30 16 C -6.285882 4.691492 1.884469 0
M  V30 17 C -6.255152 3.585675 1.063035 0
M  V30 18 C -7.467854 3.189146 0.293246 0
M  V30 19 C -5.051356 2.883550 1.001394 0
M  V30 20 O -5.109685 1.876696 0.219958 0
M  V30 21 C -2.872121 1.101789 2.021333 0
M  V30 22 C -1.828221 0.213254 1.835167 0
M  V30 23 Cl -1.829312 -1.394368 2.505118 0
M  V30 24 C 0.257157 -0.937782 -0.355778 0
M  V30 25 C 1.274559 -1.779943 -0.721504 0
M  V30 26 C 1.206610 -2.559480 -1.858527 0
M  V30 27 N 2.235570 -3.356252 -2.152026 0
M  V30 28 C 3.361114 -3.476389 -1.428858 0
M  V30 29 N 4.435895 -4.337059 -1.774922 0
M  V30 30 C 4.406441 -5.169403 -2.958089 0
M  V30 31 C 3.235312 -6.118982 -2.911034 0
M  V30 32 O 2.552178 -5.367565 -3.887180 0
M  V30 33 C 3.697020 -4.620201 -4.151607 0
M  V30 34 N 3.417709 -2.714924 -0.325929 0
M  V30 35 C 2.422155 -1.888000 0.035892 0
M  V30 36 H 3.924929 -4.785728 3.866252 0
M  V30 37 H 2.891408 -5.471914 2.506685 0
M  V30 38 H 2.159653 -4.513616 3.797926 0
M  V30 39 H 4.426253 -2.455689 3.601654 0
M  V30 40 H 2.668231 -2.059532 3.708601 0
M  V30 41 H 4.563663 -1.523313 1.347401 0
M  V30 42 H 3.951094 -0.262596 2.441722 0
M  V30 43 H 0.145605 2.266232 -0.071182 0
M  V30 44 H -1.767816 3.789151 0.314077 0
M  V30 45 H -3.077911 4.551128 3.024505 0
M  V30 46 H -5.159285 5.934755 3.258930 0
M  V30 47 H -7.181488 5.297007 1.992984 0
M  V30 48 H -8.034730 4.082475 -0.061437 0
M  V30 49 H -8.173678 2.573382 0.878855 0
M  V30 50 H -7.157993 2.529597 -0.564026 0
M  V30 51 H -3.717163 0.788384 2.602016 0
M  V30 52 H -0.606138 -0.911952 -1.002609 0
M  V30 53 H 0.314104 -2.490742 -2.468832 0
M  V30 54 H 5.273236 -4.370001 -1.156119 0
M  V30 55 H 5.375178 -5.672597 -3.161106 0
M  V30 56 H 2.653157 -6.124138 -1.956853 0
M  V30 57 H 3.454073 -7.161736 -3.194331 0
M  V30 58 H 3.497302 -3.531750 -4.155282 0
M  V30 59 H 4.105540 -4.942081 -5.140032 0
M  V30 END ATOM
M  V30 BEGIN BOND
M  V30 1 1 1 2
M  V30 2 1 2 3
M  V30 3 1 3 4
M  V30 4 1 4 5
M  V30 5 1 5 6
M  V30 6 2 6 7
M  V30 7 1 6 8
M  V30 8 1 8 9
M  V30 9 2 9 10
M  V30 10 1 10 11
M  V30 11 2 11 12
M  V30 12 1 12 13
M  V30 13 1 13 14
M  V30 14 2 14 15
M  V30 15 1 15 16
M  V30 16 2 16 17
M  V30 17 1 17 18
M  V30 18 1 17 19
M  V30 19 2 19 20
M  V30 20 1 12 21
M  V30 21 2 21 22
M  V30 22 1 22 23
M  V30 23 2 8 24
M  V30 24 1 24 25
M  V30 25 2 25 26
M  V30 26 1 26 27
M  V30 27 2 27 28
M  V30 28 1 28 29
M  V30 29 1 29 30
M  V30 30 1 30 31
M  V30 31 1 31 32
M  V30 32 1 32 33
M  V30 33 1 28 34
M  V30 34 2 34 35
M  V30 35 1 35 5
M  V30 36 1 22 9
M  V30 37 1 35 25
M  V30 38 1 19 13
M  V30 39 1 33 30
M  V30 40 1 1 36
M  V30 41 1 1 37
M  V30 42 1 1 38
M  V30 43 1 3 39
M  V30 44 1 3 40
M  V30 45 1 4 41
M  V30 46 1 4 42
M  V30 47 1 10 43
M  V30 48 1 11 44
M  V30 49 1 14 45
M  V30 50 1 15 46
M  V30 51 1 16 47
M  V30 52 1 18 48
M  V30 53 1 18 49
M  V30 54 1 18 50
M  V30 55 1 21 51
M  V30 56 1 24 52
M  V30 57 1 26 53
M  V30 58 1 29 54
M  V30 59 1 30 55
M  V30 60 1 31 56
M  V30 61 1 31 57
M  V30 62 1 33 58
M  V30 63 1 33 59
M  V30 END BOND
M  V30 END CTAB
M  END
>  <Dataset>  (966) 
ChEMBL_Kinases

>  <Ligand_Instance>  (966) 
nan

>  <PDB_ID>  (966) 
nan

>  <Standardized_SMILES>  (966) 
COCCn1c(=O)c(-c2ccc(-n3cccc(C)c3=O)cc2Cl)cc2cnc(NC3COC3)nc21

>  <Name>  (966) 
nan

>  <Pocket>  (966) 
nan

>  <ATP_Site>  (966) 
nan

>  <Peripheral>  (966) 
nan

>  <Num_H_Atoms_ProtBoundConf>  (966) 
nan

>  <Num_Resolved_Atoms>  (966) 
nan

>  <Num_Not_Resolved_Atoms>  (966) 
nan

$$$$
CHEMBL495827
     RDKit          3D

  0  0  0  0  0  0  0  0  0  0999 V3000
M  V30 BEGIN CTAB
M  V30 COUNTS 30 31 0 0 0
M  V30 BEGIN ATOM
M  V30 1 C -2.846373 -3.209741 1.020858 0
M  V30 2 C -2.106308 -2.547946 2.172724 0
M  V30 3 C -1.735819 -3.529591 3.249148 0
M  V30 4 C -0.907431 -1.853329 1.627246 0
M  V30 5 C 0.185792 -2.511496 1.104723 0
M  V30 6 C 1.271353 -1.780112 0.607611 0
M  V30 7 C 1.311948 -0.404454 0.609513 0
M  V30 8 C 2.459632 0.321855 0.098222 0
M  V30 9 C 2.483722 1.380442 -0.640239 0
M  V30 10 S 1.079510 2.332635 -1.294411 0
M  V30 11 C 2.063325 3.845395 -1.540082 0
M  V30 12 O 1.245057 4.787566 -1.576714 0
M  V30 13 N 3.391350 3.375157 -1.596163 0
M  V30 14 C 3.645054 2.090725 -1.134478 0
M  V30 15 O 4.835759 1.645470 -1.177603 0
M  V30 16 C 0.218879 0.262383 1.131650 0
M  V30 17 C -0.848072 -0.461165 1.621133 0
M  V30 18 H -3.422247 -4.105875 1.395553 0
M  V30 19 H -2.120449 -3.551881 0.287649 0
M  V30 20 H -3.553738 -2.490891 0.589446 0
M  V30 21 H -2.783121 -1.784699 2.616581 0
M  V30 22 H -2.436651 -3.440478 4.089771 0
M  V30 23 H -1.768123 -4.584115 2.845343 0
M  V30 24 H -0.697328 -3.314603 3.610033 0
M  V30 25 H 0.190230 -3.605731 1.088618 0
M  V30 26 H 2.138745 -2.313049 0.194047 0
M  V30 27 H 3.432876 -0.100558 0.388768 0
M  V30 28 H 3.994406 4.129007 -2.002132 0
M  V30 29 H 0.166569 1.342582 1.171689 0
M  V30 30 H -1.685672 0.059355 2.024402 0
M  V30 END ATOM
M  V30 BEGIN BOND
M  V30 1 1 1 2
M  V30 2 1 2 3
M  V30 3 1 2 4
M  V30 4 2 4 5
M  V30 5 1 5 6
M  V30 6 2 6 7
M  V30 7 1 7 8
M  V30 8 2 8 9
M  V30 9 1 9 10
M  V30 10 1 10 11
M  V30 11 2 11 12
M  V30 12 1 11 13
M  V30 13 1 13 14
M  V30 14 2 14 15
M  V30 15 1 7 16
M  V30 16 2 16 17
M  V30 17 1 17 4
M  V30 18 1 14 9
M  V30 19 1 1 18
M  V30 20 1 1 19
M  V30 21 1 1 20
M  V30 22 1 2 21
M  V30 23 1 3 22
M  V30 24 1 3 23
M  V30 25 1 3 24
M  V30 26 1 5 25
M  V30 27 1 6 26
M  V30 28 1 8 27
M  V30 29 1 13 28
M  V30 30 1 16 29
M  V30 31 1 17 30
M  V30 END BOND
M  V30 END CTAB
M  END
>  <Dataset>  (967) 
ChEMBL_Kinases

>  <Ligand_Instance>  (967) 
nan

>  <PDB_ID>  (967) 
nan

>  <Standardized_SMILES>  (967) 
CC(C)c1ccc(/C=C2\SC(=O)NC2=O)cc1

>  <Name>  (967) 
nan

>  <Pocket>  (967) 
nan

>  <ATP_Site>  (967) 
nan

>  <Peripheral>  (967) 
nan

>  <Num_H_Atoms_ProtBoundConf>  (967) 
nan

>  <Num_Resolved_Atoms>  (967) 
nan

>  <Num_Not_Resolved_Atoms>  (967) 
nan

$$$$
CHEMBL3817949
     RDKit          3D

  0  0  0  0  0  0  0  0  0  0999 V3000
M  V30 BEGIN CTAB
M  V30 COUNTS 74 79 0 0 0
M  V30 BEGIN ATOM
M  V30 1 C 4.910783 -6.095853 5.053136 0
M  V30 2 C 4.567137 -4.954496 4.121722 0
M  V30 3 O 5.081435 -3.811046 4.073212 0
M  V30 4 N 3.532342 -5.089008 3.124241 0
M  V30 5 C 3.597297 -3.767613 2.526814 0
M  V30 6 C 4.451478 -3.690192 1.449386 0
M  V30 7 C 4.563055 -2.441029 0.861540 0
M  V30 8 C 3.865116 -1.339130 1.321906 0
M  V30 9 C 3.018481 -1.444499 2.400447 0
M  V30 10 O 2.219194 -0.534116 3.060525 0
M  V30 11 C 0.978632 -0.215838 2.562093 0
M  V30 12 N 0.377192 0.668946 3.366956 0
M  V30 13 C -0.854404 1.187370 3.155150 0
M  V30 14 N -1.452494 2.101465 4.074412 0
M  V30 15 C -2.589601 2.953627 3.956278 0
M  V30 16 C -2.385049 4.231817 3.225067 0
M  V30 17 C -3.724887 4.981396 3.200355 0
M  V30 18 C -3.824028 5.659057 1.854384 0
M  V30 19 O -2.693307 6.356735 1.497060 0
M  V30 20 C -1.544064 5.611897 1.421044 0
M  V30 21 C -1.860045 4.162130 1.837236 0
M  V30 22 N -1.474566 0.740025 2.031805 0
M  V30 23 N -2.663639 1.027788 1.534777 0
M  V30 24 C -2.871629 0.345039 0.397588 0
M  V30 25 C -1.763015 -0.428550 0.138716 0
M  V30 26 C -1.635406 -1.307734 -1.014012 0
M  V30 27 C -1.984659 -0.660315 -2.209384 0
M  V30 28 C -1.946860 -1.341091 -3.432874 0
M  V30 29 C -1.559267 -2.666850 -3.451000 0
M  V30 30 C -1.570300 -3.258464 -4.781531 0
M  V30 31 O -2.314954 -4.194922 -5.227825 0
M  V30 32 N -0.593882 -2.665222 -5.656633 0
M  V30 33 C -0.493679 -3.145722 -7.015085 0
M  V30 34 C -0.365327 -2.015863 -8.035955 0
M  V30 35 C 0.767746 -2.954832 -7.793800 0
M  V30 36 C -1.222839 -3.277128 -2.275364 0
M  V30 37 C -0.822955 -4.691356 -2.342405 0
M  V30 38 C -1.251315 -2.629794 -1.054726 0
M  V30 39 C -0.921427 -0.145183 1.190227 0
M  V30 40 N 0.313071 -0.630559 1.451042 0
M  V30 41 C 2.878724 -2.679333 3.016193 0
M  V30 42 H 5.687258 -5.810421 5.757953 0
M  V30 43 H 3.983730 -6.279002 5.642147 0
M  V30 44 H 5.120208 -7.016205 4.482163 0
M  V30 45 H 3.002386 -5.982080 3.026273 0
M  V30 46 H 5.021272 -4.513744 1.047670 0
M  V30 47 H 5.210527 -2.251206 -0.001598 0
M  V30 48 H 3.882679 -0.343825 0.942539 0
M  V30 49 H -0.948437 2.149259 5.012376 0
M  V30 50 H -2.979528 3.219617 4.971274 0
M  V30 51 H -3.471634 2.414801 3.485950 0
M  V30 52 H -1.644748 4.848612 3.812867 0
M  V30 53 H -4.513938 4.217611 3.221276 0
M  V30 54 H -3.772901 5.686970 4.038311 0
M  V30 55 H -4.652512 6.405365 1.960270 0
M  V30 56 H -4.183202 4.932090 1.083436 0
M  V30 57 H -0.987165 5.668952 0.481734 0
M  V30 58 H -0.851513 5.988429 2.231048 0
M  V30 59 H -0.903168 3.578178 1.792747 0
M  V30 60 H -2.546360 3.739442 1.085376 0
M  V30 61 H -3.786295 0.410428 -0.209575 0
M  V30 62 H -2.300259 0.392588 -2.260019 0
M  V30 63 H -2.229783 -0.786684 -4.339973 0
M  V30 64 H 0.062664 -1.903951 -5.399943 0
M  V30 65 H -1.154872 -3.950268 -7.391067 0
M  V30 66 H -0.211877 -0.976603 -7.662156 0
M  V30 67 H -0.947164 -2.042271 -8.960566 0
M  V30 68 H 1.682310 -2.615435 -7.307886 0
M  V30 69 H 0.962335 -3.636253 -8.647394 0
M  V30 70 H -0.123098 -4.911135 -3.161988 0
M  V30 71 H -1.760919 -5.285797 -2.528942 0
M  V30 72 H -0.419872 -5.079349 -1.377209 0
M  V30 73 H -0.996578 -3.067942 -0.114523 0
M  V30 74 H 2.268580 -2.966932 3.866176 0
M  V30 END ATOM
M  V30 BEGIN BOND
M  V30 1 1 1 2
M  V30 2 2 2 3
M  V30 3 1 2 4
M  V30 4 1 4 5
M  V30 5 2 5 6
M  V30 6 1 6 7
M  V30 7 2 7 8
M  V30 8 1 8 9
M  V30 9 1 9 10
M  V30 10 1 10 11
M  V30 11 1 11 12
M  V30 12 2 12 13
M  V30 13 1 13 14
M  V30 14 1 14 15
M  V30 15 1 15 16
M  V30 16 1 16 17
M  V30 17 1 17 18
M  V30 18 1 18 19
M  V30 19 1 19 20
M  V30 20 1 20 21
M  V30 21 1 13 22
M  V30 22 1 22 23
M  V30 23 2 23 24
M  V30 24 1 24 25
M  V30 25 1 25 26
M  V30 26 2 26 27
M  V30 27 1 27 28
M  V30 28 2 28 29
M  V30 29 1 29 30
M  V30 30 2 30 31
M  V30 31 1 30 32
M  V30 32 1 32 33
M  V30 33 1 33 34
M  V30 34 1 34 35
M  V30 35 1 29 36
M  V30 36 1 36 37
M  V30 37 2 36 38
M  V30 38 2 25 39
M  V30 39 1 39 40
M  V30 40 2 9 41
M  V30 41 1 41 5
M  V30 42 2 40 11
M  V30 43 1 21 16
M  V30 44 1 39 22
M  V30 45 1 38 26
M  V30 46 1 35 33
M  V30 47 1 1 42
M  V30 48 1 1 43
M  V30 49 1 1 44
M  V30 50 1 4 45
M  V30 51 1 6 46
M  V30 52 1 7 47
M  V30 53 1 8 48
M  V30 54 1 14 49
M  V30 55 1 15 50
M  V30 56 1 15 51
M  V30 57 1 16 52
M  V30 58 1 17 53
M  V30 59 1 17 54
M  V30 60 1 18 55
M  V30 61 1 18 56
M  V30 62 1 20 57
M  V30 63 1 20 58
M  V30 64 1 21 59
M  V30 65 1 21 60
M  V30 66 1 24 61
M  V30 67 1 27 62
M  V30 68 1 28 63
M  V30 69 1 32 64
M  V30 70 1 33 65
M  V30 71 1 34 66
M  V30 72 1 34 67
M  V30 73 1 35 68
M  V30 74 1 35 69
M  V30 75 1 37 70
M  V30 76 1 37 71
M  V30 77 1 37 72
M  V30 78 1 38 73
M  V30 79 1 41 74
M  V30 END BOND
M  V30 END CTAB
M  END
>  <Dataset>  (968) 
ChEMBL_Kinases

>  <Ligand_Instance>  (968) 
nan

>  <PDB_ID>  (968) 
nan

>  <Standardized_SMILES>  (968) 
CC(=O)Nc1cccc(Oc2nc(NCC3CCOCC3)n3ncc(-c4ccc(C(=O)NC5CC5)c(C)c4)c3n2)c1

>  <Name>  (968) 
nan

>  <Pocket>  (968) 
nan

>  <ATP_Site>  (968) 
nan

>  <Peripheral>  (968) 
nan

>  <Num_H_Atoms_ProtBoundConf>  (968) 
nan

>  <Num_Resolved_Atoms>  (968) 
nan

>  <Num_Not_Resolved_Atoms>  (968) 
nan

$$$$
CHEMBL3817922
     RDKit          3D

  0  0  0  0  0  0  0  0  0  0999 V3000
M  V30 BEGIN CTAB
M  V30 COUNTS 74 79 0 0 0
M  V30 BEGIN ATOM
M  V30 1 C 2.448018 -0.235865 2.689632 0
M  V30 2 N 2.109106 -0.202229 1.284493 0
M  V30 3 C 0.880575 0.404420 0.896764 0
M  V30 4 N 0.896266 1.715875 0.518357 0
M  V30 5 C -0.269618 2.298974 0.141639 0
M  V30 6 N -0.200911 3.659719 -0.224291 0
M  V30 7 C 0.211449 4.520265 -1.307140 0
M  V30 8 C -0.425434 4.204624 -2.633171 0
M  V30 9 C -0.116909 2.814595 -3.104407 0
M  V30 10 C 0.306790 2.698334 -4.529558 0
M  V30 11 O -0.324295 3.698884 -5.298312 0
M  V30 12 C 0.351034 4.868349 -4.946867 0
M  V30 13 C -0.127818 5.297165 -3.599528 0
M  V30 14 N -1.440238 1.633531 0.126638 0
M  V30 15 N -2.673873 1.950651 -0.185786 0
M  V30 16 C -3.491087 0.894619 -0.024090 0
M  V30 17 C -2.713274 -0.170949 0.426059 0
M  V30 18 C -3.068169 -1.539148 0.790131 0
M  V30 19 C -3.774061 -2.485429 0.131706 0
M  V30 20 C -4.018914 -3.731026 0.664656 0
M  V30 21 C -3.550162 -4.075012 1.911144 0
M  V30 22 C -3.855966 -5.414529 2.396744 0
M  V30 23 O -4.512180 -6.225179 1.655916 0
M  V30 24 N -3.548850 -6.031021 3.616018 0
M  V30 25 C -3.875282 -7.373514 4.049383 0
M  V30 26 C -4.564747 -7.570722 5.357759 0
M  V30 27 C -3.120046 -7.835162 5.284612 0
M  V30 28 C -2.813657 -3.123636 2.627982 0
M  V30 29 F -2.342688 -3.418993 3.851570 0
M  V30 30 C -2.595951 -1.893247 2.050163 0
M  V30 31 C -1.412309 0.330564 0.511174 0
M  V30 32 N -0.277012 -0.269524 0.887542 0
M  V30 33 C 2.976957 -0.761443 0.261929 0
M  V30 34 C 4.343630 -0.075193 0.289501 0
M  V30 35 C 5.195146 -0.657448 -0.783813 0
M  V30 36 C 4.562184 -1.714472 -1.621639 0
M  V30 37 C 3.859073 -2.775026 -0.810222 0
M  V30 38 C 3.235515 -2.240597 0.452757 0
M  V30 39 H 1.526589 -0.296137 3.314813 0
M  V30 40 H 3.067682 0.662518 2.976784 0
M  V30 41 H 3.054672 -1.130528 2.972013 0
M  V30 42 H -0.600392 4.123607 0.624764 0
M  V30 43 H 1.315062 4.343931 -1.458533 0
M  V30 44 H 0.098282 5.584762 -1.051689 0
M  V30 45 H -1.528790 4.235594 -2.446565 0
M  V30 46 H -0.979429 2.117057 -2.948772 0
M  V30 47 H 0.759177 2.465797 -2.478987 0
M  V30 48 H 0.091857 1.685130 -4.883028 0
M  V30 49 H 1.423913 2.836920 -4.609473 0
M  V30 50 H 0.104972 5.645350 -5.687181 0
M  V30 51 H 1.458568 4.644045 -4.951858 0
M  V30 52 H -1.003039 5.971773 -3.753851 0
M  V30 53 H 0.686609 5.953123 -3.170708 0
M  V30 54 H -4.545768 0.752066 -0.171336 0
M  V30 55 H -4.118801 -2.160355 -0.849723 0
M  V30 56 H -4.595060 -4.353013 0.000511 0
M  V30 57 H -3.017491 -5.437362 4.292908 0
M  V30 58 H -4.193702 -8.077625 3.263582 0
M  V30 59 H -5.203523 -8.454922 5.470707 0
M  V30 60 H -4.955443 -6.672783 5.908718 0
M  V30 61 H -2.477425 -7.096389 5.806506 0
M  V30 62 H -2.706535 -8.861635 5.293753 0
M  V30 63 H -2.012500 -1.215113 2.677181 0
M  V30 64 H 2.554083 -0.625070 -0.731678 0
M  V30 65 H 4.231750 1.029027 0.258303 0
M  V30 66 H 4.792349 -0.351694 1.283090 0
M  V30 67 H 6.211030 -0.967628 -0.407542 0
M  V30 68 H 5.432648 0.189958 -1.489447 0
M  V30 69 H 5.376297 -2.257914 -2.165581 0
M  V30 70 H 3.913982 -1.315533 -2.435315 0
M  V30 71 H 3.035277 -3.175653 -1.433843 0
M  V30 72 H 4.521355 -3.655402 -0.623760 0
M  V30 73 H 3.979846 -2.380520 1.283060 0
M  V30 74 H 2.275816 -2.741792 0.708199 0
M  V30 END ATOM
M  V30 BEGIN BOND
M  V30 1 1 1 2
M  V30 2 1 2 3
M  V30 3 1 3 4
M  V30 4 2 4 5
M  V30 5 1 5 6
M  V30 6 1 6 7
M  V30 7 1 7 8
M  V30 8 1 8 9
M  V30 9 1 9 10
M  V30 10 1 10 11
M  V30 11 1 11 12
M  V30 12 1 12 13
M  V30 13 1 5 14
M  V30 14 1 14 15
M  V30 15 2 15 16
M  V30 16 1 16 17
M  V30 17 1 17 18
M  V30 18 2 18 19
M  V30 19 1 19 20
M  V30 20 2 20 21
M  V30 21 1 21 22
M  V30 22 2 22 23
M  V30 23 1 22 24
M  V30 24 1 24 25
M  V30 25 1 25 26
M  V30 26 1 26 27
M  V30 27 1 21 28
M  V30 28 1 28 29
M  V30 29 2 28 30
M  V30 30 2 17 31
M  V30 31 1 31 32
M  V30 32 1 2 33
M  V30 33 1 33 34
M  V30 34 1 34 35
M  V30 35 1 35 36
M  V30 36 1 36 37
M  V30 37 1 37 38
M  V30 38 2 32 3
M  V30 39 1 38 33
M  V30 40 1 13 8
M  V30 41 1 31 14
M  V30 42 1 30 18
M  V30 43 1 27 25
M  V30 44 1 1 39
M  V30 45 1 1 40
M  V30 46 1 1 41
M  V30 47 1 6 42
M  V30 48 1 7 43
M  V30 49 1 7 44
M  V30 50 1 8 45
M  V30 51 1 9 46
M  V30 52 1 9 47
M  V30 53 1 10 48
M  V30 54 1 10 49
M  V30 55 1 12 50
M  V30 56 1 12 51
M  V30 57 1 13 52
M  V30 58 1 13 53
M  V30 59 1 16 54
M  V30 60 1 19 55
M  V30 61 1 20 56
M  V30 62 1 24 57
M  V30 63 1 25 58
M  V30 64 1 26 59
M  V30 65 1 26 60
M  V30 66 1 27 61
M  V30 67 1 27 62
M  V30 68 1 30 63
M  V30 69 1 33 64
M  V30 70 1 34 65
M  V30 71 1 34 66
M  V30 72 1 35 67
M  V30 73 1 35 68
M  V30 74 1 36 69
M  V30 75 1 36 70
M  V30 76 1 37 71
M  V30 77 1 37 72
M  V30 78 1 38 73
M  V30 79 1 38 74
M  V30 END BOND
M  V30 END CTAB
M  END
>  <Dataset>  (969) 
ChEMBL_Kinases

>  <Ligand_Instance>  (969) 
nan

>  <PDB_ID>  (969) 
nan

>  <Standardized_SMILES>  (969) 
CN(c1nc(NCC2CCOCC2)n2ncc(-c3ccc(C(=O)NC4CC4)c(F)c3)c2n1)C1CCCCC1

>  <Name>  (969) 
nan

>  <Pocket>  (969) 
nan

>  <ATP_Site>  (969) 
nan

>  <Peripheral>  (969) 
nan

>  <Num_H_Atoms_ProtBoundConf>  (969) 
nan

>  <Num_Resolved_Atoms>  (969) 
nan

>  <Num_Not_Resolved_Atoms>  (969) 
nan

$$$$
CHEMBL3817905
     RDKit          3D

  0  0  0  0  0  0  0  0  0  0999 V3000
M  V30 BEGIN CTAB
M  V30 COUNTS 74 79 0 0 0
M  V30 BEGIN ATOM
M  V30 1 C -2.080372 0.477466 4.740319 0
M  V30 2 C -1.259042 -0.410430 3.875762 0
M  V30 3 C -0.195000 0.086964 3.114109 0
M  V30 4 C 0.536200 -0.782040 2.331408 0
M  V30 5 C 1.606263 -0.139517 1.573879 0
M  V30 6 C 2.568729 0.802731 1.875978 0
M  V30 7 N 3.271951 1.007423 0.747887 0
M  V30 8 N 2.789322 0.245095 -0.209401 0
M  V30 9 C 3.250414 0.194932 -1.459722 0
M  V30 10 N 4.295832 0.896493 -2.117227 0
M  V30 11 C 3.696785 1.839985 -3.041622 0
M  V30 12 C 2.891515 2.922803 -2.377953 0
M  V30 13 C 3.705427 3.789120 -1.462491 0
M  V30 14 C 2.848557 4.958367 -1.011727 0
M  V30 15 O 2.376639 5.643529 -2.103856 0
M  V30 16 C 1.508337 4.933556 -2.909326 0
M  V30 17 C 2.256515 3.749785 -3.486152 0
M  V30 18 N 2.613162 -0.662888 -2.302059 0
M  V30 19 C 1.566580 -1.430671 -1.911534 0
M  V30 20 N 0.904795 -2.308105 -2.819453 0
M  V30 21 C -0.177648 -3.118291 -2.305327 0
M  V30 22 C 0.329290 -4.106766 -1.264855 0
M  V30 23 C -0.852554 -4.620689 -0.496465 0
M  V30 24 C -2.162644 -4.285169 -1.163286 0
M  V30 25 C -2.128429 -4.535151 -2.652461 0
M  V30 26 C -0.950891 -3.859957 -3.338042 0
M  V30 27 N 1.175937 -1.307826 -0.631955 0
M  V30 28 C 1.757462 -0.492527 0.227583 0
M  V30 29 C 0.260550 -2.131728 2.267512 0
M  V30 30 C -0.806980 -2.618878 3.033967 0
M  V30 31 C -1.563212 -1.774960 3.831266 0
M  V30 32 C -2.694151 -2.277024 4.633922 0
M  V30 33 O -2.736649 -2.723968 5.825416 0
M  V30 34 N -3.988053 -2.288640 4.024079 0
M  V30 35 C -5.271466 -2.714968 4.548453 0
M  V30 36 C -6.229109 -3.442691 3.666894 0
M  V30 37 C -6.490206 -2.012909 4.107288 0
M  V30 38 H -3.159391 0.410258 4.511626 0
M  V30 39 H -1.840207 0.357995 5.823070 0
M  V30 40 H -1.775240 1.530836 4.489093 0
M  V30 41 H 0.004537 1.149272 3.178305 0
M  V30 42 H 2.652493 1.230058 2.861412 0
M  V30 43 H 5.254318 0.612319 -1.822261 0
M  V30 44 H 4.466995 2.274914 -3.726178 0
M  V30 45 H 3.012052 1.287279 -3.724643 0
M  V30 46 H 2.078513 2.385505 -1.821543 0
M  V30 47 H 4.116887 3.226211 -0.636337 0
M  V30 48 H 4.537974 4.199635 -2.111742 0
M  V30 49 H 2.072160 4.574877 -0.321403 0
M  V30 50 H 3.490819 5.638316 -0.431788 0
M  V30 51 H 0.632071 4.505643 -2.380614 0
M  V30 52 H 1.188040 5.568734 -3.736565 0
M  V30 53 H 3.073892 4.073640 -4.155215 0
M  V30 54 H 1.605900 3.061462 -4.059093 0
M  V30 55 H 1.248236 -2.312406 -3.820638 0
M  V30 56 H -0.831406 -2.409970 -1.732460 0
M  V30 57 H 0.882642 -4.914780 -1.809830 0
M  V30 58 H 1.054605 -3.662109 -0.567265 0
M  V30 59 H -0.885225 -4.220147 0.535242 0
M  V30 60 H -0.757472 -5.735475 -0.394042 0
M  V30 61 H -2.495635 -3.247718 -0.901425 0
M  V30 62 H -2.936745 -4.954439 -0.735081 0
M  V30 63 H -2.119285 -5.637455 -2.803256 0
M  V30 64 H -3.093121 -4.152259 -3.045402 0
M  V30 65 H -1.347371 -3.139503 -4.106787 0
M  V30 66 H -0.306106 -4.650738 -3.791525 0
M  V30 67 H 0.855014 -2.767159 1.648923 0
M  V30 68 H -1.038944 -3.682141 2.995421 0
M  V30 69 H -4.061107 -1.935891 3.027177 0
M  V30 70 H -5.246646 -3.087069 5.590273 0
M  V30 71 H -6.036634 -3.583883 2.580002 0
M  V30 72 H -6.903085 -4.223923 4.085139 0
M  V30 73 H -6.447012 -1.223083 3.322503 0
M  V30 74 H -7.334159 -1.864464 4.817561 0
M  V30 END ATOM
M  V30 BEGIN BOND
M  V30 1 1 1 2
M  V30 2 2 2 3
M  V30 3 1 3 4
M  V30 4 1 4 5
M  V30 5 1 5 6
M  V30 6 2 6 7
M  V30 7 1 7 8
M  V30 8 1 8 9
M  V30 9 1 9 10
M  V30 10 1 10 11
M  V30 11 1 11 12
M  V30 12 1 12 13
M  V30 13 1 13 14
M  V30 14 1 14 15
M  V30 15 1 15 16
M  V30 16 1 16 17
M  V30 17 2 9 18
M  V30 18 1 18 19
M  V30 19 1 19 20
M  V30 20 1 20 21
M  V30 21 1 21 22
M  V30 22 1 22 23
M  V30 23 1 23 24
M  V30 24 1 24 25
M  V30 25 1 25 26
M  V30 26 2 19 27
M  V30 27 1 27 28
M  V30 28 2 4 29
M  V30 29 1 29 30
M  V30 30 2 30 31
M  V30 31 1 31 32
M  V30 32 2 32 33
M  V30 33 1 32 34
M  V30 34 1 34 35
M  V30 35 1 35 36
M  V30 36 1 36 37
M  V30 37 1 31 2
M  V30 38 1 37 35
M  V30 39 2 28 5
M  V30 40 1 28 8
M  V30 41 1 17 12
M  V30 42 1 26 21
M  V30 43 1 1 38
M  V30 44 1 1 39
M  V30 45 1 1 40
M  V30 46 1 3 41
M  V30 47 1 6 42
M  V30 48 1 10 43
M  V30 49 1 11 44
M  V30 50 1 11 45
M  V30 51 1 12 46
M  V30 52 1 13 47
M  V30 53 1 13 48
M  V30 54 1 14 49
M  V30 55 1 14 50
M  V30 56 1 16 51
M  V30 57 1 16 52
M  V30 58 1 17 53
M  V30 59 1 17 54
M  V30 60 1 20 55
M  V30 61 1 21 56
M  V30 62 1 22 57
M  V30 63 1 22 58
M  V30 64 1 23 59
M  V30 65 1 23 60
M  V30 66 1 24 61
M  V30 67 1 24 62
M  V30 68 1 25 63
M  V30 69 1 25 64
M  V30 70 1 26 65
M  V30 71 1 26 66
M  V30 72 1 29 67
M  V30 73 1 30 68
M  V30 74 1 34 69
M  V30 75 1 35 70
M  V30 76 1 36 71
M  V30 77 1 36 72
M  V30 78 1 37 73
M  V30 79 1 37 74
M  V30 END BOND
M  V30 END CTAB
M  END
>  <Dataset>  (970) 
ChEMBL_Kinases

>  <Ligand_Instance>  (970) 
nan

>  <PDB_ID>  (970) 
nan

>  <Standardized_SMILES>  (970) 
Cc1cc(-c2cnn3c(NCC4CCOCC4)nc(NC4CCCCC4)nc23)ccc1C(=O)NC1CC1

>  <Name>  (970) 
nan

>  <Pocket>  (970) 
nan

>  <ATP_Site>  (970) 
nan

>  <Peripheral>  (970) 
nan

>  <Num_H_Atoms_ProtBoundConf>  (970) 
nan

>  <Num_Resolved_Atoms>  (970) 
nan

>  <Num_Not_Resolved_Atoms>  (970) 
nan

$$$$
CHEMBL3817890
     RDKit          3D

  0  0  0  0  0  0  0  0  0  0999 V3000
M  V30 BEGIN CTAB
M  V30 COUNTS 50 53 0 0 0
M  V30 BEGIN ATOM
M  V30 1 C -3.817696 -2.317041 2.696395 0
M  V30 2 C -3.775840 -1.652739 1.365917 0
M  V30 3 N -2.512270 -1.904513 0.664900 0
M  V30 4 C -1.442675 -1.124556 0.778579 0
M  V30 5 O -1.576097 -0.130505 1.542909 0
M  V30 6 C -0.281861 -1.433737 0.077742 0
M  V30 7 C 0.804497 -0.485377 0.299236 0
M  V30 8 C 1.648735 -0.741625 1.366391 0
M  V30 9 C 2.681374 0.139379 1.603078 0
M  V30 10 C 2.888200 1.251135 0.813151 0
M  V30 11 N 3.863361 2.249787 0.892443 0
M  V30 12 C 4.717288 2.641810 -0.078338 0
M  V30 13 C 5.650061 3.666099 0.136168 0
M  V30 14 C 5.708381 4.303606 1.376727 0
M  V30 15 C 4.809231 3.871122 2.357622 0
M  V30 16 C 4.952328 4.614697 3.637017 0
M  V30 17 C 3.935546 2.874827 2.077563 0
M  V30 18 O 3.194225 2.593561 3.049328 0
M  V30 19 C 2.013837 1.480629 -0.260244 0
M  V30 20 C 0.959063 0.615142 -0.532433 0
M  V30 21 Cl -0.164407 0.827814 -1.839166 0
M  V30 22 C -0.210172 -2.542075 -0.742372 0
M  V30 23 C -1.350074 -3.317635 -0.823923 0
M  V30 24 C -1.334633 -4.433774 -1.627427 0
M  V30 25 N -2.423720 -5.222620 -1.740078 0
M  V30 26 C -3.552756 -4.902886 -1.044409 0
M  V30 27 N -4.812930 -5.560047 -1.000337 0
M  V30 28 C -5.802092 -5.058053 -1.941613 0
M  V30 29 N -3.569156 -3.812646 -0.259292 0
M  V30 30 C -2.504776 -3.004845 -0.122887 0
M  V30 31 H -3.479691 -1.560069 3.455407 0
M  V30 32 H -4.852111 -2.566330 3.000983 0
M  V30 33 H -3.117650 -3.163070 2.807770 0
M  V30 34 H -3.957652 -0.559192 1.447904 0
M  V30 35 H -4.633817 -2.038176 0.747445 0
M  V30 36 H 1.526795 -1.595981 2.011301 0
M  V30 37 H 3.395163 0.054099 2.388840 0
M  V30 38 H 4.636862 2.126224 -1.010560 0
M  V30 39 H 6.321246 3.959810 -0.661577 0
M  V30 40 H 6.451155 5.097246 1.502218 0
M  V30 41 H 4.148006 4.305622 4.363066 0
M  V30 42 H 4.871150 5.709100 3.493760 0
M  V30 43 H 5.904327 4.297291 4.121803 0
M  V30 44 H 2.058136 2.310314 -0.958846 0
M  V30 45 H 0.701630 -2.726664 -1.251925 0
M  V30 46 H -0.464869 -4.697048 -2.175793 0
M  V30 47 H -5.048789 -6.361491 -0.340655 0
M  V30 48 H -6.743291 -5.620835 -1.787709 0
M  V30 49 H -5.450080 -5.100805 -2.981307 0
M  V30 50 H -6.059971 -3.996417 -1.725504 0
M  V30 END ATOM
M  V30 BEGIN BOND
M  V30 1 1 1 2
M  V30 2 1 2 3
M  V30 3 1 3 4
M  V30 4 2 4 5
M  V30 5 1 4 6
M  V30 6 1 6 7
M  V30 7 2 7 8
M  V30 8 1 8 9
M  V30 9 2 9 10
M  V30 10 1 10 11
M  V30 11 1 11 12
M  V30 12 2 12 13
M  V30 13 1 13 14
M  V30 14 2 14 15
M  V30 15 1 15 16
M  V30 16 1 15 17
M  V30 17 2 17 18
M  V30 18 1 10 19
M  V30 19 2 19 20
M  V30 20 1 20 21
M  V30 21 2 6 22
M  V30 22 1 22 23
M  V30 23 2 23 24
M  V30 24 1 24 25
M  V30 25 2 25 26
M  V30 26 1 26 27
M  V30 27 1 27 28
M  V30 28 1 26 29
M  V30 29 2 29 30
M  V30 30 1 30 3
M  V30 31 1 20 7
M  V30 32 1 30 23
M  V30 33 1 17 11
M  V30 34 1 1 31
M  V30 35 1 1 32
M  V30 36 1 1 33
M  V30 37 1 2 34
M  V30 38 1 2 35
M  V30 39 1 8 36
M  V30 40 1 9 37
M  V30 41 1 12 38
M  V30 42 1 13 39
M  V30 43 1 14 40
M  V30 44 1 16 41
M  V30 45 1 16 42
M  V30 46 1 16 43
M  V30 47 1 19 44
M  V30 48 1 22 45
M  V30 49 1 24 46
M  V30 50 1 27 47
M  V30 51 1 28 48
M  V30 52 1 28 49
M  V30 53 1 28 50
M  V30 END BOND
M  V30 END CTAB
M  END
>  <Dataset>  (971) 
ChEMBL_Kinases

>  <Ligand_Instance>  (971) 
nan

>  <PDB_ID>  (971) 
nan

>  <Standardized_SMILES>  (971) 
CCn1c(=O)c(-c2ccc(-n3cccc(C)c3=O)cc2Cl)cc2cnc(NC)nc21

>  <Name>  (971) 
nan

>  <Pocket>  (971) 
nan

>  <ATP_Site>  (971) 
nan

>  <Peripheral>  (971) 
nan

>  <Num_H_Atoms_ProtBoundConf>  (971) 
nan

>  <Num_Resolved_Atoms>  (971) 
nan

>  <Num_Not_Resolved_Atoms>  (971) 
nan

$$$$
CHEMBL3817856
     RDKit          3D

  0  0  0  0  0  0  0  0  0  0999 V3000
M  V30 BEGIN CTAB
M  V30 COUNTS 62 66 0 0 0
M  V30 BEGIN ATOM
M  V30 1 C 5.025451 -3.454012 4.667230 0
M  V30 2 N 5.233266 -3.176157 3.250509 0
M  V30 3 C 4.453757 -2.206319 2.565664 0
M  V30 4 N 4.832402 -0.917695 2.496078 0
M  V30 5 C 4.075839 -0.000299 1.836598 0
M  V30 6 C 2.888089 -0.362113 1.213311 0
M  V30 7 C 2.082824 0.517554 0.521248 0
M  V30 8 C 0.937001 0.010830 -0.055496 0
M  V30 9 C 0.059150 0.913567 -0.797401 0
M  V30 10 C -0.937978 1.525012 -0.039056 0
M  V30 11 C -1.831559 2.404849 -0.643424 0
M  V30 12 C -1.703568 2.651246 -1.997623 0
M  V30 13 N -2.559663 3.530301 -2.716538 0
M  V30 14 C -2.163491 4.627241 -3.368393 0
M  V30 15 C -3.115374 5.380862 -4.021233 0
M  V30 16 C -4.455731 5.027891 -4.014609 0
M  V30 17 C -4.872243 3.900593 -3.346283 0
M  V30 18 C -6.288280 3.481236 -3.308856 0
M  V30 19 C -3.873949 3.175899 -2.704610 0
M  V30 20 O -4.282467 2.137574 -2.093198 0
M  V30 21 C -0.714290 2.044934 -2.751218 0
M  V30 22 C 0.183208 1.167004 -2.166495 0
M  V30 23 Cl 1.463125 0.353585 -3.029344 0
M  V30 24 C 0.650189 -1.331543 0.082653 0
M  V30 25 O -0.433635 -1.697734 -0.489337 0
M  V30 26 N 1.416028 -2.242682 0.758771 0
M  V30 27 C 0.933143 -3.577165 0.755835 0
M  V30 28 C -0.049857 -3.951497 1.814446 0
M  V30 29 C -0.432598 -5.402297 1.603827 0
M  V30 30 C -1.149788 -5.936293 2.833828 0
M  V30 31 N -1.744741 -4.809311 3.572606 0
M  V30 32 C -0.638269 -4.167588 4.243269 0
M  V30 33 C 0.348184 -3.683774 3.231147 0
M  V30 34 F 0.619858 -2.362591 3.479110 0
M  V30 35 F 1.532677 -4.378623 3.539166 0
M  V30 36 C 2.512467 -1.682648 1.292470 0
M  V30 37 N 3.308538 -2.531953 1.959638 0
M  V30 38 H 5.910088 -3.902729 5.134229 0
M  V30 39 H 4.132319 -4.106695 4.810299 0
M  V30 40 H 4.768203 -2.507566 5.219905 0
M  V30 41 H 5.949199 -3.669773 2.695474 0
M  V30 42 H 4.321633 1.052271 1.742027 0
M  V30 43 H 2.394267 1.530494 0.474932 0
M  V30 44 H -1.037747 1.330644 1.025455 0
M  V30 45 H -2.632323 2.912594 -0.099097 0
M  V30 46 H -1.108477 4.835242 -3.327883 0
M  V30 47 H -2.750403 6.276468 -4.546495 0
M  V30 48 H -5.164108 5.653720 -4.542997 0
M  V30 49 H -6.500691 2.963392 -2.334768 0
M  V30 50 H -6.463156 2.823821 -4.182011 0
M  V30 51 H -6.993327 4.356808 -3.310787 0
M  V30 52 H -0.584033 2.209522 -3.796017 0
M  V30 53 H 1.777279 -4.310542 0.774249 0
M  V30 54 H 0.426772 -3.760286 -0.241633 0
M  V30 55 H -0.976355 -3.356555 1.625374 0
M  V30 56 H -1.119328 -5.524189 0.755280 0
M  V30 57 H 0.440197 -6.045681 1.430458 0
M  V30 58 H -0.410225 -6.387867 3.521042 0
M  V30 59 H -1.894791 -6.708665 2.580581 0
M  V30 60 H -2.347617 -5.239781 4.308639 0
M  V30 61 H -0.218716 -4.925337 4.957682 0
M  V30 62 H -1.027554 -3.299431 4.835478 0
M  V30 END ATOM
M  V30 BEGIN BOND
M  V30 1 1 1 2
M  V30 2 1 2 3
M  V30 3 2 3 4
M  V30 4 1 4 5
M  V30 5 2 5 6
M  V30 6 1 6 7
M  V30 7 2 7 8
M  V30 8 1 8 9
M  V30 9 2 9 10
M  V30 10 1 10 11
M  V30 11 2 11 12
M  V30 12 1 12 13
M  V30 13 1 13 14
M  V30 14 2 14 15
M  V30 15 1 15 16
M  V30 16 2 16 17
M  V30 17 1 17 18
M  V30 18 1 17 19
M  V30 19 2 19 20
M  V30 20 1 12 21
M  V30 21 2 21 22
M  V30 22 1 22 23
M  V30 23 1 8 24
M  V30 24 2 24 25
M  V30 25 1 24 26
M  V30 26 1 26 27
M  V30 27 1 27 28
M  V30 28 1 28 29
M  V30 29 1 29 30
M  V30 30 1 30 31
M  V30 31 1 31 32
M  V30 32 1 32 33
M  V30 33 1 33 34
M  V30 34 1 33 35
M  V30 35 1 26 36
M  V30 36 2 36 37
M  V30 37 1 37 3
M  V30 38 1 36 6
M  V30 39 1 22 9
M  V30 40 1 33 28
M  V30 41 1 19 13
M  V30 42 1 1 38
M  V30 43 1 1 39
M  V30 44 1 1 40
M  V30 45 1 2 41
M  V30 46 1 5 42
M  V30 47 1 7 43
M  V30 48 1 10 44
M  V30 49 1 11 45
M  V30 50 1 14 46
M  V30 51 1 15 47
M  V30 52 1 16 48
M  V30 53 1 18 49
M  V30 54 1 18 50
M  V30 55 1 18 51
M  V30 56 1 21 52
M  V30 57 1 27 53
M  V30 58 1 27 54
M  V30 59 1 28 55
M  V30 60 1 29 56
M  V30 61 1 29 57
M  V30 62 1 30 58
M  V30 63 1 30 59
M  V30 64 1 31 60
M  V30 65 1 32 61
M  V30 66 1 32 62
M  V30 END BOND
M  V30 END CTAB
M  END
>  <Dataset>  (972) 
ChEMBL_Kinases

>  <Ligand_Instance>  (972) 
nan

>  <PDB_ID>  (972) 
nan

>  <Standardized_SMILES>  (972) 
CNc1ncc2cc(-c3ccc(-n4cccc(C)c4=O)cc3Cl)c(=O)n(CC3CCNCC3(F)F)c2n1

>  <Name>  (972) 
nan

>  <Pocket>  (972) 
nan

>  <ATP_Site>  (972) 
nan

>  <Peripheral>  (972) 
nan

>  <Num_H_Atoms_ProtBoundConf>  (972) 
nan

>  <Num_Resolved_Atoms>  (972) 
nan

>  <Num_Not_Resolved_Atoms>  (972) 
nan

$$$$
CHEMBL381785
     RDKit          3D

  0  0  0  0  0  0  0  0  0  0999 V3000
M  V30 BEGIN CTAB
M  V30 COUNTS 54 57 0 0 0
M  V30 BEGIN ATOM
M  V30 1 C 6.772062 -6.134888 1.362827 0
M  V30 2 C 6.028281 -4.843597 1.220770 0
M  V30 3 O 5.344392 -4.369146 2.191469 0
M  V30 4 N 6.061308 -4.099498 -0.011119 0
M  V30 5 C 5.314246 -2.866139 -0.056572 0
M  V30 6 C 5.862125 -1.639752 0.298068 0
M  V30 7 C 5.108427 -0.479106 0.239804 0
M  V30 8 C 3.791015 -0.510093 -0.172790 0
M  V30 9 C 2.914602 0.656225 -0.264955 0
M  V30 10 C 3.341162 1.939715 -0.575135 0
M  V30 11 N 2.522000 3.000302 -0.653996 0
M  V30 12 C 1.206406 2.857334 -0.427428 0
M  V30 13 C 0.671920 1.625986 -0.110829 0
M  V30 14 O -0.639078 1.259130 0.157967 0
M  V30 15 C -1.633303 2.264855 0.115141 0
M  V30 16 C -3.006672 1.725269 0.427853 0 CFG=1
M  V30 17 N -3.967777 2.815757 0.363164 0
M  V30 18 C -3.472504 0.698512 -0.576727 0
M  V30 19 C -4.824732 0.241941 -0.162897 0
M  V30 20 C -6.091889 0.521697 -0.632193 0
M  V30 21 N -6.989373 -0.159132 0.102617 0
M  V30 22 C -6.362684 -0.888233 1.051706 0
M  V30 23 C -6.798886 -1.749459 2.051782 0
M  V30 24 C -5.905544 -2.371999 2.897645 0
M  V30 25 C -4.539589 -2.140802 2.756173 0
M  V30 26 C -4.152477 -1.280574 1.752626 0
M  V30 27 C -5.017834 -0.645383 0.894510 0
M  V30 28 C 1.538085 0.541032 -0.034503 0
M  V30 29 C 3.219719 -1.736759 -0.535052 0
M  V30 30 C 3.993136 -2.886637 -0.469035 0
M  V30 31 H 6.345569 -6.651640 2.266552 0
M  V30 32 H 6.535332 -6.814415 0.519144 0
M  V30 33 H 7.841348 -5.982150 1.540451 0
M  V30 34 H 6.638746 -4.524559 -0.791298 0
M  V30 35 H 6.895487 -1.626412 0.620372 0
M  V30 36 H 5.524976 0.481640 0.513501 0
M  V30 37 H 4.405880 2.078704 -0.763167 0
M  V30 38 H 0.434688 3.635839 -0.459102 0
M  V30 39 H -1.439733 3.105003 0.811244 0
M  V30 40 H -1.626457 2.681701 -0.912032 0
M  V30 41 H -3.074308 1.285846 1.436312 0
M  V30 42 H -4.762830 2.667715 1.011665 0
M  V30 43 H -3.511037 3.710728 0.617690 0
M  V30 44 H -2.810841 -0.169156 -0.599900 0
M  V30 45 H -3.539525 1.148594 -1.603530 0
M  V30 46 H -6.233720 1.202716 -1.471831 0
M  V30 47 H -8.029522 -0.118676 -0.053296 0
M  V30 48 H -7.846937 -1.933469 2.166420 0
M  V30 49 H -6.230830 -3.047261 3.682103 0
M  V30 50 H -3.838101 -2.620183 3.408637 0
M  V30 51 H -3.083792 -1.130948 1.679812 0
M  V30 52 H 1.226195 -0.478718 0.208304 0
M  V30 53 H 2.203742 -1.902283 -0.875238 0
M  V30 54 H 3.580086 -3.868629 -0.745005 0
M  V30 END ATOM
M  V30 BEGIN BOND
M  V30 1 1 1 2
M  V30 2 2 2 3
M  V30 3 1 2 4
M  V30 4 1 4 5
M  V30 5 2 5 6
M  V30 6 1 6 7
M  V30 7 2 7 8
M  V30 8 1 8 9
M  V30 9 2 9 10
M  V30 10 1 10 11
M  V30 11 2 11 12
M  V30 12 1 12 13
M  V30 13 1 13 14
M  V30 14 1 14 15
M  V30 15 1 15 16
M  V30 16 1 16 17
M  V30 17 1 16 18
M  V30 18 1 18 19
M  V30 19 2 19 20
M  V30 20 1 20 21
M  V30 21 1 21 22
M  V30 22 2 22 23
M  V30 23 1 23 24
M  V30 24 2 24 25
M  V30 25 1 25 26
M  V30 26 2 26 27
M  V30 27 2 13 28
M  V30 28 1 8 29
M  V30 29 2 29 30
M  V30 30 1 30 5
M  V30 31 1 28 9
M  V30 32 1 27 19
M  V30 33 1 27 22
M  V30 34 1 1 31
M  V30 35 1 1 32
M  V30 36 1 1 33
M  V30 37 1 4 34
M  V30 38 1 6 35
M  V30 39 1 7 36
M  V30 40 1 10 37
M  V30 41 1 12 38
M  V30 42 1 15 39
M  V30 43 1 15 40
M  V30 44 1 16 41 CFG=1
M  V30 45 1 17 42
M  V30 46 1 17 43
M  V30 47 1 18 44
M  V30 48 1 18 45
M  V30 49 1 20 46
M  V30 50 1 21 47
M  V30 51 1 23 48
M  V30 52 1 24 49
M  V30 53 1 25 50
M  V30 54 1 26 51
M  V30 55 1 28 52
M  V30 56 1 29 53
M  V30 57 1 30 54
M  V30 END BOND
M  V30 END CTAB
M  END
>  <Dataset>  (973) 
ChEMBL_Kinases

>  <Ligand_Instance>  (973) 
nan

>  <PDB_ID>  (973) 
nan

>  <Standardized_SMILES>  (973) 
CC(=O)Nc1ccc(-c2cncc(OC[C@@H](N)Cc3c[nH]c4ccccc34)c2)cc1

>  <Name>  (973) 
nan

>  <Pocket>  (973) 
nan

>  <ATP_Site>  (973) 
nan

>  <Peripheral>  (973) 
nan

>  <Num_H_Atoms_ProtBoundConf>  (973) 
nan

>  <Num_Resolved_Atoms>  (973) 
nan

>  <Num_Not_Resolved_Atoms>  (973) 
nan

$$$$
CHEMBL381808
     RDKit          3D

  0  0  0  0  0  0  0  0  0  0999 V3000
M  V30 BEGIN CTAB
M  V30 COUNTS 50 53 0 0 0
M  V30 BEGIN ATOM
M  V30 1 N -0.285913 -3.027981 2.324569 0
M  V30 2 C -0.740737 -2.000812 1.364951 0 CFG=1
M  V30 3 C -0.224812 -2.295865 0.003711 0
M  V30 4 O 1.152986 -2.324497 -0.154216 0
M  V30 5 C 2.075148 -1.330337 0.007933 0
M  V30 6 C 3.392361 -1.750334 -0.222602 0
M  V30 7 N 4.441094 -0.907137 -0.112063 0
M  V30 8 C 4.242989 0.398662 0.233101 0
M  V30 9 C 2.973611 0.881424 0.474646 0
M  V30 10 C 2.663264 2.258088 0.845405 0
M  V30 11 C 3.526672 3.216699 1.003725 0
M  V30 12 C 3.233046 4.585976 1.370484 0
M  V30 13 C 1.965158 5.053265 1.595228 0
M  V30 14 C 1.790762 6.373388 1.941559 0
M  V30 15 N 2.773201 7.276176 2.085050 0
M  V30 16 C 4.047931 6.839709 1.867346 0
M  V30 17 C 4.230765 5.521856 1.520983 0
M  V30 18 C 1.948836 -0.024186 0.345836 0
M  V30 19 C -2.236447 -1.886318 1.339112 0
M  V30 20 C -2.933911 -3.109875 0.961535 0
M  V30 21 C -3.348317 -3.950097 1.995901 0
M  V30 22 N -3.936070 -5.047876 1.501536 0
M  V30 23 C -3.938069 -4.985540 0.138513 0
M  V30 24 C -4.375894 -5.742495 -0.916273 0
M  V30 25 C -4.215239 -5.343475 -2.220885 0
M  V30 26 C -3.590494 -4.135219 -2.500402 0
M  V30 27 C -3.145020 -3.363771 -1.451932 0
M  V30 28 C -3.322580 -3.795560 -0.168329 0
M  V30 29 H -0.849836 -2.836919 3.198923 0
M  V30 30 H -0.428142 -3.981830 1.957957 0
M  V30 31 H -0.347307 -1.056376 1.824758 0
M  V30 32 H -0.720851 -1.620128 -0.725882 0
M  V30 33 H -0.582988 -3.336244 -0.250538 0
M  V30 34 H 3.771870 -2.745461 -0.507239 0
M  V30 35 H 5.077362 1.068699 0.321120 0
M  V30 36 H 1.634085 2.538145 1.009237 0
M  V30 37 H 4.581551 2.958345 0.841342 0
M  V30 38 H 1.100943 4.411854 1.507589 0
M  V30 39 H 0.768898 6.709100 2.113311 0
M  V30 40 H 4.834453 7.558223 1.981089 0
M  V30 41 H 5.257215 5.190665 1.351098 0
M  V30 42 H 0.961820 0.321816 0.513970 0
M  V30 43 H -2.453850 -1.122524 0.521218 0
M  V30 44 H -2.643747 -1.409805 2.259177 0
M  V30 45 H -3.292308 -3.893540 3.065955 0
M  V30 46 H -4.367329 -5.892634 1.935596 0
M  V30 47 H -4.863567 -6.687214 -0.682623 0
M  V30 48 H -4.578676 -5.973228 -3.027171 0
M  V30 49 H -3.444096 -3.785335 -3.522667 0
M  V30 50 H -2.678299 -2.440918 -1.691376 0
M  V30 END ATOM
M  V30 BEGIN BOND
M  V30 1 1 1 2
M  V30 2 1 2 3
M  V30 3 1 3 4
M  V30 4 1 4 5
M  V30 5 2 5 6
M  V30 6 1 6 7
M  V30 7 2 7 8
M  V30 8 1 8 9
M  V30 9 1 9 10
M  V30 10 2 10 11
M  V30 11 1 11 12
M  V30 12 2 12 13
M  V30 13 1 13 14
M  V30 14 2 14 15
M  V30 15 1 15 16
M  V30 16 2 16 17
M  V30 17 2 9 18
M  V30 18 1 2 19
M  V30 19 1 19 20
M  V30 20 2 20 21
M  V30 21 1 21 22
M  V30 22 1 22 23
M  V30 23 2 23 24
M  V30 24 1 24 25
M  V30 25 2 25 26
M  V30 26 1 26 27
M  V30 27 2 27 28
M  V30 28 1 18 5
M  V30 29 1 28 20
M  V30 30 1 17 12
M  V30 31 1 28 23
M  V30 32 1 1 29
M  V30 33 1 1 30
M  V30 34 1 2 31 CFG=1
M  V30 35 1 3 32
M  V30 36 1 3 33
M  V30 37 1 6 34
M  V30 38 1 8 35
M  V30 39 1 10 36
M  V30 40 1 11 37
M  V30 41 1 13 38
M  V30 42 1 14 39
M  V30 43 1 16 40
M  V30 44 1 17 41
M  V30 45 1 18 42
M  V30 46 1 19 43
M  V30 47 1 19 44
M  V30 48 1 21 45
M  V30 49 1 22 46
M  V30 50 1 24 47
M  V30 51 1 25 48
M  V30 52 1 26 49
M  V30 53 1 27 50
M  V30 END BOND
M  V30 END CTAB
M  END
>  <Dataset>  (974) 
ChEMBL_Kinases

>  <Ligand_Instance>  (974) 
nan

>  <PDB_ID>  (974) 
nan

>  <Standardized_SMILES>  (974) 
N[C@@H](COc1cncc(/C=C/c2ccncc2)c1)Cc1c[nH]c2ccccc12

>  <Name>  (974) 
nan

>  <Pocket>  (974) 
nan

>  <ATP_Site>  (974) 
nan

>  <Peripheral>  (974) 
nan

>  <Num_H_Atoms_ProtBoundConf>  (974) 
nan

>  <Num_Resolved_Atoms>  (974) 
nan

>  <Num_Not_Resolved_Atoms>  (974) 
nan

$$$$
CHEMBL495709
     RDKit          3D

  0  0  0  0  0  0  0  0  0  0999 V3000
M  V30 BEGIN CTAB
M  V30 COUNTS 43 45 0 0 0
M  V30 BEGIN ATOM
M  V30 1 C 0.645711 -3.606512 -0.503795 0
M  V30 2 C 0.209186 -2.674364 0.592912 0
M  V30 3 C -1.147344 -3.042386 1.150166 0
M  V30 4 C 1.192490 -2.634250 1.731997 0 CFG=1
M  V30 5 C 1.381311 -3.991818 2.367736 0
M  V30 6 O 2.168226 -3.868685 3.499031 0
M  V30 7 N 2.471708 -2.077847 1.359007 0
M  V30 8 C 2.621614 -0.752824 0.864350 0
M  V30 9 C 3.851022 -0.224222 0.506412 0
M  V30 10 C 4.038434 1.048308 0.025860 0
M  V30 11 C 2.946753 1.878810 -0.120864 0
M  V30 12 N 2.728648 3.137533 -0.540728 0
M  V30 13 C 1.416504 3.401498 -0.454665 0
M  V30 14 C 0.801375 2.262418 0.036990 0
M  V30 15 C -0.632230 2.103056 0.291022 0
M  V30 16 C -0.919137 1.503104 1.503188 0
M  V30 17 C -2.232634 1.288271 1.876648 0
M  V30 18 C -3.252612 1.676173 1.032581 0
M  V30 19 C -4.614504 1.449398 1.428007 0
M  V30 20 N -5.713494 1.258716 1.730514 0
M  V30 21 C -2.968683 2.279612 -0.186862 0
M  V30 22 C -1.643259 2.495575 -0.562031 0
M  V30 23 N 1.774070 1.346011 0.230772 0
M  V30 24 N 1.625407 0.117153 0.690388 0
M  V30 25 H 0.390461 -4.631472 -0.182016 0
M  V30 26 H 0.068964 -3.348349 -1.419385 0
M  V30 27 H 1.743896 -3.456739 -0.624498 0
M  V30 28 H 0.107804 -1.644398 0.196344 0
M  V30 29 H -1.283809 -2.700316 2.194242 0
M  V30 30 H -1.256460 -4.145128 1.117529 0
M  V30 31 H -1.970834 -2.595434 0.566814 0
M  V30 32 H 0.734477 -1.970832 2.509955 0
M  V30 33 H 1.803667 -4.710046 1.629403 0
M  V30 34 H 0.411593 -4.406912 2.709115 0
M  V30 35 H 2.201838 -2.954711 3.878079 0
M  V30 36 H 3.339131 -2.646897 1.444822 0
M  V30 37 H 4.757650 -0.839250 0.601592 0
M  V30 38 H 5.023609 1.427684 -0.245161 0
M  V30 39 H 0.920228 4.328678 -0.717807 0
M  V30 40 H -0.162528 1.177987 2.205762 0
M  V30 41 H -2.509835 0.814113 2.832142 0
M  V30 42 H -3.753231 2.593341 -0.867472 0
M  V30 43 H -1.340215 2.956572 -1.489306 0
M  V30 END ATOM
M  V30 BEGIN BOND
M  V30 1 1 1 2
M  V30 2 1 2 3
M  V30 3 1 2 4
M  V30 4 1 4 5
M  V30 5 1 5 6
M  V30 6 1 4 7
M  V30 7 1 7 8
M  V30 8 1 8 9
M  V30 9 2 9 10
M  V30 10 1 10 11
M  V30 11 2 11 12
M  V30 12 1 12 13
M  V30 13 2 13 14
M  V30 14 1 14 15
M  V30 15 2 15 16
M  V30 16 1 16 17
M  V30 17 2 17 18
M  V30 18 1 18 19
M  V30 19 3 19 20
M  V30 20 1 18 21
M  V30 21 2 21 22
M  V30 22 1 14 23
M  V30 23 1 23 24
M  V30 24 2 24 8
M  V30 25 1 23 11
M  V30 26 1 22 15
M  V30 27 1 1 25
M  V30 28 1 1 26
M  V30 29 1 1 27
M  V30 30 1 2 28
M  V30 31 1 3 29
M  V30 32 1 3 30
M  V30 33 1 3 31
M  V30 34 1 4 32 CFG=1
M  V30 35 1 5 33
M  V30 36 1 5 34
M  V30 37 1 6 35
M  V30 38 1 7 36
M  V30 39 1 9 37
M  V30 40 1 10 38
M  V30 41 1 13 39
M  V30 42 1 16 40
M  V30 43 1 17 41
M  V30 44 1 21 42
M  V30 45 1 22 43
M  V30 END BOND
M  V30 END CTAB
M  END
>  <Dataset>  (975) 
ChEMBL_Kinases

>  <Ligand_Instance>  (975) 
nan

>  <PDB_ID>  (975) 
nan

>  <Standardized_SMILES>  (975) 
CC(C)[C@@H](CO)Nc1ccc2ncc(-c3ccc(C#N)cc3)n2n1

>  <Name>  (975) 
nan

>  <Pocket>  (975) 
nan

>  <ATP_Site>  (975) 
nan

>  <Peripheral>  (975) 
nan

>  <Num_H_Atoms_ProtBoundConf>  (975) 
nan

>  <Num_Resolved_Atoms>  (975) 
nan

>  <Num_Not_Resolved_Atoms>  (975) 
nan

$$$$
CHEMBL381907
     RDKit          3D

  0  0  0  0  0  0  0  0  0  0999 V3000
M  V30 BEGIN CTAB
M  V30 COUNTS 41 42 0 0 0
M  V30 BEGIN ATOM
M  V30 1 C -0.171265 -3.767734 5.037525 0
M  V30 2 C 0.756253 -3.574357 3.830795 0
M  V30 3 O 0.220038 -2.475254 3.119619 0
M  V30 4 C 0.762519 -1.977833 1.965648 0
M  V30 5 O 1.673293 -2.826822 1.988191 0
M  V30 6 C 0.503640 -0.923815 1.013314 0
M  V30 7 C 1.430089 -0.907214 0.009139 0
M  V30 8 C 1.445310 -0.020336 -1.041583 0
M  V30 9 C 2.437867 0.021262 -2.143296 0
M  V30 10 C 1.973023 -0.853480 -3.289076 0
M  V30 11 C 2.492799 1.447235 -2.686451 0
M  V30 12 C 3.815875 -0.390417 -1.672227 0
M  V30 13 N 0.426592 0.882518 -1.011887 0
M  V30 14 C -0.485816 0.876871 -0.035329 0
M  V30 15 S -1.916865 1.922413 0.266966 0
M  V30 16 C -2.437704 1.120007 1.757271 0
M  V30 17 C -3.573778 1.504015 2.521720 0
M  V30 18 N -4.373449 2.583291 2.092518 0
M  V30 19 O -3.912574 0.924503 3.578968 0
M  V30 20 C -1.515588 0.112568 1.951711 0
M  V30 21 N -1.717865 -0.692883 3.106392 0
M  V30 22 C -0.516061 -0.002514 1.022700 0
M  V30 23 H -1.055991 -4.392251 4.744105 0
M  V30 24 H -0.549431 -2.778446 5.341101 0
M  V30 25 H 0.400530 -4.168687 5.878326 0
M  V30 26 H 1.743726 -3.266195 4.233470 0
M  V30 27 H 0.807539 -4.500864 3.225019 0
M  V30 28 H 2.278736 -1.603768 -0.080826 0
M  V30 29 H 2.728789 -1.653360 -3.487656 0
M  V30 30 H 1.017806 -1.374655 -3.036710 0
M  V30 31 H 1.787616 -0.284389 -4.226132 0
M  V30 32 H 1.415621 1.747494 -2.839623 0
M  V30 33 H 2.957900 1.406541 -3.672868 0
M  V30 34 H 3.007019 2.134834 -1.998534 0
M  V30 35 H 4.050933 -1.448529 -1.873501 0
M  V30 36 H 3.959098 -0.206644 -0.577405 0
M  V30 37 H 4.566537 0.252510 -2.170059 0
M  V30 38 H -4.695655 3.485497 1.692135 0
M  V30 39 H -5.215699 3.154485 1.916294 0
M  V30 40 H -1.475264 -0.260882 4.027006 0
M  V30 41 H -1.493308 -0.320766 4.078311 0
M  V30 END ATOM
M  V30 BEGIN BOND
M  V30 1 1 1 2
M  V30 2 1 2 3
M  V30 3 1 3 4
M  V30 4 2 4 5
M  V30 5 1 4 6
M  V30 6 2 6 7
M  V30 7 1 7 8
M  V30 8 1 8 9
M  V30 9 1 9 10
M  V30 10 1 9 11
M  V30 11 1 9 12
M  V30 12 2 8 13
M  V30 13 1 13 14
M  V30 14 1 14 15
M  V30 15 1 15 16
M  V30 16 1 16 17
M  V30 17 1 17 18
M  V30 18 2 17 19
M  V30 19 2 16 20
M  V30 20 1 20 21
M  V30 21 1 20 22
M  V30 22 1 22 6
M  V30 23 2 22 14
M  V30 24 1 1 23
M  V30 25 1 1 24
M  V30 26 1 1 25
M  V30 27 1 2 26
M  V30 28 1 2 27
M  V30 29 1 7 28
M  V30 30 1 10 29
M  V30 31 1 10 30
M  V30 32 1 10 31
M  V30 33 1 11 32
M  V30 34 1 11 33
M  V30 35 1 11 34
M  V30 36 1 12 35
M  V30 37 1 12 36
M  V30 38 1 12 37
M  V30 39 1 18 38
M  V30 40 1 18 39
M  V30 41 1 21 40
M  V30 42 1 21 41
M  V30 END BOND
M  V30 END CTAB
M  END
>  <Dataset>  (976) 
ChEMBL_Kinases

>  <Ligand_Instance>  (976) 
nan

>  <PDB_ID>  (976) 
nan

>  <Standardized_SMILES>  (976) 
CCOC(=O)c1cc(C(C)(C)C)nc2sc(C(N)=O)c(N)c12

>  <Name>  (976) 
nan

>  <Pocket>  (976) 
nan

>  <ATP_Site>  (976) 
nan

>  <Peripheral>  (976) 
nan

>  <Num_H_Atoms_ProtBoundConf>  (976) 
nan

>  <Num_Resolved_Atoms>  (976) 
nan

>  <Num_Not_Resolved_Atoms>  (976) 
nan

$$$$
CHEMBL3819019
     RDKit          3D

  0  0  0  0  0  0  0  0  0  0999 V3000
M  V30 BEGIN CTAB
M  V30 COUNTS 68 73 0 0 0
M  V30 BEGIN ATOM
M  V30 1 C 3.956877 0.510907 3.597554 0
M  V30 2 C 2.557376 0.139137 3.320615 0
M  V30 3 C 2.243120 0.117623 1.954947 0
M  V30 4 C 0.947061 -0.219321 1.541603 0
M  V30 5 C 0.662468 -0.229517 0.105165 0
M  V30 6 C 1.058509 0.760212 -0.784535 0
M  V30 7 N 0.606204 0.381006 -1.993445 0
M  V30 8 N -0.038236 -0.770444 -1.905558 0
M  V30 9 C -0.670060 -1.576639 -2.775144 0
M  V30 10 N -0.713487 -1.190346 -4.143960 0
M  V30 11 C -1.902080 -0.392067 -4.350830 0
M  V30 12 C -2.043674 0.074581 -5.781068 0
M  V30 13 C -0.877730 0.921856 -6.218902 0
M  V30 14 C -1.271354 2.374625 -6.079628 0
M  V30 15 O -1.884673 2.542582 -4.855046 0
M  V30 16 C -3.227535 2.136507 -4.997710 0
M  V30 17 C -3.319611 0.892714 -5.859103 0
M  V30 18 N -1.236196 -2.709483 -2.338408 0
M  V30 19 C -1.232556 -3.134072 -1.061821 0
M  V30 20 N -1.857862 -4.338683 -0.718630 0
M  V30 21 C -1.963783 -4.945306 0.536137 0
M  V30 22 C -1.468904 -4.480338 1.725909 0
M  V30 23 C -1.582125 -5.091583 2.955887 0
M  V30 24 C -2.249445 -6.280866 3.024636 0
M  V30 25 C -2.773366 -6.812667 1.882659 0
M  V30 26 F -3.433711 -7.993146 1.961388 0
M  V30 27 C -2.622492 -6.147762 0.688866 0
M  V30 28 N -0.601064 -2.327158 -0.196115 0
M  V30 29 C -0.035255 -1.195513 -0.630965 0
M  V30 30 C -0.020205 -0.529946 2.477422 0
M  V30 31 C 0.295941 -0.507559 3.836154 0
M  V30 32 C 1.574675 -0.174856 4.238133 0
M  V30 33 C 2.027686 -0.116307 5.625073 0
M  V30 34 O 1.988167 -1.121168 6.407384 0
M  V30 35 N 2.523490 1.117741 6.085751 0
M  V30 36 C 2.997126 1.259301 7.462876 0
M  V30 37 C 4.010239 2.307250 7.729684 0
M  V30 38 C 2.609638 2.594796 8.116278 0
M  V30 39 H 4.223077 0.277585 4.645890 0
M  V30 40 H 4.151173 1.586549 3.428249 0
M  V30 41 H 4.617662 -0.039729 2.886170 0
M  V30 42 H 2.973470 0.356038 1.166377 0
M  V30 43 H 1.619626 1.662573 -0.564028 0
M  V30 44 H -0.064415 -1.382855 -4.959046 0
M  V30 45 H -1.940652 0.509281 -3.705238 0
M  V30 46 H -2.826074 -0.965926 -4.111367 0
M  V30 47 H -2.206432 -0.788546 -6.480851 0
M  V30 48 H -0.698810 0.759181 -7.316348 0
M  V30 49 H 0.026394 0.757935 -5.603106 0
M  V30 50 H -1.907104 2.706815 -6.946039 0
M  V30 51 H -0.375097 3.041453 -6.101744 0
M  V30 52 H -3.647223 1.937019 -3.983568 0
M  V30 53 H -3.817455 2.941629 -5.443136 0
M  V30 54 H -4.132444 0.263003 -5.438030 0
M  V30 55 H -3.611042 1.125937 -6.901069 0
M  V30 56 H -2.315481 -4.868089 -1.514639 0
M  V30 57 H -0.929760 -3.544886 1.746657 0
M  V30 58 H -1.170413 -4.673434 3.852197 0
M  V30 59 H -2.356220 -6.785427 3.970787 0
M  V30 60 H -3.078811 -6.654427 -0.176311 0
M  V30 61 H -1.032175 -0.793383 2.164103 0
M  V30 62 H -0.425668 -0.742832 4.610085 0
M  V30 63 H 2.567998 1.958863 5.467635 0
M  V30 64 H 2.947493 0.368322 8.108453 0
M  V30 65 H 4.384141 2.896717 6.854777 0
M  V30 66 H 4.780005 2.201300 8.514178 0
M  V30 67 H 1.975753 3.302075 7.557896 0
M  V30 68 H 2.418087 2.560306 9.222583 0
M  V30 END ATOM
M  V30 BEGIN BOND
M  V30 1 1 1 2
M  V30 2 2 2 3
M  V30 3 1 3 4
M  V30 4 1 4 5
M  V30 5 1 5 6
M  V30 6 2 6 7
M  V30 7 1 7 8
M  V30 8 1 8 9
M  V30 9 1 9 10
M  V30 10 1 10 11
M  V30 11 1 11 12
M  V30 12 1 12 13
M  V30 13 1 13 14
M  V30 14 1 14 15
M  V30 15 1 15 16
M  V30 16 1 16 17
M  V30 17 2 9 18
M  V30 18 1 18 19
M  V30 19 1 19 20
M  V30 20 1 20 21
M  V30 21 2 21 22
M  V30 22 1 22 23
M  V30 23 2 23 24
M  V30 24 1 24 25
M  V30 25 1 25 26
M  V30 26 2 25 27
M  V30 27 2 19 28
M  V30 28 1 28 29
M  V30 29 2 4 30
M  V30 30 1 30 31
M  V30 31 2 31 32
M  V30 32 1 32 33
M  V30 33 2 33 34
M  V30 34 1 33 35
M  V30 35 1 35 36
M  V30 36 1 36 37
M  V30 37 1 37 38
M  V30 38 1 32 2
M  V30 39 1 38 36
M  V30 40 2 29 5
M  V30 41 1 29 8
M  V30 42 1 17 12
M  V30 43 1 27 21
M  V30 44 1 1 39
M  V30 45 1 1 40
M  V30 46 1 1 41
M  V30 47 1 3 42
M  V30 48 1 6 43
M  V30 49 1 10 44
M  V30 50 1 11 45
M  V30 51 1 11 46
M  V30 52 1 12 47
M  V30 53 1 13 48
M  V30 54 1 13 49
M  V30 55 1 14 50
M  V30 56 1 14 51
M  V30 57 1 16 52
M  V30 58 1 16 53
M  V30 59 1 17 54
M  V30 60 1 17 55
M  V30 61 1 20 56
M  V30 62 1 22 57
M  V30 63 1 23 58
M  V30 64 1 24 59
M  V30 65 1 27 60
M  V30 66 1 30 61
M  V30 67 1 31 62
M  V30 68 1 35 63
M  V30 69 1 36 64
M  V30 70 1 37 65
M  V30 71 1 37 66
M  V30 72 1 38 67
M  V30 73 1 38 68
M  V30 END BOND
M  V30 END CTAB
M  END
>  <Dataset>  (977) 
ChEMBL_Kinases

>  <Ligand_Instance>  (977) 
nan

>  <PDB_ID>  (977) 
nan

>  <Standardized_SMILES>  (977) 
Cc1cc(-c2cnn3c(NCC4CCOCC4)nc(Nc4cccc(F)c4)nc23)ccc1C(=O)NC1CC1

>  <Name>  (977) 
nan

>  <Pocket>  (977) 
nan

>  <ATP_Site>  (977) 
nan

>  <Peripheral>  (977) 
nan

>  <Num_H_Atoms_ProtBoundConf>  (977) 
nan

>  <Num_Resolved_Atoms>  (977) 
nan

>  <Num_Not_Resolved_Atoms>  (977) 
nan

$$$$
CHEMBL3819003
     RDKit          3D

  0  0  0  0  0  0  0  0  0  0999 V3000
M  V30 BEGIN CTAB
M  V30 COUNTS 69 74 0 0 0
M  V30 BEGIN ATOM
M  V30 1 C 4.651494 0.895237 3.274327 0
M  V30 2 C 3.207876 1.066796 2.983460 0
M  V30 3 C 2.647155 0.162214 2.070350 0
M  V30 4 C 1.289513 0.213101 1.714645 0
M  V30 5 C 0.864853 -0.789512 0.745577 0
M  V30 6 C 1.617291 -1.073174 -0.403051 0
M  V30 7 N 1.002087 -2.039766 -1.129726 0
M  V30 8 N -0.115283 -2.384358 -0.489238 0
M  V30 9 C -1.091481 -3.281180 -0.759258 0
M  V30 10 N -1.050133 -4.077989 -1.904661 0
M  V30 11 C -1.537794 -4.063802 -3.270285 0
M  V30 12 C -1.012420 -2.816629 -3.929294 0
M  V30 13 N -1.474888 -1.646492 -3.207852 0
M  V30 14 C -2.896935 -1.453032 -3.346296 0
M  V30 15 C -3.354154 -0.246158 -2.579987 0
M  V30 16 O -2.571275 0.857942 -2.812211 0
M  V30 17 C -1.732961 0.703307 -3.914539 0
M  V30 18 C -0.808332 -0.450509 -3.701727 0
M  V30 19 N -2.117855 -3.395379 0.107732 0
M  V30 20 C -2.236293 -2.667834 1.236759 0
M  V30 21 O -3.346129 -2.850291 2.088135 0
M  V30 22 C -4.257282 -3.799379 1.644892 0
M  V30 23 C -5.562332 -3.326596 1.428325 0
M  V30 24 C -6.556073 -4.170246 0.987800 0
M  V30 25 C -6.329879 -5.506496 0.738239 0
M  V30 26 C -5.050872 -5.972246 0.950552 0
M  V30 27 F -4.611377 -7.241736 0.772659 0
M  V30 28 C -4.026935 -5.157334 1.391848 0
M  V30 29 F -2.742542 -5.471501 1.639794 0
M  V30 30 N -1.236172 -1.770759 1.484214 0
M  V30 31 C -0.205823 -1.645609 0.628538 0
M  V30 32 C 0.485187 1.183877 2.282644 0
M  V30 33 C 1.028771 2.075132 3.178871 0
M  V30 34 C 2.361934 2.013928 3.518173 0
M  V30 35 C 3.069831 2.928323 4.446130 0
M  V30 36 O 3.042218 3.064277 5.697397 0
M  V30 37 N 3.951727 3.820908 3.755787 0
M  V30 38 C 4.837040 4.869250 4.223510 0
M  V30 39 C 6.270372 4.756980 3.601813 0
M  V30 40 C 5.359340 5.897974 3.322092 0
M  V30 41 H 4.720721 0.304740 4.233913 0
M  V30 42 H 5.194330 1.825284 3.413154 0
M  V30 43 H 5.150287 0.338926 2.467018 0
M  V30 44 H 3.295260 -0.601890 1.628005 0
M  V30 45 H 2.555754 -0.656072 -0.763709 0
M  V30 46 H -0.470812 -4.878878 -1.516018 0
M  V30 47 H -2.615344 -4.116675 -3.383004 0
M  V30 48 H -1.071233 -4.967423 -3.777323 0
M  V30 49 H -1.295684 -2.759017 -5.005639 0
M  V30 50 H 0.092623 -2.898214 -3.919990 0
M  V30 51 H -3.409146 -2.357461 -2.946131 0
M  V30 52 H -3.161360 -1.417496 -4.414892 0
M  V30 53 H -4.436952 -0.045948 -2.817083 0
M  V30 54 H -3.301995 -0.511847 -1.483509 0
M  V30 55 H -1.137031 1.629055 -4.011438 0
M  V30 56 H -2.331460 0.615953 -4.865022 0
M  V30 57 H -0.319467 -0.718612 -4.655082 0
M  V30 58 H -0.029969 -0.130194 -2.972958 0
M  V30 59 H -5.842965 -2.273256 1.598330 0
M  V30 60 H -7.552043 -3.768253 0.835626 0
M  V30 61 H -7.066443 -6.216163 0.392734 0
M  V30 62 H -0.555184 1.213713 2.001378 0
M  V30 63 H 0.447784 2.851054 3.653222 0
M  V30 64 H 4.006334 3.752139 2.687202 0
M  V30 65 H 4.834429 5.036990 5.312547 0
M  V30 66 H 6.420498 4.040057 2.797242 0
M  V30 67 H 7.097459 4.818278 4.332886 0
M  V30 68 H 5.656791 6.880521 3.749864 0
M  V30 69 H 4.972190 5.993671 2.266863 0
M  V30 END ATOM
M  V30 BEGIN BOND
M  V30 1 1 1 2
M  V30 2 2 2 3
M  V30 3 1 3 4
M  V30 4 1 4 5
M  V30 5 1 5 6
M  V30 6 2 6 7
M  V30 7 1 7 8
M  V30 8 1 8 9
M  V30 9 1 9 10
M  V30 10 1 10 11
M  V30 11 1 11 12
M  V30 12 1 12 13
M  V30 13 1 13 14
M  V30 14 1 14 15
M  V30 15 1 15 16
M  V30 16 1 16 17
M  V30 17 1 17 18
M  V30 18 2 9 19
M  V30 19 1 19 20
M  V30 20 1 20 21
M  V30 21 1 21 22
M  V30 22 2 22 23
M  V30 23 1 23 24
M  V30 24 2 24 25
M  V30 25 1 25 26
M  V30 26 1 26 27
M  V30 27 2 26 28
M  V30 28 1 28 29
M  V30 29 2 20 30
M  V30 30 1 30 31
M  V30 31 2 4 32
M  V30 32 1 32 33
M  V30 33 2 33 34
M  V30 34 1 34 35
M  V30 35 2 35 36
M  V30 36 1 35 37
M  V30 37 1 37 38
M  V30 38 1 38 39
M  V30 39 1 39 40
M  V30 40 1 34 2
M  V30 41 1 40 38
M  V30 42 2 31 5
M  V30 43 1 31 8
M  V30 44 1 18 13
M  V30 45 1 28 22
M  V30 46 1 1 41
M  V30 47 1 1 42
M  V30 48 1 1 43
M  V30 49 1 3 44
M  V30 50 1 6 45
M  V30 51 1 10 46
M  V30 52 1 11 47
M  V30 53 1 11 48
M  V30 54 1 12 49
M  V30 55 1 12 50
M  V30 56 1 14 51
M  V30 57 1 14 52
M  V30 58 1 15 53
M  V30 59 1 15 54
M  V30 60 1 17 55
M  V30 61 1 17 56
M  V30 62 1 18 57
M  V30 63 1 18 58
M  V30 64 1 23 59
M  V30 65 1 24 60
M  V30 66 1 25 61
M  V30 67 1 32 62
M  V30 68 1 33 63
M  V30 69 1 37 64
M  V30 70 1 38 65
M  V30 71 1 39 66
M  V30 72 1 39 67
M  V30 73 1 40 68
M  V30 74 1 40 69
M  V30 END BOND
M  V30 END CTAB
M  END
>  <Dataset>  (978) 
ChEMBL_Kinases

>  <Ligand_Instance>  (978) 
nan

>  <PDB_ID>  (978) 
nan

>  <Standardized_SMILES>  (978) 
Cc1cc(-c2cnn3c(NCCN4CCOCC4)nc(Oc4cccc(F)c4F)nc23)ccc1C(=O)NC1CC1

>  <Name>  (978) 
nan

>  <Pocket>  (978) 
nan

>  <ATP_Site>  (978) 
nan

>  <Peripheral>  (978) 
nan

>  <Num_H_Atoms_ProtBoundConf>  (978) 
nan

>  <Num_Resolved_Atoms>  (978) 
nan

>  <Num_Not_Resolved_Atoms>  (978) 
nan

$$$$
CHEMBL3818914
     RDKit          3D

  0  0  0  0  0  0  0  0  0  0999 V3000
M  V30 BEGIN CTAB
M  V30 COUNTS 68 73 0 0 0
M  V30 BEGIN ATOM
M  V30 1 O 7.796411 -0.938958 0.140921 0
M  V30 2 C 6.889868 -0.726120 0.987087 0
M  V30 3 N 7.279769 -0.987322 2.314721 0
M  V30 4 C 8.581250 -1.458285 2.739703 0
M  V30 5 C 8.521514 -2.542132 3.796010 0
M  V30 6 C 9.093076 -1.163404 4.096310 0
M  V30 7 C 5.552365 -0.251897 0.638526 0
M  V30 8 C 4.530767 -0.009756 1.524874 0
M  V30 9 C 3.294873 0.438341 1.108431 0
M  V30 10 C 3.043840 0.661034 -0.240954 0
M  V30 11 C 1.716404 1.140946 -0.679013 0
M  V30 12 C 1.349878 2.118666 -1.569658 0
M  V30 13 N 0.025560 2.149957 -1.600460 0
M  V30 14 N -0.513981 1.241450 -0.774331 0
M  V30 15 C -1.801383 0.900315 -0.466571 0
M  V30 16 N -2.815714 1.651225 -1.115661 0
M  V30 17 C -4.238269 1.573722 -1.120634 0
M  V30 18 C -4.851871 0.408822 -1.803244 0
M  V30 19 C -4.496887 -0.940917 -1.283116 0
M  V30 20 C -5.450774 -1.928990 -1.971657 0
M  V30 21 O -6.367121 -1.261832 -2.782398 0
M  V30 22 C -5.753647 -0.565991 -3.828445 0
M  V30 23 C -4.661090 0.376208 -3.304838 0
M  V30 24 N -2.059855 -0.072472 0.417726 0
M  V30 25 C -1.029928 -0.705172 0.996558 0
M  V30 26 N -1.127402 -1.748651 1.961031 0
M  V30 27 C -2.317932 -2.341206 2.501588 0
M  V30 28 C -3.085210 -3.046610 1.398777 0
M  V30 29 C -4.517527 -3.043816 1.827234 0
M  V30 30 C -4.694146 -1.849580 2.742016 0
M  V30 31 C -3.307822 -1.288228 3.001363 0
M  V30 32 N 0.215227 -0.329864 0.657391 0
M  V30 33 C 0.524661 0.630901 -0.216758 0
M  V30 34 C 4.046874 0.429673 -1.172741 0
M  V30 35 C 5.266200 -0.019234 -0.695487 0
M  V30 36 H 6.585508 -0.836697 3.093772 0
M  V30 37 H 9.312328 -1.620836 1.948725 0
M  V30 38 H 7.568805 -2.825743 4.254676 0
M  V30 39 H 9.229683 -3.393044 3.731092 0
M  V30 40 H 8.532604 -0.562689 4.828116 0
M  V30 41 H 10.181644 -1.149367 4.230292 0
M  V30 42 H 4.727708 -0.183047 2.564842 0
M  V30 43 H 2.524070 0.615377 1.831095 0
M  V30 44 H 2.068216 2.716888 -2.113049 0
M  V30 45 H -2.529161 2.458407 -1.751427 0
M  V30 46 H -4.594537 1.509308 -0.036979 0
M  V30 47 H -4.759532 2.493062 -1.480656 0
M  V30 48 H -5.975273 0.502346 -1.672937 0
M  V30 49 H -4.625337 -0.976517 -0.191156 0
M  V30 50 H -3.496139 -1.225978 -1.651198 0
M  V30 51 H -6.006013 -2.501306 -1.230527 0
M  V30 52 H -4.924706 -2.646227 -2.617386 0
M  V30 53 H -6.555096 0.111224 -4.232491 0
M  V30 54 H -5.406513 -1.200268 -4.646248 0
M  V30 55 H -4.740183 1.364680 -3.774513 0
M  V30 56 H -3.687249 -0.143417 -3.488011 0
M  V30 57 H -0.246356 -2.167563 2.352616 0
M  V30 58 H -2.104990 -3.020969 3.327192 0
M  V30 59 H -2.713440 -4.110146 1.402210 0
M  V30 60 H -2.913076 -2.655634 0.403270 0
M  V30 61 H -4.779230 -3.993798 2.374634 0
M  V30 62 H -5.190838 -2.984342 0.971818 0
M  V30 63 H -5.339594 -1.071788 2.289594 0
M  V30 64 H -5.151559 -2.134059 3.710961 0
M  V30 65 H -3.168758 -1.128497 4.082777 0
M  V30 66 H -3.200827 -0.321245 2.486864 0
M  V30 67 H 3.891471 0.589918 -2.223581 0
M  V30 68 H 6.031172 -0.189720 -1.463920 0
M  V30 END ATOM
M  V30 BEGIN BOND
M  V30 1 2 1 2
M  V30 2 1 2 3
M  V30 3 1 3 4
M  V30 4 1 4 5
M  V30 5 1 5 6
M  V30 6 1 2 7
M  V30 7 2 7 8
M  V30 8 1 8 9
M  V30 9 2 9 10
M  V30 10 1 10 11
M  V30 11 1 11 12
M  V30 12 2 12 13
M  V30 13 1 13 14
M  V30 14 1 14 15
M  V30 15 1 15 16
M  V30 16 1 16 17
M  V30 17 1 17 18
M  V30 18 1 18 19
M  V30 19 1 19 20
M  V30 20 1 20 21
M  V30 21 1 21 22
M  V30 22 1 22 23
M  V30 23 2 15 24
M  V30 24 1 24 25
M  V30 25 1 25 26
M  V30 26 1 26 27
M  V30 27 1 27 28
M  V30 28 1 28 29
M  V30 29 1 29 30
M  V30 30 1 30 31
M  V30 31 2 25 32
M  V30 32 1 32 33
M  V30 33 1 10 34
M  V30 34 2 34 35
M  V30 35 1 6 4
M  V30 36 1 35 7
M  V30 37 2 33 11
M  V30 38 1 33 14
M  V30 39 1 23 18
M  V30 40 1 31 27
M  V30 41 1 3 36
M  V30 42 1 4 37
M  V30 43 1 5 38
M  V30 44 1 5 39
M  V30 45 1 6 40
M  V30 46 1 6 41
M  V30 47 1 8 42
M  V30 48 1 9 43
M  V30 49 1 12 44
M  V30 50 1 16 45
M  V30 51 1 17 46
M  V30 52 1 17 47
M  V30 53 1 18 48
M  V30 54 1 19 49
M  V30 55 1 19 50
M  V30 56 1 20 51
M  V30 57 1 20 52
M  V30 58 1 22 53
M  V30 59 1 22 54
M  V30 60 1 23 55
M  V30 61 1 23 56
M  V30 62 1 26 57
M  V30 63 1 27 58
M  V30 64 1 28 59
M  V30 65 1 28 60
M  V30 66 1 29 61
M  V30 67 1 29 62
M  V30 68 1 30 63
M  V30 69 1 30 64
M  V30 70 1 31 65
M  V30 71 1 31 66
M  V30 72 1 34 67
M  V30 73 1 35 68
M  V30 END BOND
M  V30 END CTAB
M  END
>  <Dataset>  (979) 
ChEMBL_Kinases

>  <Ligand_Instance>  (979) 
nan

>  <PDB_ID>  (979) 
nan

>  <Standardized_SMILES>  (979) 
O=C(NC1CC1)c1ccc(-c2cnn3c(NCC4CCOCC4)nc(NC4CCCC4)nc23)cc1

>  <Name>  (979) 
nan

>  <Pocket>  (979) 
nan

>  <ATP_Site>  (979) 
nan

>  <Peripheral>  (979) 
nan

>  <Num_H_Atoms_ProtBoundConf>  (979) 
nan

>  <Num_Resolved_Atoms>  (979) 
nan

>  <Num_Not_Resolved_Atoms>  (979) 
nan

$$$$
CHEMBL3818828
     RDKit          3D

  0  0  0  0  0  0  0  0  0  0999 V3000
M  V30 BEGIN CTAB
M  V30 COUNTS 63 67 0 0 0
M  V30 BEGIN ATOM
M  V30 1 C 5.390417 -6.010751 1.894715 0
M  V30 2 N 5.515520 -5.029772 0.833769 0
M  V30 3 C 4.725054 -3.871062 1.117600 0
M  V30 4 N 5.247816 -2.831582 1.806054 0
M  V30 5 C 4.481134 -1.741242 2.065079 0
M  V30 6 C 3.179142 -1.741572 1.606397 0
M  V30 7 C 2.451430 -0.604477 1.901909 0
M  V30 8 C 1.148387 -0.590158 1.450478 0
M  V30 9 C 0.192170 0.522788 1.654013 0
M  V30 10 C 0.177175 1.499008 0.664942 0
M  V30 11 C -0.703362 2.558545 0.816470 0
M  V30 12 C -1.509497 2.572626 1.944520 0
M  V30 13 N -2.435332 3.654857 2.136710 0
M  V30 14 C -2.092313 4.956296 2.297515 0
M  V30 15 C -3.092740 5.894079 2.473643 0
M  V30 16 C -4.418432 5.521204 2.486856 0
M  V30 17 C -4.713624 4.199889 2.321034 0
M  V30 18 C -6.144005 3.763504 2.330687 0
M  V30 19 C -3.742986 3.263824 2.146577 0
M  V30 20 O -4.085221 2.049989 1.997678 0
M  V30 21 C -1.491202 1.598482 2.926762 0
M  V30 22 C -0.609949 0.531588 2.781828 0
M  V30 23 Cl -0.507329 -0.756256 3.969298 0
M  V30 24 C 0.629743 -1.657158 0.750492 0
M  V30 25 O -0.549188 -1.693390 0.321370 0
M  V30 26 N 1.320409 -2.768434 0.453639 0
M  V30 27 C 0.972569 -3.964621 -0.275577 0
M  V30 28 C 1.313888 -3.957456 -1.722290 0
M  V30 29 O 0.758422 -3.038351 -2.540671 0
M  V30 30 C -0.594275 -3.019351 -2.703488 0
M  V30 31 C -0.999353 -3.078810 -4.196829 0
M  V30 32 N -1.714849 -1.850006 -4.119018 0
M  V30 33 C -3.143526 -1.890673 -4.073250 0
M  V30 34 C -1.148048 -1.629579 -2.805109 0
M  V30 35 C 2.614432 -2.785096 0.901207 0
M  V30 36 N 3.450903 -3.817781 0.694734 0
M  V30 37 H 5.810112 -6.989457 1.631636 0
M  V30 38 H 4.327019 -6.187444 2.181517 0
M  V30 39 H 5.924362 -5.688124 2.828908 0
M  V30 40 H 6.112358 -5.191303 -0.003029 0
M  V30 41 H 4.893670 -0.906455 2.615387 0
M  V30 42 H 2.743114 0.269109 2.428216 0
M  V30 43 H 0.832985 1.430847 -0.194081 0
M  V30 44 H -0.767658 3.353929 0.084466 0
M  V30 45 H -1.026705 5.169187 2.275053 0
M  V30 46 H -2.792311 6.923886 2.599493 0
M  V30 47 H -5.208883 6.245935 2.623831 0
M  V30 48 H -6.848415 4.590935 2.427725 0
M  V30 49 H -6.239321 3.092122 3.228555 0
M  V30 50 H -6.362100 3.101323 1.458704 0
M  V30 51 H -2.139319 1.649758 3.792317 0
M  V30 52 H 1.430004 -4.852116 0.216076 0
M  V30 53 H -0.144620 -4.076858 -0.104393 0
M  V30 54 H 1.262525 -5.010910 -2.145949 0
M  V30 55 H 2.437595 -3.764814 -1.757540 0
M  V30 56 H -1.171642 -3.741955 -2.101484 0
M  V30 57 H -1.659920 -3.937742 -4.419222 0
M  V30 58 H -0.101716 -3.002460 -4.842862 0
M  V30 59 H -3.561221 -2.549244 -4.858582 0
M  V30 60 H -3.534702 -2.142070 -3.065986 0
M  V30 61 H -3.486099 -0.828725 -4.246014 0
M  V30 62 H -1.889708 -1.322830 -2.034516 0
M  V30 63 H -0.368247 -0.826192 -2.907676 0
M  V30 END ATOM
M  V30 BEGIN BOND
M  V30 1 1 1 2
M  V30 2 1 2 3
M  V30 3 2 3 4
M  V30 4 1 4 5
M  V30 5 2 5 6
M  V30 6 1 6 7
M  V30 7 2 7 8
M  V30 8 1 8 9
M  V30 9 2 9 10
M  V30 10 1 10 11
M  V30 11 2 11 12
M  V30 12 1 12 13
M  V30 13 1 13 14
M  V30 14 2 14 15
M  V30 15 1 15 16
M  V30 16 2 16 17
M  V30 17 1 17 18
M  V30 18 1 17 19
M  V30 19 2 19 20
M  V30 20 1 12 21
M  V30 21 2 21 22
M  V30 22 1 22 23
M  V30 23 1 8 24
M  V30 24 2 24 25
M  V30 25 1 24 26
M  V30 26 1 26 27
M  V30 27 1 27 28
M  V30 28 1 28 29
M  V30 29 1 29 30
M  V30 30 1 30 31
M  V30 31 1 31 32
M  V30 32 1 32 33
M  V30 33 1 32 34
M  V30 34 1 26 35
M  V30 35 2 35 36
M  V30 36 1 36 3
M  V30 37 1 35 6
M  V30 38 1 22 9
M  V30 39 1 34 30
M  V30 40 1 19 13
M  V30 41 1 1 37
M  V30 42 1 1 38
M  V30 43 1 1 39
M  V30 44 1 2 40
M  V30 45 1 5 41
M  V30 46 1 7 42
M  V30 47 1 10 43
M  V30 48 1 11 44
M  V30 49 1 14 45
M  V30 50 1 15 46
M  V30 51 1 16 47
M  V30 52 1 18 48
M  V30 53 1 18 49
M  V30 54 1 18 50
M  V30 55 1 21 51
M  V30 56 1 27 52
M  V30 57 1 27 53
M  V30 58 1 28 54
M  V30 59 1 28 55
M  V30 60 1 30 56
M  V30 61 1 31 57
M  V30 62 1 31 58
M  V30 63 1 33 59
M  V30 64 1 33 60
M  V30 65 1 33 61
M  V30 66 1 34 62
M  V30 67 1 34 63
M  V30 END BOND
M  V30 END CTAB
M  END
>  <Dataset>  (980) 
ChEMBL_Kinases

>  <Ligand_Instance>  (980) 
nan

>  <PDB_ID>  (980) 
nan

>  <Standardized_SMILES>  (980) 
CNc1ncc2cc(-c3ccc(-n4cccc(C)c4=O)cc3Cl)c(=O)n(CCOC3CN(C)C3)c2n1

>  <Name>  (980) 
nan

>  <Pocket>  (980) 
nan

>  <ATP_Site>  (980) 
nan

>  <Peripheral>  (980) 
nan

>  <Num_H_Atoms_ProtBoundConf>  (980) 
nan

>  <Num_Resolved_Atoms>  (980) 
nan

>  <Num_Not_Resolved_Atoms>  (980) 
nan

$$$$
CHEMBL3818766
     RDKit          3D

  0  0  0  0  0  0  0  0  0  0999 V3000
M  V30 BEGIN CTAB
M  V30 COUNTS 64 69 0 0 0
M  V30 BEGIN ATOM
M  V30 1 O 7.153007 -0.779295 1.842018 0
M  V30 2 C 5.985529 -0.338551 2.056497 0
M  V30 3 N 5.695946 -0.365847 3.457742 0
M  V30 4 C 6.334578 -0.777370 4.689301 0
M  V30 5 C 5.584935 -0.481896 5.938518 0
M  V30 6 C 6.911281 0.221537 5.644112 0
M  V30 7 C 4.947169 0.151667 1.167698 0
M  V30 8 C 4.694559 1.183612 0.315788 0
M  V30 9 C 3.591319 1.409703 -0.465159 0
M  V30 10 C 2.606083 0.428046 -0.349683 0
M  V30 11 C 1.301818 0.457426 -1.065900 0
M  V30 12 C 0.862372 0.812682 -2.319625 0
M  V30 13 N -0.454211 0.594892 -2.409925 0
M  V30 14 N -0.945460 0.105592 -1.282270 0
M  V30 15 C -2.153499 -0.306167 -0.824361 0
M  V30 16 N -3.283390 -0.177013 -1.673372 0
M  V30 17 C -4.398319 -0.051055 -2.509922 0
M  V30 18 C -4.462187 -1.175616 -3.551134 0
M  V30 19 C -5.685642 -1.106171 -4.395499 0
M  V30 20 C -5.694084 -0.197664 -5.561494 0
M  V30 21 O -4.508967 -0.146086 -6.284135 0
M  V30 22 C -3.417584 0.074069 -5.441316 0
M  V30 23 C -3.228182 -1.034900 -4.440612 0
M  V30 24 N -2.230966 -0.774460 0.435467 0
M  V30 25 C -1.233766 -0.878573 1.295632 0
M  V30 26 O -0.971358 -1.282846 2.570171 0
M  V30 27 C -1.814794 -1.818697 3.465419 0
M  V30 28 C -1.098750 -1.960388 4.692990 0
M  V30 29 C -1.619181 -2.489782 5.898945 0
M  V30 30 C -2.932782 -2.855644 5.731141 0
M  V30 31 C -3.773664 -2.799102 4.666468 0
M  V30 32 C -3.110315 -2.266520 3.597554 0
M  V30 33 N -0.090885 -0.461478 0.767383 0
M  V30 34 C 0.101849 0.014731 -0.452435 0
M  V30 35 C 2.735150 -0.696902 0.493032 0
M  V30 36 C 3.922281 -0.811659 1.244004 0
M  V30 37 H 4.708608 0.035977 3.638858 0
M  V30 38 H 6.964290 -1.688182 4.562728 0
M  V30 39 H 5.556792 -1.244305 6.756338 0
M  V30 40 H 4.693830 0.183732 5.894232 0
M  V30 41 H 7.748475 -0.164585 6.285587 0
M  V30 42 H 6.953141 1.264473 5.370755 0
M  V30 43 H 5.539407 1.843368 0.338179 0
M  V30 44 H 3.474120 2.253008 -1.093112 0
M  V30 45 H 1.568106 1.202741 -3.038755 0
M  V30 46 H -3.785633 -1.084586 -1.343603 0
M  V30 47 H -4.300824 0.877295 -3.173136 0
M  V30 48 H -5.371874 0.007005 -1.980781 0
M  V30 49 H -4.384608 -2.171476 -3.086232 0
M  V30 50 H -6.552695 -0.778588 -3.730791 0
M  V30 51 H -5.994604 -2.157543 -4.681538 0
M  V30 52 H -6.483482 -0.596990 -6.266671 0
M  V30 53 H -6.085547 0.805566 -5.273561 0
M  V30 54 H -3.428688 1.077979 -4.998258 0
M  V30 55 H -2.525182 0.039897 -6.132896 0
M  V30 56 H -2.967880 -1.973016 -4.969422 0
M  V30 57 H -2.380037 -0.768262 -3.796212 0
M  V30 58 H -0.040926 -1.672785 4.873344 0
M  V30 59 H -1.111108 -2.598471 6.822178 0
M  V30 60 H -3.415553 -3.287227 6.630343 0
M  V30 61 H -4.793977 -3.101457 4.574411 0
M  V30 62 H -3.558372 -2.121219 2.605490 0
M  V30 63 H 1.964667 -1.449908 0.550892 0
M  V30 64 H 3.900132 -1.738092 1.852313 0
M  V30 END ATOM
M  V30 BEGIN BOND
M  V30 1 2 1 2
M  V30 2 1 2 3
M  V30 3 1 3 4
M  V30 4 1 4 5
M  V30 5 1 5 6
M  V30 6 1 2 7
M  V30 7 2 7 8
M  V30 8 1 8 9
M  V30 9 2 9 10
M  V30 10 1 10 11
M  V30 11 1 11 12
M  V30 12 2 12 13
M  V30 13 1 13 14
M  V30 14 1 14 15
M  V30 15 1 15 16
M  V30 16 1 16 17
M  V30 17 1 17 18
M  V30 18 1 18 19
M  V30 19 1 19 20
M  V30 20 1 20 21
M  V30 21 1 21 22
M  V30 22 1 22 23
M  V30 23 2 15 24
M  V30 24 1 24 25
M  V30 25 1 25 26
M  V30 26 1 26 27
M  V30 27 2 27 28
M  V30 28 1 28 29
M  V30 29 2 29 30
M  V30 30 1 30 31
M  V30 31 2 31 32
M  V30 32 2 25 33
M  V30 33 1 33 34
M  V30 34 1 10 35
M  V30 35 2 35 36
M  V30 36 1 6 4
M  V30 37 1 36 7
M  V30 38 2 34 11
M  V30 39 1 34 14
M  V30 40 1 23 18
M  V30 41 1 32 27
M  V30 42 1 3 37
M  V30 43 1 4 38
M  V30 44 1 5 39
M  V30 45 1 5 40
M  V30 46 1 6 41
M  V30 47 1 6 42
M  V30 48 1 8 43
M  V30 49 1 9 44
M  V30 50 1 12 45
M  V30 51 1 16 46
M  V30 52 1 17 47
M  V30 53 1 17 48
M  V30 54 1 18 49
M  V30 55 1 19 50
M  V30 56 1 19 51
M  V30 57 1 20 52
M  V30 58 1 20 53
M  V30 59 1 22 54
M  V30 60 1 22 55
M  V30 61 1 23 56
M  V30 62 1 23 57
M  V30 63 1 28 58
M  V30 64 1 29 59
M  V30 65 1 30 60
M  V30 66 1 31 61
M  V30 67 1 32 62
M  V30 68 1 35 63
M  V30 69 1 36 64
M  V30 END BOND
M  V30 END CTAB
M  END
>  <Dataset>  (981) 
ChEMBL_Kinases

>  <Ligand_Instance>  (981) 
nan

>  <PDB_ID>  (981) 
nan

>  <Standardized_SMILES>  (981) 
O=C(NC1CC1)c1ccc(-c2cnn3c(NCC4CCOCC4)nc(Oc4ccccc4)nc23)cc1

>  <Name>  (981) 
nan

>  <Pocket>  (981) 
nan

>  <ATP_Site>  (981) 
nan

>  <Peripheral>  (981) 
nan

>  <Num_H_Atoms_ProtBoundConf>  (981) 
nan

>  <Num_Resolved_Atoms>  (981) 
nan

>  <Num_Not_Resolved_Atoms>  (981) 
nan

$$$$
CHEMBL3818733
     RDKit          3D

  0  0  0  0  0  0  0  0  0  0999 V3000
M  V30 BEGIN CTAB
M  V30 COUNTS 72 77 0 0 0
M  V30 BEGIN ATOM
M  V30 1 C 2.308487 -3.797648 2.497997 0
M  V30 2 C 3.153077 -3.077856 1.503456 0
M  V30 3 C 2.680474 -1.800616 1.183896 0
M  V30 4 C 3.384845 -1.023126 0.254071 0
M  V30 5 C 2.840367 0.305437 -0.032840 0
M  V30 6 C 3.338290 1.577118 -0.239605 0
M  V30 7 N 2.311336 2.413184 -0.474615 0
M  V30 8 N 1.166173 1.742290 -0.429226 0
M  V30 9 C -0.125728 2.155298 -0.595574 0
M  V30 10 N -0.377921 3.507758 -0.873562 0
M  V30 11 C -1.687029 4.088118 -1.068223 0
M  V30 12 C -2.498895 3.889886 0.218500 0
M  V30 13 C -1.744386 4.588820 1.310964 0
M  V30 14 C -2.648373 5.007674 2.451980 0
M  V30 15 O -3.857213 4.314066 2.398702 0
M  V30 16 C -4.570415 4.828828 1.324518 0
M  V30 17 C -3.907258 4.413608 0.034349 0
M  V30 18 N -1.096111 1.234368 -0.483053 0
M  V30 19 C -0.873455 -0.057103 -0.219653 0
M  V30 20 N -1.905136 -1.039925 -0.081850 0
M  V30 21 C -3.303546 -0.771202 -0.190645 0
M  V30 22 C -4.062041 -2.079785 0.038474 0
M  V30 23 C -3.825751 -2.985764 -1.146795 0
M  V30 24 O -4.363263 -2.446124 -2.295205 0
M  V30 25 C -4.709000 -1.121025 -2.210102 0
M  V30 26 C -3.654187 -0.281031 -1.565696 0
M  V30 27 N 0.408734 -0.377731 -0.072228 0
M  V30 28 C 1.454955 0.457604 -0.162660 0
M  V30 29 C 4.530257 -1.521704 -0.332972 0
M  V30 30 C 4.985610 -2.781700 -0.009054 0
M  V30 31 C 4.300819 -3.555316 0.903801 0
M  V30 32 C 4.609132 -4.905567 1.374455 0
M  V30 33 O 5.394719 -5.209248 2.318686 0
M  V30 34 N 3.961318 -5.995706 0.705449 0
M  V30 35 C 4.050013 -7.441648 0.930211 0
M  V30 36 C 2.731072 -8.193706 0.697369 0
M  V30 37 C 3.907415 -8.311649 -0.266460 0
M  V30 38 H 1.226600 -3.723137 2.230509 0
M  V30 39 H 2.633642 -4.839668 2.647930 0
M  V30 40 H 2.428445 -3.266857 3.463906 0
M  V30 41 H 1.769063 -1.381143 1.638795 0
M  V30 42 H 4.420547 1.693912 -0.182134 0
M  V30 43 H 0.432759 4.174495 -0.952447 0
M  V30 44 H -2.265141 3.568387 -1.866754 0
M  V30 45 H -1.642896 5.139342 -1.343731 0
M  V30 46 H -2.576893 2.812208 0.464181 0
M  V30 47 H -1.089371 5.408741 0.955980 0
M  V30 48 H -1.027818 3.828058 1.739311 0
M  V30 49 H -2.196126 4.864513 3.453636 0
M  V30 50 H -2.894083 6.099479 2.365596 0
M  V30 51 H -5.625519 4.475989 1.390814 0
M  V30 52 H -4.624660 5.936369 1.376631 0
M  V30 53 H -3.914676 5.270342 -0.701008 0
M  V30 54 H -4.571552 3.615331 -0.399634 0
M  V30 55 H -1.568209 -2.031634 0.114674 0
M  V30 56 H -3.595684 -0.054501 0.612524 0
M  V30 57 H -5.144955 -1.877458 0.094586 0
M  V30 58 H -3.722408 -2.591359 0.961144 0
M  V30 59 H -4.318417 -3.960732 -0.961145 0
M  V30 60 H -2.730837 -3.147556 -1.322611 0
M  V30 61 H -4.837305 -0.766711 -3.271545 0
M  V30 62 H -5.663702 -0.973130 -1.647317 0
M  V30 63 H -4.031342 0.757841 -1.442393 0
M  V30 64 H -2.744491 -0.197910 -2.192154 0
M  V30 65 H 5.072521 -0.928483 -1.046237 0
M  V30 66 H 5.861964 -3.247421 -0.410944 0
M  V30 67 H 3.307352 -5.731757 -0.084907 0
M  V30 68 H 4.684604 -7.828145 1.746854 0
M  V30 69 H 1.853489 -7.575307 0.398277 0
M  V30 70 H 2.544897 -9.131242 1.259796 0
M  V30 71 H 4.413472 -9.269290 -0.372607 0
M  V30 72 H 3.711611 -7.788577 -1.243804 0
M  V30 END ATOM
M  V30 BEGIN BOND
M  V30 1 1 1 2
M  V30 2 2 2 3
M  V30 3 1 3 4
M  V30 4 1 4 5
M  V30 5 1 5 6
M  V30 6 2 6 7
M  V30 7 1 7 8
M  V30 8 1 8 9
M  V30 9 1 9 10
M  V30 10 1 10 11
M  V30 11 1 11 12
M  V30 12 1 12 13
M  V30 13 1 13 14
M  V30 14 1 14 15
M  V30 15 1 15 16
M  V30 16 1 16 17
M  V30 17 2 9 18
M  V30 18 1 18 19
M  V30 19 1 19 20
M  V30 20 1 20 21
M  V30 21 1 21 22
M  V30 22 1 22 23
M  V30 23 1 23 24
M  V30 24 1 24 25
M  V30 25 1 25 26
M  V30 26 2 19 27
M  V30 27 1 27 28
M  V30 28 2 4 29
M  V30 29 1 29 30
M  V30 30 2 30 31
M  V30 31 1 31 32
M  V30 32 2 32 33
M  V30 33 1 32 34
M  V30 34 1 34 35
M  V30 35 1 35 36
M  V30 36 1 36 37
M  V30 37 1 31 2
M  V30 38 1 37 35
M  V30 39 2 28 5
M  V30 40 1 28 8
M  V30 41 1 17 12
M  V30 42 1 26 21
M  V30 43 1 1 38
M  V30 44 1 1 39
M  V30 45 1 1 40
M  V30 46 1 3 41
M  V30 47 1 6 42
M  V30 48 1 10 43
M  V30 49 1 11 44
M  V30 50 1 11 45
M  V30 51 1 12 46
M  V30 52 1 13 47
M  V30 53 1 13 48
M  V30 54 1 14 49
M  V30 55 1 14 50
M  V30 56 1 16 51
M  V30 57 1 16 52
M  V30 58 1 17 53
M  V30 59 1 17 54
M  V30 60 1 20 55
M  V30 61 1 21 56
M  V30 62 1 22 57
M  V30 63 1 22 58
M  V30 64 1 23 59
M  V30 65 1 23 60
M  V30 66 1 25 61
M  V30 67 1 25 62
M  V30 68 1 26 63
M  V30 69 1 26 64
M  V30 70 1 29 65
M  V30 71 1 30 66
M  V30 72 1 34 67
M  V30 73 1 35 68
M  V30 74 1 36 69
M  V30 75 1 36 70
M  V30 76 1 37 71
M  V30 77 1 37 72
M  V30 END BOND
M  V30 END CTAB
M  END
>  <Dataset>  (982) 
ChEMBL_Kinases

>  <Ligand_Instance>  (982) 
nan

>  <PDB_ID>  (982) 
nan

>  <Standardized_SMILES>  (982) 
Cc1cc(-c2cnn3c(NCC4CCOCC4)nc(NC4CCOCC4)nc23)ccc1C(=O)NC1CC1

>  <Name>  (982) 
nan

>  <Pocket>  (982) 
nan

>  <ATP_Site>  (982) 
nan

>  <Peripheral>  (982) 
nan

>  <Num_H_Atoms_ProtBoundConf>  (982) 
nan

>  <Num_Resolved_Atoms>  (982) 
nan

>  <Num_Not_Resolved_Atoms>  (982) 
nan

$$$$
CHEMBL593142
     RDKit          3D

  0  0  0  0  0  0  0  0  0  0999 V3000
M  V30 BEGIN CTAB
M  V30 COUNTS 59 64 0 0 0
M  V30 BEGIN ATOM
M  V30 1 C -0.328353 -5.547229 3.387191 0
M  V30 2 C 0.670504 -5.633282 2.264146 0
M  V30 3 N 1.748162 -6.426609 2.132768 0
M  V30 4 N 2.369098 -6.199494 1.005193 0
M  V30 5 C 1.697685 -5.221040 0.342837 0
M  V30 6 C 1.881309 -4.578939 -0.873072 0
M  V30 7 C 1.026823 -3.600315 -1.305314 0
M  V30 8 C -0.053598 -3.215980 -0.541916 0
M  V30 9 C -1.064366 -2.205001 -0.824805 0
M  V30 10 C -1.237753 -1.105445 -0.009586 0
M  V30 11 C -2.179440 -0.122176 -0.231626 0
M  V30 12 O -2.383338 0.905340 0.480382 0
M  V30 13 C -2.587978 1.972498 1.228496 0
M  V30 14 C -1.389534 2.908088 1.372344 0 CFG=1
M  V30 15 N -1.725931 4.050415 2.208814 0
M  V30 16 C -0.329397 2.140485 2.096374 0
M  V30 17 C 0.924356 2.920290 2.324626 0
M  V30 18 C 1.342079 3.496207 3.529766 0
M  V30 19 N 2.515494 4.131237 3.409956 0
M  V30 20 C 2.902138 3.992715 2.129303 0
M  V30 21 C 4.007651 4.423086 1.416622 0
M  V30 22 C 4.141408 4.125975 0.084021 0
M  V30 23 N 3.203269 3.416790 -0.538599 0
M  V30 24 C 2.089457 2.959461 0.094601 0
M  V30 25 C 1.948484 3.259106 1.450480 0
M  V30 26 C -3.006124 -0.256981 -1.356918 0
M  V30 27 N -2.853432 -1.337891 -2.179496 0
M  V30 28 C -1.912849 -2.269192 -1.910362 0
M  V30 29 C -1.788334 -3.404608 -2.814931 0
M  V30 30 C -1.995487 -4.717734 -2.437411 0
M  V30 31 C -1.768873 -5.416618 -3.604954 0
M  V30 32 O -1.458189 -4.588827 -4.574334 0
M  V30 33 C -1.453687 -3.343641 -4.152932 0
M  V30 34 C -0.232154 -3.863667 0.676442 0
M  V30 35 C 0.623821 -4.854985 1.126216 0
M  V30 36 H 0.200915 -5.860274 4.304027 0
M  V30 37 H -1.201335 -6.175592 3.216873 0
M  V30 38 H -0.598524 -4.479723 3.530246 0
M  V30 39 H 3.222288 -6.682366 0.677429 0
M  V30 40 H 2.726249 -4.851575 -1.513256 0
M  V30 41 H 1.110904 -3.059167 -2.242649 0
M  V30 42 H -0.574176 -1.048680 0.846620 0
M  V30 43 H -3.419039 2.607045 0.766291 0
M  V30 44 H -2.969990 1.730626 2.281194 0
M  V30 45 H -1.137279 3.277083 0.383127 0
M  V30 46 H -2.750748 4.251319 2.221399 0
M  V30 47 H -1.117142 4.863552 2.018867 0
M  V30 48 H -0.091355 1.150541 1.652795 0
M  V30 49 H -0.744089 1.906178 3.101226 0
M  V30 50 H 0.740147 3.410044 4.447181 0
M  V30 51 H 3.014222 4.632071 4.183151 0
M  V30 52 H 4.757216 5.001837 1.958104 0
M  V30 53 H 5.015783 4.470062 -0.466288 0
M  V30 54 H 1.298643 2.375396 -0.382200 0
M  V30 55 H -3.795045 0.432828 -1.668077 0
M  V30 56 H -2.266318 -5.152954 -1.491624 0
M  V30 57 H -1.813068 -6.484340 -3.802035 0
M  V30 58 H -1.226578 -2.486903 -4.772457 0
M  V30 59 H -1.055736 -3.633983 1.355283 0
M  V30 END ATOM
M  V30 BEGIN BOND
M  V30 1 1 1 2
M  V30 2 2 2 3
M  V30 3 1 3 4
M  V30 4 1 4 5
M  V30 5 2 5 6
M  V30 6 1 6 7
M  V30 7 2 7 8
M  V30 8 1 8 9
M  V30 9 2 9 10
M  V30 10 1 10 11
M  V30 11 1 11 12
M  V30 12 1 12 13
M  V30 13 1 13 14
M  V30 14 1 14 15
M  V30 15 1 14 16
M  V30 16 1 16 17
M  V30 17 2 17 18
M  V30 18 1 18 19
M  V30 19 1 19 20
M  V30 20 2 20 21
M  V30 21 1 21 22
M  V30 22 2 22 23
M  V30 23 1 23 24
M  V30 24 2 24 25
M  V30 25 2 11 26
M  V30 26 1 26 27
M  V30 27 2 27 28
M  V30 28 1 28 29
M  V30 29 1 29 30
M  V30 30 2 30 31
M  V30 31 1 31 32
M  V30 32 1 32 33
M  V30 33 1 8 34
M  V30 34 2 34 35
M  V30 35 1 35 2
M  V30 36 1 35 5
M  V30 37 1 28 9
M  V30 38 2 33 29
M  V30 39 1 25 17
M  V30 40 1 25 20
M  V30 41 1 1 36
M  V30 42 1 1 37
M  V30 43 1 1 38
M  V30 44 1 4 39
M  V30 45 1 6 40
M  V30 46 1 7 41
M  V30 47 1 10 42
M  V30 48 1 13 43
M  V30 49 1 13 44
M  V30 50 1 14 45 CFG=3
M  V30 51 1 15 46
M  V30 52 1 15 47
M  V30 53 1 16 48
M  V30 54 1 16 49
M  V30 55 1 18 50
M  V30 56 1 19 51
M  V30 57 1 21 52
M  V30 58 1 22 53
M  V30 59 1 24 54
M  V30 60 1 26 55
M  V30 61 1 30 56
M  V30 62 1 31 57
M  V30 63 1 33 58
M  V30 64 1 34 59
M  V30 END BOND
M  V30 END CTAB
M  END
>  <Dataset>  (983) 
ChEMBL_Kinases

>  <Ligand_Instance>  (983) 
nan

>  <PDB_ID>  (983) 
nan

>  <Standardized_SMILES>  (983) 
Cc1n[nH]c2ccc(-c3cc(OC[C@@H](N)Cc4c[nH]c5ccncc45)cnc3-c3ccoc3)cc12

>  <Name>  (983) 
nan

>  <Pocket>  (983) 
nan

>  <ATP_Site>  (983) 
nan

>  <Peripheral>  (983) 
nan

>  <Num_H_Atoms_ProtBoundConf>  (983) 
nan

>  <Num_Resolved_Atoms>  (983) 
nan

>  <Num_Not_Resolved_Atoms>  (983) 
nan

$$$$
CHEMBL3818677
     RDKit          3D

  0  0  0  0  0  0  0  0  0  0999 V3000
M  V30 BEGIN CTAB
M  V30 COUNTS 104 110 0 0 0
M  V30 BEGIN ATOM
M  V30 1 O 0.756153 -4.858012 -2.377287 0
M  V30 2 C 0.786991 -5.208377 -1.166357 0
M  V30 3 N 1.515188 -4.295059 -0.353052 0
M  V30 4 O 1.927708 -3.331421 -1.239594 0
M  V30 5 C 2.649097 -2.323985 -0.645982 0
M  V30 6 C 3.076166 -1.379108 -1.763923 0
M  V30 7 N 3.850230 -0.258915 -1.280579 0
M  V30 8 C 4.193281 0.551147 -2.447949 0
M  V30 9 C 5.002992 1.758022 -2.065735 0
M  V30 10 C 4.309592 2.691446 -1.114139 0
M  V30 11 C 3.032785 3.197102 -1.758804 0
M  V30 12 C 2.300226 4.145540 -0.826471 0
M  V30 13 C 1.056586 4.664370 -1.404756 0
M  V30 14 O 0.404571 4.573513 -2.473700 0
M  V30 15 N 0.388948 5.533968 -0.467040 0
M  V30 16 C -0.888648 6.194243 -0.784825 0
M  V30 17 C -1.894363 5.945150 0.322613 0
M  V30 18 N -1.399890 4.929653 1.231901 0
M  V30 19 C -1.981501 3.660504 1.476142 0
M  V30 20 N -3.166048 3.295282 0.996284 0
M  V30 21 C -3.695515 2.058755 1.239430 0
M  V30 22 N -4.958972 1.629963 0.751293 0
M  V30 23 C -5.399583 0.281554 1.038237 0
M  V30 24 C -6.557413 -0.057172 0.156107 0
M  V30 25 O -6.495461 0.436062 -1.121650 0
M  V30 26 C -6.255738 1.778455 -1.249713 0
M  V30 27 C -5.816686 2.486305 -0.011890 0
M  V30 28 N -2.937294 1.243418 1.993689 0
M  V30 29 C -1.748243 1.555674 2.498511 0
M  V30 30 N -0.936154 0.702707 3.296458 0
M  V30 31 C -0.536817 -0.573791 3.128753 0
M  V30 32 C -0.918785 -1.397480 1.952329 0
M  V30 33 F -0.585271 -0.784723 0.765229 0
M  V30 34 F -2.297900 -1.602825 1.897106 0
M  V30 35 N 0.216718 -0.875631 4.188731 0
M  V30 36 C 0.314747 0.172408 5.037255 0
M  V30 37 C 0.989822 0.314286 6.256054 0
M  V30 38 C 0.875236 1.563514 6.880148 0
M  V30 39 C 0.147070 2.601952 6.343325 0
M  V30 40 C -0.476052 2.358625 5.145071 0
M  V30 41 C -0.429308 1.173795 4.449826 0
M  V30 42 N -1.281375 2.790090 2.222957 0
M  V30 43 C -0.189346 5.364892 1.902951 0
M  V30 44 C 0.820705 5.899241 0.892611 0
M  V30 45 C 0.117318 -6.433235 -0.752861 0
M  V30 46 C 0.052311 -6.839072 0.561498 0
M  V30 47 C -0.627976 -8.003446 0.895105 0
M  V30 48 C -1.236999 -8.751978 -0.084791 0
M  V30 49 F -1.903284 -9.896413 0.262906 0
M  V30 50 C -1.158991 -8.324266 -1.408604 0
M  V30 51 F -1.784926 -9.118232 -2.305547 0
M  V30 52 C -0.480633 -7.160707 -1.757783 0
M  V30 53 N -0.484158 -6.904498 -3.154067 0
M  V30 54 C 0.160118 -7.368320 -4.318517 0
M  V30 55 C -0.795735 -7.848339 -5.218083 0
M  V30 56 C -0.434087 -8.375658 -6.458874 0
M  V30 57 C 0.929044 -8.399202 -6.756301 0
M  V30 58 I 1.603351 -9.172566 -8.603881 0
M  V30 59 C 1.895758 -7.934050 -5.891918 0
M  V30 60 C 1.465222 -7.434687 -4.700023 0
M  V30 61 F 2.332502 -6.970562 -3.800820 0
M  V30 62 H 1.565380 -4.556325 0.670042 0
M  V30 63 H 2.094065 -1.777887 0.143730 0
M  V30 64 H 3.569085 -2.763981 -0.202196 0
M  V30 65 H 2.142361 -1.071582 -2.286996 0
M  V30 66 H 3.652268 -2.020237 -2.494351 0
M  V30 67 H 4.770344 -0.676596 -0.962219 0
M  V30 68 H 4.867415 -0.095982 -3.054167 0
M  V30 69 H 3.309114 0.767986 -3.053871 0
M  V30 70 H 5.261359 2.301924 -3.003180 0
M  V30 71 H 5.977814 1.405034 -1.658602 0
M  V30 72 H 4.978455 3.575567 -0.995769 0
M  V30 73 H 4.146566 2.268257 -0.123542 0
M  V30 74 H 2.362132 2.366257 -2.031610 0
M  V30 75 H 3.332444 3.704491 -2.698013 0
M  V30 76 H 2.156012 3.679567 0.167740 0
M  V30 77 H 2.994348 5.017876 -0.674667 0
M  V30 78 H -0.635731 7.272378 -0.817490 0
M  V30 79 H -1.258698 5.912036 -1.767494 0
M  V30 80 H -2.006767 6.879806 0.906837 0
M  V30 81 H -2.855831 5.602948 -0.133470 0
M  V30 82 H -4.573577 -0.450803 0.980866 0
M  V30 83 H -5.775444 0.293797 2.093387 0
M  V30 84 H -7.540362 0.125302 0.673978 0
M  V30 85 H -6.540593 -1.182970 0.051042 0
M  V30 86 H -7.158510 2.238407 -1.717597 0
M  V30 87 H -5.416441 1.881075 -1.997666 0
M  V30 88 H -6.758554 2.676731 0.584492 0
M  V30 89 H -5.360456 3.445517 -0.309512 0
M  V30 90 H -0.464023 -2.416350 2.014262 0
M  V30 91 H 1.567150 -0.485318 6.697448 0
M  V30 92 H 1.365810 1.762440 7.827985 0
M  V30 93 H 0.050690 3.566421 6.812013 0
M  V30 94 H -1.049599 3.170338 4.716717 0
M  V30 95 H -0.435673 6.128430 2.656803 0
M  V30 96 H 0.278536 4.506503 2.463593 0
M  V30 97 H 0.784664 7.004878 0.936898 0
M  V30 98 H 1.841164 5.575312 1.095243 0
M  V30 99 H 0.529966 -6.253404 1.333868 0
M  V30 100 H -0.698409 -8.350970 1.915497 0
M  V30 101 H -1.197441 -6.148652 -3.210695 0
M  V30 102 H -1.874632 -7.879251 -5.092828 0
M  V30 103 H -1.129281 -8.759987 -7.191672 0
M  V30 104 H 2.957630 -7.937744 -6.092257 0
M  V30 END ATOM
M  V30 BEGIN BOND
M  V30 1 2 1 2
M  V30 2 1 2 3
M  V30 3 1 3 4
M  V30 4 1 4 5
M  V30 5 1 5 6
M  V30 6 1 6 7
M  V30 7 1 7 8
M  V30 8 1 8 9
M  V30 9 1 9 10
M  V30 10 1 10 11
M  V30 11 1 11 12
M  V30 12 1 12 13
M  V30 13 2 13 14
M  V30 14 1 13 15
M  V30 15 1 15 16
M  V30 16 1 16 17
M  V30 17 1 17 18
M  V30 18 1 18 19
M  V30 19 2 19 20
M  V30 20 1 20 21
M  V30 21 1 21 22
M  V30 22 1 22 23
M  V30 23 1 23 24
M  V30 24 1 24 25
M  V30 25 1 25 26
M  V30 26 1 26 27
M  V30 27 2 21 28
M  V30 28 1 28 29
M  V30 29 1 29 30
M  V30 30 1 30 31
M  V30 31 1 31 32
M  V30 32 1 32 33
M  V30 33 1 32 34
M  V30 34 2 31 35
M  V30 35 1 35 36
M  V30 36 2 36 37
M  V30 37 1 37 38
M  V30 38 2 38 39
M  V30 39 1 39 40
M  V30 40 2 40 41
M  V30 41 2 29 42
M  V30 42 1 18 43
M  V30 43 1 43 44
M  V30 44 1 2 45
M  V30 45 2 45 46
M  V30 46 1 46 47
M  V30 47 2 47 48
M  V30 48 1 48 49
M  V30 49 1 48 50
M  V30 50 1 50 51
M  V30 51 2 50 52
M  V30 52 1 52 53
M  V30 53 1 53 54
M  V30 54 2 54 55
M  V30 55 1 55 56
M  V30 56 2 56 57
M  V30 57 1 57 58
M  V30 58 1 57 59
M  V30 59 2 59 60
M  V30 60 1 60 61
M  V30 61 1 44 15
M  V30 62 1 52 45
M  V30 63 1 60 54
M  V30 64 1 42 19
M  V30 65 1 27 22
M  V30 66 1 41 30
M  V30 67 1 41 36
M  V30 68 1 3 62
M  V30 69 1 5 63
M  V30 70 1 5 64
M  V30 71 1 6 65
M  V30 72 1 6 66
M  V30 73 1 7 67
M  V30 74 1 8 68
M  V30 75 1 8 69
M  V30 76 1 9 70
M  V30 77 1 9 71
M  V30 78 1 10 72
M  V30 79 1 10 73
M  V30 80 1 11 74
M  V30 81 1 11 75
M  V30 82 1 12 76
M  V30 83 1 12 77
M  V30 84 1 16 78
M  V30 85 1 16 79
M  V30 86 1 17 80
M  V30 87 1 17 81
M  V30 88 1 23 82
M  V30 89 1 23 83
M  V30 90 1 24 84
M  V30 91 1 24 85
M  V30 92 1 26 86
M  V30 93 1 26 87
M  V30 94 1 27 88
M  V30 95 1 27 89
M  V30 96 1 32 90
M  V30 97 1 37 91
M  V30 98 1 38 92
M  V30 99 1 39 93
M  V30 100 1 40 94
M  V30 101 1 43 95
M  V30 102 1 43 96
M  V30 103 1 44 97
M  V30 104 1 44 98
M  V30 105 1 46 99
M  V30 106 1 47 100
M  V30 107 1 53 101
M  V30 108 1 55 102
M  V30 109 1 56 103
M  V30 110 1 59 104
M  V30 END BOND
M  V30 END CTAB
M  END
>  <Dataset>  (984) 
ChEMBL_Kinases

>  <Ligand_Instance>  (984) 
nan

>  <PDB_ID>  (984) 
nan

>  <Standardized_SMILES>  (984) 
O=C(NOCCNCCCCCC(=O)N1CCN(c2nc(N3CCOCC3)nc(-n3c(C(F)F)nc4ccccc43)n2)CC1)c1ccc(F)c(F)c1Nc1ccc(I)cc1F

>  <Name>  (984) 
nan

>  <Pocket>  (984) 
nan

>  <ATP_Site>  (984) 
nan

>  <Peripheral>  (984) 
nan

>  <Num_H_Atoms_ProtBoundConf>  (984) 
nan

>  <Num_Resolved_Atoms>  (984) 
nan

>  <Num_Not_Resolved_Atoms>  (984) 
nan

$$$$
CHEMBL381829
     RDKit          3D

  0  0  0  0  0  0  0  0  0  0999 V3000
M  V30 BEGIN CTAB
M  V30 COUNTS 49 51 0 0 0
M  V30 BEGIN ATOM
M  V30 1 N 3.108897 -2.774771 4.648478 0
M  V30 2 C 2.603863 -2.046729 3.430789 0 CFG=1
M  V30 3 C 2.243366 -3.094811 2.472579 0
M  V30 4 C 1.773505 -2.657731 1.117586 0
M  V30 5 C 2.837394 -1.874428 0.407876 0
M  V30 6 C 3.022018 -0.510937 0.398898 0
M  V30 7 C 4.078342 0.007522 -0.309475 0
M  V30 8 C 4.956780 -0.811809 -1.012534 0
M  V30 9 C 4.776808 -2.193017 -1.013188 0
M  V30 10 C 3.699891 -2.686708 -0.286220 0
M  V30 11 C 1.470529 -1.204057 4.001029 0
M  V30 12 O 0.693559 -0.447836 3.278769 0
M  V30 13 C -0.065012 0.290410 2.573604 0
M  V30 14 C 0.119144 1.655069 2.873967 0
M  V30 15 N -0.592866 2.653418 2.248045 0
M  V30 16 C -1.510035 2.276754 1.299768 0
M  V30 17 C -1.765923 0.972142 0.933684 0
M  V30 18 C -2.753199 0.519181 -0.024063 0
M  V30 19 C -3.584394 1.266145 -0.728941 0
M  V30 20 C -4.591135 0.827358 -1.697917 0
M  V30 21 C -5.364212 1.788286 -2.361370 0
M  V30 22 C -6.288689 1.282939 -3.222133 0
M  V30 23 N -6.554806 -0.023698 -3.515270 0
M  V30 24 C -5.764940 -0.893964 -2.834030 0
M  V30 25 C -4.750358 -0.541313 -1.898668 0
M  V30 26 C -1.002788 0.061222 1.618802 0
M  V30 27 H 3.939086 -3.328063 4.362320 0
M  V30 28 H 2.393571 -3.469375 4.929415 0
M  V30 29 H 3.426596 -1.372694 3.091754 0
M  V30 30 H 1.383177 -3.707700 2.889556 0
M  V30 31 H 3.092030 -3.819347 2.285424 0
M  V30 32 H 0.912276 -2.007595 1.165919 0
M  V30 33 H 1.486939 -3.572721 0.563658 0
M  V30 34 H 2.296648 0.043040 0.966542 0
M  V30 35 H 4.087523 1.090189 -0.223707 0
M  V30 36 H 5.700636 -0.143495 -1.472388 0
M  V30 37 H 5.534015 -2.683031 -1.600175 0
M  V30 38 H 3.635790 -3.767165 -0.339921 0
M  V30 39 H 0.888545 -1.985546 4.642946 0
M  V30 40 H 1.980972 -0.651820 4.904680 0
M  V30 41 H 0.807058 2.117767 3.603120 0
M  V30 42 H -2.089214 3.053349 0.785934 0
M  V30 43 H -2.845086 -0.551267 -0.197415 0
M  V30 44 H -3.464724 2.322894 -0.528986 0
M  V30 45 H -5.183860 2.817094 -2.157371 0
M  V30 46 H -6.938990 1.965524 -3.788052 0
M  V30 47 H -5.879868 -1.968300 -2.982775 0
M  V30 48 H -4.204347 -1.333547 -1.433199 0
M  V30 49 H -1.161612 -0.994276 1.378253 0
M  V30 END ATOM
M  V30 BEGIN BOND
M  V30 1 1 1 2
M  V30 2 1 2 3
M  V30 3 1 3 4
M  V30 4 1 4 5
M  V30 5 2 5 6
M  V30 6 1 6 7
M  V30 7 2 7 8
M  V30 8 1 8 9
M  V30 9 2 9 10
M  V30 10 1 2 11
M  V30 11 1 11 12
M  V30 12 1 12 13
M  V30 13 2 13 14
M  V30 14 1 14 15
M  V30 15 2 15 16
M  V30 16 1 16 17
M  V30 17 1 17 18
M  V30 18 2 18 19
M  V30 19 1 19 20
M  V30 20 2 20 21
M  V30 21 1 21 22
M  V30 22 2 22 23
M  V30 23 1 23 24
M  V30 24 2 24 25
M  V30 25 2 17 26
M  V30 26 1 10 5
M  V30 27 1 26 13
M  V30 28 1 25 20
M  V30 29 1 1 27
M  V30 30 1 1 28
M  V30 31 1 2 29 CFG=3
M  V30 32 1 3 30
M  V30 33 1 3 31
M  V30 34 1 4 32
M  V30 35 1 4 33
M  V30 36 1 6 34
M  V30 37 1 7 35
M  V30 38 1 8 36
M  V30 39 1 9 37
M  V30 40 1 10 38
M  V30 41 1 11 39
M  V30 42 1 11 40
M  V30 43 1 14 41
M  V30 44 1 16 42
M  V30 45 1 18 43
M  V30 46 1 19 44
M  V30 47 1 21 45
M  V30 48 1 22 46
M  V30 49 1 24 47
M  V30 50 1 25 48
M  V30 51 1 26 49
M  V30 END BOND
M  V30 END CTAB
M  END
>  <Dataset>  (985) 
ChEMBL_Kinases

>  <Ligand_Instance>  (985) 
nan

>  <PDB_ID>  (985) 
nan

>  <Standardized_SMILES>  (985) 
N[C@@H](CCc1ccccc1)COc1cncc(/C=C/c2ccncc2)c1

>  <Name>  (985) 
nan

>  <Pocket>  (985) 
nan

>  <ATP_Site>  (985) 
nan

>  <Peripheral>  (985) 
nan

>  <Num_H_Atoms_ProtBoundConf>  (985) 
nan

>  <Num_Resolved_Atoms>  (985) 
nan

>  <Num_Not_Resolved_Atoms>  (985) 
nan

$$$$
CHEMBL381864
     RDKit          3D

  0  0  0  0  0  0  0  0  0  0999 V3000
M  V30 BEGIN CTAB
M  V30 COUNTS 57 60 0 0 0
M  V30 BEGIN ATOM
M  V30 1 C -0.516649 4.757377 5.332471 0
M  V30 2 C 0.787744 4.107303 4.978945 0
M  V30 3 C 0.665164 3.214056 3.787725 0
M  V30 4 N 1.386747 2.522655 3.166527 0
M  V30 5 C 1.078073 1.791283 2.113183 0
M  V30 6 C 2.086480 0.960313 1.415547 0
M  V30 7 C 2.018713 -0.413592 1.312889 0
M  V30 8 C 3.025922 -1.071453 0.634609 0
M  V30 9 C 4.069043 -0.375689 0.076166 0
M  V30 10 C 4.168389 0.996666 0.159595 0
M  V30 11 C 5.292368 1.728671 -0.443122 0
M  V30 12 C 3.158131 1.654050 0.839595 0
M  V30 13 C -0.195803 1.818972 1.677588 0
M  V30 14 C -0.825046 1.119072 0.548598 0
M  V30 15 C -0.420001 1.302995 -0.752265 0
M  V30 16 C -0.950629 0.697815 -1.869128 0
M  V30 17 N -1.964989 -0.156117 -1.656533 0
M  V30 18 C -2.446022 -0.414864 -0.420629 0
M  V30 19 N -3.508722 -1.313041 -0.157406 0
M  V30 20 C -3.963540 -2.610378 0.182192 0
M  V30 21 C -3.562920 -3.715829 -0.744954 0
M  V30 22 C -2.053459 -3.802729 -0.771352 0
M  V30 23 C -1.616201 -4.903830 -1.685450 0
M  V30 24 C -1.469730 -6.153412 -1.099461 0
M  V30 25 C -1.073298 -7.248392 -1.841646 0
M  V30 26 C -0.833836 -7.037317 -3.178131 0
M  V30 27 C -0.959237 -5.829671 -3.820768 0
M  V30 28 C -1.360100 -4.755400 -3.036216 0
M  V30 29 C -1.873290 0.224264 0.675883 0
M  V30 30 S -0.987659 2.982335 2.878793 0
M  V30 31 H -1.103269 4.867021 4.394603 0
M  V30 32 H -0.387095 5.775322 5.754953 0
M  V30 33 H -1.140133 4.136419 6.012937 0
M  V30 34 H 1.077265 3.466056 5.861662 0
M  V30 35 H 1.608214 4.835847 4.845088 0
M  V30 36 H 1.176838 -0.913060 1.770256 0
M  V30 37 H 2.891429 -2.150248 0.603191 0
M  V30 38 H 4.831002 -0.924035 -0.442194 0
M  V30 39 H 6.166599 1.689785 0.252764 0
M  V30 40 H 5.600876 1.201596 -1.385807 0
M  V30 41 H 5.075934 2.777232 -0.672088 0
M  V30 42 H 3.229111 2.746141 0.911426 0
M  V30 43 H 0.403930 1.994281 -0.939275 0
M  V30 44 H -0.603392 0.870069 -2.868514 0
M  V30 45 H -4.248744 -0.564307 -0.315908 0
M  V30 46 H -5.091003 -2.615281 0.237970 0
M  V30 47 H -3.663374 -2.837931 1.248481 0
M  V30 48 H -3.952359 -4.692110 -0.382227 0
M  V30 49 H -3.975338 -3.592900 -1.758752 0
M  V30 50 H -1.677517 -4.011244 0.252164 0
M  V30 51 H -1.656704 -2.851463 -1.117599 0
M  V30 52 H -1.666197 -6.294584 -0.031837 0
M  V30 53 H -0.961867 -8.228656 -1.366040 0
M  V30 54 H -0.518391 -7.856530 -3.822589 0
M  V30 55 H -0.769639 -5.673145 -4.871414 0
M  V30 56 H -1.485803 -3.765968 -3.452847 0
M  V30 57 H -2.254003 0.021826 1.669443 0
M  V30 END ATOM
M  V30 BEGIN BOND
M  V30 1 1 1 2
M  V30 2 1 2 3
M  V30 3 2 3 4
M  V30 4 1 4 5
M  V30 5 1 5 6
M  V30 6 2 6 7
M  V30 7 1 7 8
M  V30 8 2 8 9
M  V30 9 1 9 10
M  V30 10 1 10 11
M  V30 11 2 10 12
M  V30 12 2 5 13
M  V30 13 1 13 14
M  V30 14 2 14 15
M  V30 15 1 15 16
M  V30 16 2 16 17
M  V30 17 1 17 18
M  V30 18 1 18 19
M  V30 19 1 19 20
M  V30 20 1 20 21
M  V30 21 1 21 22
M  V30 22 1 22 23
M  V30 23 2 23 24
M  V30 24 1 24 25
M  V30 25 2 25 26
M  V30 26 1 26 27
M  V30 27 2 27 28
M  V30 28 2 18 29
M  V30 29 1 13 30
M  V30 30 1 30 3
M  V30 31 1 12 6
M  V30 32 1 29 14
M  V30 33 1 28 23
M  V30 34 1 1 31
M  V30 35 1 1 32
M  V30 36 1 1 33
M  V30 37 1 2 34
M  V30 38 1 2 35
M  V30 39 1 7 36
M  V30 40 1 8 37
M  V30 41 1 9 38
M  V30 42 1 11 39
M  V30 43 1 11 40
M  V30 44 1 11 41
M  V30 45 1 12 42
M  V30 46 1 15 43
M  V30 47 1 16 44
M  V30 48 1 19 45
M  V30 49 1 20 46
M  V30 50 1 20 47
M  V30 51 1 21 48
M  V30 52 1 21 49
M  V30 53 1 22 50
M  V30 54 1 22 51
M  V30 55 1 24 52
M  V30 56 1 25 53
M  V30 57 1 26 54
M  V30 58 1 27 55
M  V30 59 1 28 56
M  V30 60 1 29 57
M  V30 END BOND
M  V30 END CTAB
M  END
>  <Dataset>  (986) 
ChEMBL_Kinases

>  <Ligand_Instance>  (986) 
nan

>  <PDB_ID>  (986) 
nan

>  <Standardized_SMILES>  (986) 
CCc1nc(-c2cccc(C)c2)c(-c2ccnc(NCCCc3ccccc3)c2)s1

>  <Name>  (986) 
nan

>  <Pocket>  (986) 
nan

>  <ATP_Site>  (986) 
nan

>  <Peripheral>  (986) 
nan

>  <Num_H_Atoms_ProtBoundConf>  (986) 
nan

>  <Num_Resolved_Atoms>  (986) 
nan

>  <Num_Not_Resolved_Atoms>  (986) 
nan

$$$$
CHEMBL3818592
     RDKit          3D

  0  0  0  0  0  0  0  0  0  0999 V3000
M  V30 BEGIN CTAB
M  V30 COUNTS 54 57 0 0 0
M  V30 BEGIN ATOM
M  V30 1 C 3.942686 -6.922168 3.314687 0
M  V30 2 N 2.624033 -6.604076 2.780977 0
M  V30 3 C 2.320893 -5.239647 2.510791 0
M  V30 4 N 3.270181 -4.312391 2.762918 0
M  V30 5 C 3.033380 -2.991036 2.522679 0
M  V30 6 C 1.786659 -2.680146 2.016951 0
M  V30 7 C 1.532828 -1.347456 1.769006 0
M  V30 8 C 0.305832 -0.963319 1.262550 0
M  V30 9 C -0.078531 0.417408 0.959861 0
M  V30 10 C 0.152521 0.958233 -0.291657 0
M  V30 11 C -0.165251 2.242058 -0.690729 0
M  V30 12 C -0.767820 3.038833 0.265054 0
M  V30 13 N -1.131361 4.376792 -0.054800 0
M  V30 14 C -0.838014 5.415790 0.772852 0
M  V30 15 C -1.167313 6.729679 0.510568 0
M  V30 16 N -1.815463 6.972932 -0.635546 0
M  V30 17 C -2.143085 6.002991 -1.508700 0
M  V30 18 C -2.860045 6.200229 -2.795830 0
M  V30 19 C -1.780189 4.709208 -1.178210 0
M  V30 20 O -2.042680 3.716488 -1.935747 0
M  V30 21 C -1.027720 2.562336 1.534945 0
M  V30 22 C -0.689951 1.267767 1.885881 0
M  V30 23 Cl -0.998056 0.607132 3.491403 0
M  V30 24 C -0.654818 -1.922409 1.009961 0
M  V30 25 O -1.791171 -1.638432 0.550488 0
M  V30 26 N -0.408864 -3.224899 1.251125 0
M  V30 27 C -1.312946 -4.338482 1.026245 0
M  V30 28 C -1.065465 -4.872527 -0.354220 0
M  V30 29 C -1.286207 -3.873558 -1.457143 0
M  V30 30 N -1.007818 -4.561243 -2.717410 0
M  V30 31 C 0.799814 -3.592267 1.748930 0
M  V30 32 N 1.121322 -4.881536 2.017451 0
M  V30 33 H 4.747649 -6.820791 2.572218 0
M  V30 34 H 4.164576 -6.299164 4.216365 0
M  V30 35 H 3.928589 -7.989096 3.653058 0
M  V30 36 H 1.912574 -7.348379 2.597642 0
M  V30 37 H 3.759032 -2.202412 2.706302 0
M  V30 38 H 2.208125 -0.509620 1.927871 0
M  V30 39 H 0.627243 0.339778 -1.054345 0
M  V30 40 H 0.051537 2.585592 -1.693589 0
M  V30 41 H -0.313858 5.238854 1.705014 0
M  V30 42 H -0.917913 7.529804 1.191866 0
M  V30 43 H -3.553356 5.365291 -3.017457 0
M  V30 44 H -3.400047 7.186175 -2.810886 0
M  V30 45 H -2.147440 6.244087 -3.644058 0
M  V30 46 H -1.493596 3.169123 2.283616 0
M  V30 47 H -2.380952 -3.977778 1.039013 0
M  V30 48 H -1.179964 -5.139383 1.766766 0
M  V30 49 H -1.699266 -5.764662 -0.577703 0
M  V30 50 H -0.022492 -5.249427 -0.486594 0
M  V30 51 H -0.530990 -3.041771 -1.415572 0
M  V30 52 H -2.287643 -3.435469 -1.455963 0
M  V30 53 H -1.457810 -4.073248 -3.524849 0
M  V30 54 H 0.019582 -4.583242 -2.915344 0
M  V30 END ATOM
M  V30 BEGIN BOND
M  V30 1 1 1 2
M  V30 2 1 2 3
M  V30 3 2 3 4
M  V30 4 1 4 5
M  V30 5 2 5 6
M  V30 6 1 6 7
M  V30 7 2 7 8
M  V30 8 1 8 9
M  V30 9 2 9 10
M  V30 10 1 10 11
M  V30 11 2 11 12
M  V30 12 1 12 13
M  V30 13 1 13 14
M  V30 14 2 14 15
M  V30 15 1 15 16
M  V30 16 2 16 17
M  V30 17 1 17 18
M  V30 18 1 17 19
M  V30 19 2 19 20
M  V30 20 1 12 21
M  V30 21 2 21 22
M  V30 22 1 22 23
M  V30 23 1 8 24
M  V30 24 2 24 25
M  V30 25 1 24 26
M  V30 26 1 26 27
M  V30 27 1 27 28
M  V30 28 1 28 29
M  V30 29 1 29 30
M  V30 30 1 26 31
M  V30 31 2 31 32
M  V30 32 1 32 3
M  V30 33 1 31 6
M  V30 34 1 22 9
M  V30 35 1 19 13
M  V30 36 1 1 33
M  V30 37 1 1 34
M  V30 38 1 1 35
M  V30 39 1 2 36
M  V30 40 1 5 37
M  V30 41 1 7 38
M  V30 42 1 10 39
M  V30 43 1 11 40
M  V30 44 1 14 41
M  V30 45 1 15 42
M  V30 46 1 18 43
M  V30 47 1 18 44
M  V30 48 1 18 45
M  V30 49 1 21 46
M  V30 50 1 27 47
M  V30 51 1 27 48
M  V30 52 1 28 49
M  V30 53 1 28 50
M  V30 54 1 29 51
M  V30 55 1 29 52
M  V30 56 1 30 53
M  V30 57 1 30 54
M  V30 END BOND
M  V30 END CTAB
M  END
>  <Dataset>  (987) 
ChEMBL_Kinases

>  <Ligand_Instance>  (987) 
nan

>  <PDB_ID>  (987) 
nan

>  <Standardized_SMILES>  (987) 
CNc1ncc2cc(-c3ccc(-n4ccnc(C)c4=O)cc3Cl)c(=O)n(CCCN)c2n1

>  <Name>  (987) 
nan

>  <Pocket>  (987) 
nan

>  <ATP_Site>  (987) 
nan

>  <Peripheral>  (987) 
nan

>  <Num_H_Atoms_ProtBoundConf>  (987) 
nan

>  <Num_Resolved_Atoms>  (987) 
nan

>  <Num_Not_Resolved_Atoms>  (987) 
nan

$$$$
CHEMBL3818571
     RDKit          3D

  0  0  0  0  0  0  0  0  0  0999 V3000
M  V30 BEGIN CTAB
M  V30 COUNTS 53 56 0 0 0
M  V30 BEGIN ATOM
M  V30 1 C -4.866390 -5.893077 3.088793 0
M  V30 2 N -3.408882 -5.922724 3.055208 0
M  V30 3 C -2.669442 -4.721681 2.851738 0
M  V30 4 N -2.312561 -4.012430 3.953969 0
M  V30 5 C -1.602436 -2.852946 3.817705 0
M  V30 6 C -1.273151 -2.446413 2.541129 0
M  V30 7 C -0.557001 -1.270626 2.444610 0
M  V30 8 C -0.226770 -0.860163 1.167810 0
M  V30 9 C 0.529254 0.367004 0.917031 0
M  V30 10 C 1.902630 0.480275 0.834595 0
M  V30 11 C 2.492501 1.703575 0.590924 0
M  V30 12 C 1.762737 2.859609 0.419173 0
M  V30 13 N 2.324499 4.137696 0.166068 0
M  V30 14 C 1.561533 5.343129 -0.016181 0
M  V30 15 C 2.505960 6.502961 -0.061200 0
M  V30 16 C 3.873709 5.924226 -0.209630 0
M  V30 17 C 3.693773 4.482894 0.043394 0
M  V30 18 O 4.698028 3.731002 0.124007 0
M  V30 19 C 0.396753 2.687228 0.511800 0
M  V30 20 C -0.260004 1.497203 0.752575 0
M  V30 21 Cl -2.015136 1.467223 0.837828 0
M  V30 22 C -0.603727 -1.602114 0.069060 0
M  V30 23 O -0.301813 -1.221200 -1.077984 0
M  V30 24 N -1.299240 -2.747825 0.136206 0
M  V30 25 C -1.752556 -3.637912 -0.906288 0
M  V30 26 C -0.800259 -4.745251 -1.215879 0
M  V30 27 C 0.535125 -4.293918 -1.706463 0
M  V30 28 N 0.487515 -3.554475 -2.928396 0
M  V30 29 C -1.622373 -3.146769 1.404654 0
M  V30 30 N -2.329003 -4.291758 1.622128 0
M  V30 31 H -5.207069 -4.886036 2.753693 0
M  V30 32 H -5.318273 -6.606774 2.374482 0
M  V30 33 H -5.260385 -6.011219 4.123629 0
M  V30 34 H -3.103749 -6.930381 3.201505 0
M  V30 35 H -1.318102 -2.289373 4.679239 0
M  V30 36 H -0.224893 -0.635812 3.232249 0
M  V30 37 H 2.463407 -0.433576 0.971089 0
M  V30 38 H 3.565456 1.743134 0.534932 0
M  V30 39 H 0.847197 5.506836 0.821073 0
M  V30 40 H 0.950185 5.213778 -0.930867 0
M  V30 41 H 2.223949 7.143968 -0.924719 0
M  V30 42 H 2.422184 7.115774 0.864814 0
M  V30 43 H 4.533347 6.403709 0.567735 0
M  V30 44 H 4.321901 6.118682 -1.206171 0
M  V30 45 H -0.219664 3.587608 0.380408 0
M  V30 46 H -2.732504 -4.097530 -0.590544 0
M  V30 47 H -2.025585 -3.052650 -1.829441 0
M  V30 48 H -1.260793 -5.349000 -2.050670 0
M  V30 49 H -0.718375 -5.479511 -0.374391 0
M  V30 50 H 1.173139 -5.186621 -1.869532 0
M  V30 51 H 1.076314 -3.654442 -0.970389 0
M  V30 52 H 0.997847 -3.986273 -3.729372 0
M  V30 53 H -0.462744 -3.211019 -3.189532 0
M  V30 END ATOM
M  V30 BEGIN BOND
M  V30 1 1 1 2
M  V30 2 1 2 3
M  V30 3 2 3 4
M  V30 4 1 4 5
M  V30 5 2 5 6
M  V30 6 1 6 7
M  V30 7 2 7 8
M  V30 8 1 8 9
M  V30 9 2 9 10
M  V30 10 1 10 11
M  V30 11 2 11 12
M  V30 12 1 12 13
M  V30 13 1 13 14
M  V30 14 1 14 15
M  V30 15 1 15 16
M  V30 16 1 16 17
M  V30 17 2 17 18
M  V30 18 1 12 19
M  V30 19 2 19 20
M  V30 20 1 20 21
M  V30 21 1 8 22
M  V30 22 2 22 23
M  V30 23 1 22 24
M  V30 24 1 24 25
M  V30 25 1 25 26
M  V30 26 1 26 27
M  V30 27 1 27 28
M  V30 28 1 24 29
M  V30 29 2 29 30
M  V30 30 1 30 3
M  V30 31 1 29 6
M  V30 32 1 20 9
M  V30 33 1 17 13
M  V30 34 1 1 31
M  V30 35 1 1 32
M  V30 36 1 1 33
M  V30 37 1 2 34
M  V30 38 1 5 35
M  V30 39 1 7 36
M  V30 40 1 10 37
M  V30 41 1 11 38
M  V30 42 1 14 39
M  V30 43 1 14 40
M  V30 44 1 15 41
M  V30 45 1 15 42
M  V30 46 1 16 43
M  V30 47 1 16 44
M  V30 48 1 19 45
M  V30 49 1 25 46
M  V30 50 1 25 47
M  V30 51 1 26 48
M  V30 52 1 26 49
M  V30 53 1 27 50
M  V30 54 1 27 51
M  V30 55 1 28 52
M  V30 56 1 28 53
M  V30 END BOND
M  V30 END CTAB
M  END
>  <Dataset>  (988) 
ChEMBL_Kinases

>  <Ligand_Instance>  (988) 
nan

>  <PDB_ID>  (988) 
nan

>  <Standardized_SMILES>  (988) 
CNc1ncc2cc(-c3ccc(N4CCCC4=O)cc3Cl)c(=O)n(CCCN)c2n1

>  <Name>  (988) 
nan

>  <Pocket>  (988) 
nan

>  <ATP_Site>  (988) 
nan

>  <Peripheral>  (988) 
nan

>  <Num_H_Atoms_ProtBoundConf>  (988) 
nan

>  <Num_Resolved_Atoms>  (988) 
nan

>  <Num_Not_Resolved_Atoms>  (988) 
nan

$$$$
CHEMBL3818533
     RDKit          3D

  0  0  0  0  0  0  0  0  0  0999 V3000
M  V30 BEGIN CTAB
M  V30 COUNTS 70 75 0 0 0
M  V30 BEGIN ATOM
M  V30 1 C -2.183916 -2.641238 3.926556 0
M  V30 2 C -2.303667 -1.413273 3.059988 0
M  V30 3 C -1.199389 -0.897183 2.372598 0
M  V30 4 C -1.340168 0.226996 1.585583 0
M  V30 5 C -0.130267 0.693383 0.913572 0
M  V30 6 C 0.181894 2.037083 0.861817 0
M  V30 7 N 1.345873 2.130844 0.170299 0
M  V30 8 N 1.748995 0.928379 -0.194967 0
M  V30 9 C 2.813667 0.416586 -0.888760 0
M  V30 10 N 3.712604 1.456109 -1.315920 0
M  V30 11 C 3.146278 2.124490 -2.475408 0
M  V30 12 C 4.019559 3.232635 -3.012441 0
M  V30 13 C 3.293812 3.844803 -4.207229 0
M  V30 14 C 2.069813 4.600563 -3.727138 0
M  V30 15 O 2.455641 5.626215 -2.891493 0
M  V30 16 C 2.990760 5.098075 -1.734686 0
M  V30 17 C 4.225686 4.264215 -1.956279 0
M  V30 18 N 2.940379 -0.891774 -1.097344 0
M  V30 19 C 2.066333 -1.811412 -0.662666 0
M  V30 20 O 2.369203 -3.117264 -0.974423 0
M  V30 21 C 1.609430 -4.229021 -0.620959 0
M  V30 22 C 2.458133 -5.014640 0.400746 0
M  V30 23 C 2.105525 -6.457471 0.174436 0
M  V30 24 C 1.037990 -6.464008 -0.892762 0
M  V30 25 C 1.386926 -5.237450 -1.708396 0
M  V30 26 N 0.998327 -1.310004 0.031054 0
M  V30 27 C 0.859786 -0.007861 0.245955 0
M  V30 28 C -2.581085 0.867961 1.460795 0
M  V30 29 C -3.684049 0.349588 2.149561 0
M  V30 30 C -3.549285 -0.789383 2.949067 0
M  V30 31 C -4.702953 -1.329877 3.675258 0
M  V30 32 O -4.339288 -1.571487 4.874291 0
M  V30 33 N -6.032208 -1.581379 3.226952 0
M  V30 34 C -6.959021 -2.119576 4.171826 0
M  V30 35 C -7.855378 -3.203663 3.710053 0
M  V30 36 C -8.430626 -1.858244 4.016917 0
M  V30 37 H -1.339135 -3.261732 3.577369 0
M  V30 38 H -2.118787 -2.414009 4.987041 0
M  V30 39 H -3.117662 -3.255490 3.780265 0
M  V30 40 H -0.278434 -1.437979 2.510320 0
M  V30 41 H -0.312523 2.912661 1.248083 0
M  V30 42 H 4.549382 1.470114 -0.685088 0
M  V30 43 H 2.158253 2.501330 -2.140192 0
M  V30 44 H 2.942315 1.347057 -3.262931 0
M  V30 45 H 4.977819 2.828667 -3.390938 0
M  V30 46 H 2.965797 2.998346 -4.842021 0
M  V30 47 H 3.942751 4.578324 -4.743434 0
M  V30 48 H 1.311136 3.915377 -3.315634 0
M  V30 49 H 1.597137 5.074293 -4.615914 0
M  V30 50 H 2.174419 4.520570 -1.222235 0
M  V30 51 H 3.251231 5.917087 -1.002183 0
M  V30 52 H 5.083752 4.945408 -2.121040 0
M  V30 53 H 4.396181 3.729188 -0.977793 0
M  V30 54 H 0.641713 -3.992636 -0.136725 0
M  V30 55 H 3.542576 -4.840353 0.167348 0
M  V30 56 H 2.291166 -4.657909 1.429545 0
M  V30 57 H 2.992065 -6.980395 -0.283440 0
M  V30 58 H 1.786786 -6.965468 1.111605 0
M  V30 59 H 0.029538 -6.269776 -0.451184 0
M  V30 60 H 1.051371 -7.391367 -1.498673 0
M  V30 61 H 2.375666 -5.397028 -2.224134 0
M  V30 62 H 0.605106 -4.957408 -2.424848 0
M  V30 63 H -2.641600 1.748391 0.830736 0
M  V30 64 H -4.638651 0.854413 2.048713 0
M  V30 65 H -6.163914 -1.330399 2.224993 0
M  V30 66 H -6.536391 -2.275721 5.184436 0
M  V30 67 H -8.133880 -4.018804 4.435680 0
M  V30 68 H -7.877745 -3.556017 2.659149 0
M  V30 69 H -9.012106 -1.700427 4.961804 0
M  V30 70 H -8.758873 -1.224343 3.183379 0
M  V30 END ATOM
M  V30 BEGIN BOND
M  V30 1 1 1 2
M  V30 2 2 2 3
M  V30 3 1 3 4
M  V30 4 1 4 5
M  V30 5 1 5 6
M  V30 6 2 6 7
M  V30 7 1 7 8
M  V30 8 1 8 9
M  V30 9 1 9 10
M  V30 10 1 10 11
M  V30 11 1 11 12
M  V30 12 1 12 13
M  V30 13 1 13 14
M  V30 14 1 14 15
M  V30 15 1 15 16
M  V30 16 1 16 17
M  V30 17 2 9 18
M  V30 18 1 18 19
M  V30 19 1 19 20
M  V30 20 1 20 21
M  V30 21 1 21 22
M  V30 22 1 22 23
M  V30 23 1 23 24
M  V30 24 1 24 25
M  V30 25 2 19 26
M  V30 26 1 26 27
M  V30 27 2 4 28
M  V30 28 1 28 29
M  V30 29 2 29 30
M  V30 30 1 30 31
M  V30 31 2 31 32
M  V30 32 1 31 33
M  V30 33 1 33 34
M  V30 34 1 34 35
M  V30 35 1 35 36
M  V30 36 1 30 2
M  V30 37 1 36 34
M  V30 38 2 27 5
M  V30 39 1 27 8
M  V30 40 1 17 12
M  V30 41 1 25 21
M  V30 42 1 1 37
M  V30 43 1 1 38
M  V30 44 1 1 39
M  V30 45 1 3 40
M  V30 46 1 6 41
M  V30 47 1 10 42
M  V30 48 1 11 43
M  V30 49 1 11 44
M  V30 50 1 12 45
M  V30 51 1 13 46
M  V30 52 1 13 47
M  V30 53 1 14 48
M  V30 54 1 14 49
M  V30 55 1 16 50
M  V30 56 1 16 51
M  V30 57 1 17 52
M  V30 58 1 17 53
M  V30 59 1 21 54
M  V30 60 1 22 55
M  V30 61 1 22 56
M  V30 62 1 23 57
M  V30 63 1 23 58
M  V30 64 1 24 59
M  V30 65 1 24 60
M  V30 66 1 25 61
M  V30 67 1 25 62
M  V30 68 1 28 63
M  V30 69 1 29 64
M  V30 70 1 33 65
M  V30 71 1 34 66
M  V30 72 1 35 67
M  V30 73 1 35 68
M  V30 74 1 36 69
M  V30 75 1 36 70
M  V30 END BOND
M  V30 END CTAB
M  END
>  <Dataset>  (989) 
ChEMBL_Kinases

>  <Ligand_Instance>  (989) 
nan

>  <PDB_ID>  (989) 
nan

>  <Standardized_SMILES>  (989) 
Cc1cc(-c2cnn3c(NCC4CCOCC4)nc(OC4CCCC4)nc23)ccc1C(=O)NC1CC1

>  <Name>  (989) 
nan

>  <Pocket>  (989) 
nan

>  <ATP_Site>  (989) 
nan

>  <Peripheral>  (989) 
nan

>  <Num_H_Atoms_ProtBoundConf>  (989) 
nan

>  <Num_Resolved_Atoms>  (989) 
nan

>  <Num_Not_Resolved_Atoms>  (989) 
nan

$$$$
CHEMBL3818485
     RDKit          3D

  0  0  0  0  0  0  0  0  0  0999 V3000
M  V30 BEGIN CTAB
M  V30 COUNTS 69 73 0 0 0
M  V30 BEGIN ATOM
M  V30 1 C 5.684429 0.410878 6.070384 0
M  V30 2 C 6.000787 1.446716 5.016418 0
M  V30 3 C 7.357840 1.161458 4.460343 0
M  V30 4 N 4.958977 1.393108 3.995762 0
M  V30 5 C 4.137326 2.499645 3.608283 0
M  V30 6 O 4.358683 3.577319 4.212533 0
M  V30 7 C 3.120741 2.340980 2.573829 0
M  V30 8 C 2.836683 1.181110 1.882641 0
M  V30 9 C 1.852107 1.129673 0.917342 0
M  V30 10 C 1.116316 2.260191 0.617243 0
M  V30 11 C 0.110566 2.041624 -0.428634 0
M  V30 12 C -0.242565 2.792580 -1.553265 0
M  V30 13 N -1.237101 2.153643 -2.200592 0
M  V30 14 N -1.530325 1.041160 -1.545845 0
M  V30 15 C -2.460460 0.126534 -1.861250 0
M  V30 16 N -3.308820 0.237940 -3.013626 0
M  V30 17 C -4.286739 -0.752159 -3.328788 0
M  V30 18 C -3.774005 -2.133834 -3.570997 0
M  V30 19 C -4.906552 -3.070433 -3.891633 0
M  V30 20 C -5.247106 -3.129584 -5.353903 0
M  V30 21 O -4.074369 -3.534172 -6.029053 0
M  V30 22 C -3.248711 -2.405960 -6.026454 0
M  V30 23 C -2.725593 -2.246310 -4.615088 0
M  V30 24 N -2.563045 -0.923855 -1.026975 0
M  V30 25 C -1.791258 -1.071953 0.064663 0
M  V30 26 O -1.930454 -2.180940 0.907119 0
M  V30 27 C -1.133974 -2.357379 2.054402 0
M  V30 28 C -2.016677 -2.462731 3.303618 0
M  V30 29 C -2.535030 -3.900635 3.272591 0
M  V30 30 C -1.616689 -4.654103 2.339007 0
M  V30 31 C -0.499715 -3.726453 1.983180 0
M  V30 32 N -0.867352 -0.134952 0.351710 0
M  V30 33 C -0.730356 0.946488 -0.468191 0
M  V30 34 C 1.379702 3.438118 1.295026 0
M  V30 35 C 2.371720 3.456369 2.255590 0
M  V30 36 H 5.997192 0.834280 7.047591 0
M  V30 37 H 6.271411 -0.535785 5.895657 0
M  V30 38 H 4.616588 0.148546 6.045936 0
M  V30 39 H 6.027164 2.489769 5.418483 0
M  V30 40 H 7.937204 2.087432 4.267006 0
M  V30 41 H 7.941531 0.608764 5.225614 0
M  V30 42 H 7.335926 0.497480 3.555105 0
M  V30 43 H 4.867275 0.447917 3.564178 0
M  V30 44 H 3.422255 0.314752 2.133480 0
M  V30 45 H 1.715881 0.161772 0.437481 0
M  V30 46 H 0.271814 3.735388 -1.778771 0
M  V30 47 H -3.162424 1.088433 -3.602803 0
M  V30 48 H -5.069228 -0.771859 -2.542684 0
M  V30 49 H -4.824093 -0.430272 -4.251980 0
M  V30 50 H -3.326279 -2.516431 -2.617707 0
M  V30 51 H -5.819357 -2.808351 -3.295468 0
M  V30 52 H -4.615859 -4.090487 -3.583833 0
M  V30 53 H -6.058478 -3.876581 -5.460541 0
M  V30 54 H -5.514178 -2.147006 -5.774373 0
M  V30 55 H -3.839184 -1.543711 -6.368737 0
M  V30 56 H -2.338722 -2.593380 -6.657590 0
M  V30 57 H -2.150297 -3.181593 -4.421600 0
M  V30 58 H -1.947204 -1.446339 -4.555489 0
M  V30 59 H -0.399223 -1.554000 2.220486 0
M  V30 60 H -1.422091 -2.247283 4.210049 0
M  V30 61 H -2.851839 -1.741654 3.132813 0
M  V30 62 H -2.533419 -4.339569 4.288050 0
M  V30 63 H -3.583375 -3.909367 2.899786 0
M  V30 64 H -2.194722 -4.889712 1.418656 0
M  V30 65 H -1.223688 -5.578731 2.847268 0
M  V30 66 H 0.377511 -3.803495 2.663294 0
M  V30 67 H -0.134508 -3.862185 0.933921 0
M  V30 68 H 0.761951 4.272733 1.001810 0
M  V30 69 H 2.514318 4.424666 2.741849 0
M  V30 END ATOM
M  V30 BEGIN BOND
M  V30 1 1 1 2
M  V30 2 1 2 3
M  V30 3 1 2 4
M  V30 4 1 4 5
M  V30 5 2 5 6
M  V30 6 1 5 7
M  V30 7 2 7 8
M  V30 8 1 8 9
M  V30 9 2 9 10
M  V30 10 1 10 11
M  V30 11 1 11 12
M  V30 12 2 12 13
M  V30 13 1 13 14
M  V30 14 1 14 15
M  V30 15 1 15 16
M  V30 16 1 16 17
M  V30 17 1 17 18
M  V30 18 1 18 19
M  V30 19 1 19 20
M  V30 20 1 20 21
M  V30 21 1 21 22
M  V30 22 1 22 23
M  V30 23 2 15 24
M  V30 24 1 24 25
M  V30 25 1 25 26
M  V30 26 1 26 27
M  V30 27 1 27 28
M  V30 28 1 28 29
M  V30 29 1 29 30
M  V30 30 1 30 31
M  V30 31 2 25 32
M  V30 32 1 32 33
M  V30 33 1 10 34
M  V30 34 2 34 35
M  V30 35 1 35 7
M  V30 36 2 33 11
M  V30 37 1 33 14
M  V30 38 1 23 18
M  V30 39 1 31 27
M  V30 40 1 1 36
M  V30 41 1 1 37
M  V30 42 1 1 38
M  V30 43 1 2 39
M  V30 44 1 3 40
M  V30 45 1 3 41
M  V30 46 1 3 42
M  V30 47 1 4 43
M  V30 48 1 8 44
M  V30 49 1 9 45
M  V30 50 1 12 46
M  V30 51 1 16 47
M  V30 52 1 17 48
M  V30 53 1 17 49
M  V30 54 1 18 50
M  V30 55 1 19 51
M  V30 56 1 19 52
M  V30 57 1 20 53
M  V30 58 1 20 54
M  V30 59 1 22 55
M  V30 60 1 22 56
M  V30 61 1 23 57
M  V30 62 1 23 58
M  V30 63 1 27 59
M  V30 64 1 28 60
M  V30 65 1 28 61
M  V30 66 1 29 62
M  V30 67 1 29 63
M  V30 68 1 30 64
M  V30 69 1 30 65
M  V30 70 1 31 66
M  V30 71 1 31 67
M  V30 72 1 34 68
M  V30 73 1 35 69
M  V30 END BOND
M  V30 END CTAB
M  END
>  <Dataset>  (990) 
ChEMBL_Kinases

>  <Ligand_Instance>  (990) 
nan

>  <PDB_ID>  (990) 
nan

>  <Standardized_SMILES>  (990) 
CC(C)NC(=O)c1ccc(-c2cnn3c(NCC4CCOCC4)nc(OC4CCCC4)nc23)cc1

>  <Name>  (990) 
nan

>  <Pocket>  (990) 
nan

>  <ATP_Site>  (990) 
nan

>  <Peripheral>  (990) 
nan

>  <Num_H_Atoms_ProtBoundConf>  (990) 
nan

>  <Num_Resolved_Atoms>  (990) 
nan

>  <Num_Not_Resolved_Atoms>  (990) 
nan

$$$$
CHEMBL495750
     RDKit          3D

  0  0  0  0  0  0  0  0  0  0999 V3000
M  V30 BEGIN CTAB
M  V30 COUNTS 31 33 0 0 0
M  V30 BEGIN ATOM
M  V30 1 C -1.855328 -3.393355 2.371568 0
M  V30 2 C -1.624194 -2.401553 3.489032 0
M  V30 3 C -1.830082 -1.021674 2.921355 0
M  V30 4 C -0.800727 -0.706504 1.878987 0
M  V30 5 N -0.805618 0.092554 0.800148 0
M  V30 6 C 0.405959 0.002467 0.197424 0
M  V30 7 C 0.873794 0.684784 -1.006101 0
M  V30 8 C 0.050137 1.554678 -1.691051 0
M  V30 9 C 0.514847 2.189475 -2.828348 0
M  V30 10 N 1.760135 1.952748 -3.252724 0
M  V30 11 C 2.591575 1.096299 -2.590633 0
M  V30 12 N 3.927565 0.789125 -2.973905 0
M  V30 13 N 2.133034 0.482549 -1.485516 0
M  V30 14 C 1.162502 -0.880350 0.940068 0
M  V30 15 C 0.424012 -1.330745 1.991530 0
M  V30 16 C 0.753963 -2.272264 3.068802 0
M  V30 17 O 1.906323 -2.821897 3.123639 0
M  V30 18 N -0.273236 -2.539901 4.045520 0
M  V30 19 H -2.621618 -2.956847 1.696322 0
M  V30 20 H -0.950182 -3.558179 1.758282 0
M  V30 21 H -2.223143 -4.366156 2.704306 0
M  V30 22 H -2.337149 -2.564583 4.294065 0
M  V30 23 H -2.859949 -0.996885 2.512181 0
M  V30 24 H -1.700562 -0.289678 3.760999 0
M  V30 25 H -1.607564 0.682564 0.481068 0
M  V30 26 H -0.959196 1.766142 -1.373623 0
M  V30 27 H -0.115582 2.878613 -3.384175 0
M  V30 28 H 4.707465 1.474967 -2.854931 0
M  V30 29 H 4.259117 -0.119769 -3.398864 0
M  V30 30 H 2.180287 -1.154705 0.702720 0
M  V30 31 H 0.068054 -2.796232 5.017318 0
M  V30 END ATOM
M  V30 BEGIN BOND
M  V30 1 1 1 2
M  V30 2 1 2 3
M  V30 3 1 3 4
M  V30 4 1 4 5
M  V30 5 1 5 6
M  V30 6 1 6 7
M  V30 7 2 7 8
M  V30 8 1 8 9
M  V30 9 2 9 10
M  V30 10 1 10 11
M  V30 11 1 11 12
M  V30 12 2 11 13
M  V30 13 2 6 14
M  V30 14 1 14 15
M  V30 15 1 15 16
M  V30 16 2 16 17
M  V30 17 1 16 18
M  V30 18 1 18 2
M  V30 19 2 15 4
M  V30 20 1 13 7
M  V30 21 1 1 19
M  V30 22 1 1 20
M  V30 23 1 1 21
M  V30 24 1 2 22
M  V30 25 1 3 23
M  V30 26 1 3 24
M  V30 27 1 5 25
M  V30 28 1 8 26
M  V30 29 1 9 27
M  V30 30 1 12 28
M  V30 31 1 12 29
M  V30 32 1 14 30
M  V30 33 1 18 31
M  V30 END BOND
M  V30 END CTAB
M  END
>  <Dataset>  (991) 
ChEMBL_Kinases

>  <Ligand_Instance>  (991) 
nan

>  <PDB_ID>  (991) 
nan

>  <Standardized_SMILES>  (991) 
CC1Cc2[nH]c(-c3ccnc(N)n3)cc2C(=O)N1

>  <Name>  (991) 
nan

>  <Pocket>  (991) 
nan

>  <ATP_Site>  (991) 
nan

>  <Peripheral>  (991) 
nan

>  <Num_H_Atoms_ProtBoundConf>  (991) 
nan

>  <Num_Resolved_Atoms>  (991) 
nan

>  <Num_Not_Resolved_Atoms>  (991) 
nan

$$$$
CHEMBL3818432
     RDKit          3D

  0  0  0  0  0  0  0  0  0  0999 V3000
M  V30 BEGIN CTAB
M  V30 COUNTS 54 57 0 0 0
M  V30 BEGIN ATOM
M  V30 1 C 3.106408 -6.757260 2.900434 0
M  V30 2 N 2.028027 -6.262394 3.753995 0
M  V30 3 C 1.763744 -4.889361 3.415279 0
M  V30 4 N 2.431362 -3.891146 4.054377 0
M  V30 5 C 2.225191 -2.584782 3.778733 0
M  V30 6 C 1.286044 -2.304527 2.798034 0
M  V30 7 C 1.063130 -0.967836 2.503707 0
M  V30 8 C 0.133181 -0.643857 1.530389 0
M  V30 9 C -0.212781 0.720046 1.108042 0
M  V30 10 C 0.517235 1.274265 0.067955 0
M  V30 11 C 0.141246 2.570524 -0.286392 0
M  V30 12 C -0.882458 3.231594 0.362807 0
M  V30 13 N -1.132747 4.560307 -0.135218 0
M  V30 14 C -1.077242 5.647051 0.675048 0
M  V30 15 N -1.321597 6.869901 0.151148 0
M  V30 16 C -1.617952 7.031982 -1.153463 0
M  V30 17 C -1.683108 5.948532 -2.007218 0
M  V30 18 C -2.011111 6.118160 -3.456105 0
M  V30 19 C -1.431681 4.716714 -1.454773 0
M  V30 20 O -1.470582 3.672439 -2.165822 0
M  V30 21 C -1.578964 2.633966 1.393896 0
M  V30 22 C -1.240987 1.348395 1.780151 0
M  V30 23 Cl -2.122497 0.611724 3.074035 0
M  V30 24 C -0.545047 -1.666599 0.881546 0
M  V30 25 O -1.421483 -1.479836 -0.030026 0
M  V30 26 N -0.322341 -2.961220 1.173622 0
M  V30 27 C -0.993809 -4.078182 0.536278 0
M  V30 28 C -0.172783 -4.480540 -0.669345 0
M  V30 29 C -0.801510 -5.659808 -1.415755 0
M  V30 30 N 0.087216 -5.926300 -2.530958 0
M  V30 31 C 0.586946 -3.296659 2.126219 0
M  V30 32 N 0.857470 -4.573416 2.466700 0
M  V30 33 H 2.905446 -6.509470 1.829042 0
M  V30 34 H 4.077658 -6.294146 3.143401 0
M  V30 35 H 3.229851 -7.851332 3.006458 0
M  V30 36 H 1.491095 -6.743152 4.497282 0
M  V30 37 H 2.764993 -1.804284 4.296760 0
M  V30 38 H 1.560323 -0.122144 2.974709 0
M  V30 39 H 1.310650 0.711640 -0.406913 0
M  V30 40 H 0.715553 3.015971 -1.109934 0
M  V30 41 H -0.837685 5.523939 1.733587 0
M  V30 42 H -1.804058 8.043042 -1.512099 0
M  V30 43 H -2.930811 6.710781 -3.622361 0
M  V30 44 H -2.209823 5.098743 -3.853242 0
M  V30 45 H -1.130054 6.503145 -3.992548 0
M  V30 46 H -2.350833 3.230129 1.828410 0
M  V30 47 H -1.067266 -4.938456 1.233473 0
M  V30 48 H -2.038657 -3.834358 0.261052 0
M  V30 49 H 0.825037 -4.802921 -0.304539 0
M  V30 50 H -0.099858 -3.648888 -1.380736 0
M  V30 51 H -1.811481 -5.367515 -1.751678 0
M  V30 52 H -0.806090 -6.499427 -0.719486 0
M  V30 53 H 0.234399 -6.957195 -2.568859 0
M  V30 54 H -0.323950 -5.519432 -3.400401 0
M  V30 END ATOM
M  V30 BEGIN BOND
M  V30 1 1 1 2
M  V30 2 1 2 3
M  V30 3 2 3 4
M  V30 4 1 4 5
M  V30 5 2 5 6
M  V30 6 1 6 7
M  V30 7 2 7 8
M  V30 8 1 8 9
M  V30 9 2 9 10
M  V30 10 1 10 11
M  V30 11 2 11 12
M  V30 12 1 12 13
M  V30 13 1 13 14
M  V30 14 2 14 15
M  V30 15 1 15 16
M  V30 16 2 16 17
M  V30 17 1 17 18
M  V30 18 1 17 19
M  V30 19 2 19 20
M  V30 20 1 12 21
M  V30 21 2 21 22
M  V30 22 1 22 23
M  V30 23 1 8 24
M  V30 24 2 24 25
M  V30 25 1 24 26
M  V30 26 1 26 27
M  V30 27 1 27 28
M  V30 28 1 28 29
M  V30 29 1 29 30
M  V30 30 1 26 31
M  V30 31 2 31 32
M  V30 32 1 32 3
M  V30 33 1 31 6
M  V30 34 1 22 9
M  V30 35 1 19 13
M  V30 36 1 1 33
M  V30 37 1 1 34
M  V30 38 1 1 35
M  V30 39 1 2 36
M  V30 40 1 5 37
M  V30 41 1 7 38
M  V30 42 1 10 39
M  V30 43 1 11 40
M  V30 44 1 14 41
M  V30 45 1 16 42
M  V30 46 1 18 43
M  V30 47 1 18 44
M  V30 48 1 18 45
M  V30 49 1 21 46
M  V30 50 1 27 47
M  V30 51 1 27 48
M  V30 52 1 28 49
M  V30 53 1 28 50
M  V30 54 1 29 51
M  V30 55 1 29 52
M  V30 56 1 30 53
M  V30 57 1 30 54
M  V30 END BOND
M  V30 END CTAB
M  END
>  <Dataset>  (992) 
ChEMBL_Kinases

>  <Ligand_Instance>  (992) 
nan

>  <PDB_ID>  (992) 
nan

>  <Standardized_SMILES>  (992) 
CNc1ncc2cc(-c3ccc(-n4cncc(C)c4=O)cc3Cl)c(=O)n(CCCN)c2n1

>  <Name>  (992) 
nan

>  <Pocket>  (992) 
nan

>  <ATP_Site>  (992) 
nan

>  <Peripheral>  (992) 
nan

>  <Num_H_Atoms_ProtBoundConf>  (992) 
nan

>  <Num_Resolved_Atoms>  (992) 
nan

>  <Num_Not_Resolved_Atoms>  (992) 
nan

$$$$
CHEMBL3818403
     RDKit          3D

  0  0  0  0  0  0  0  0  0  0999 V3000
M  V30 BEGIN CTAB
M  V30 COUNTS 64 69 0 0 0
M  V30 BEGIN ATOM
M  V30 1 O 6.491750 1.696148 -1.814446 0
M  V30 2 C 5.986526 1.394895 -0.706653 0
M  V30 3 N 6.975440 1.103955 0.294652 0
M  V30 4 C 8.410122 1.115888 0.127424 0
M  V30 5 C 9.116954 -0.042399 0.907266 0
M  V30 6 C 9.368356 1.427366 1.179246 0
M  V30 7 C 4.653898 1.240211 -0.088077 0
M  V30 8 C 4.293023 1.927620 1.050567 0
M  V30 9 C 3.038967 1.682742 1.567061 0
M  V30 10 C 2.193855 0.769725 0.936596 0
M  V30 11 C 0.847308 0.441568 1.430639 0
M  V30 12 C 0.595611 0.169128 2.770688 0
M  V30 13 N -0.720550 -0.087104 2.848332 0
M  V30 14 N -1.255141 0.014750 1.661441 0
M  V30 15 C -2.535443 -0.142371 1.204256 0
M  V30 16 N -3.589145 -0.498437 2.071550 0
M  V30 17 C -4.464980 -1.571508 2.487049 0
M  V30 18 C -3.659507 -2.752073 2.915327 0
M  V30 19 C -4.536607 -3.902020 3.375480 0
M  V30 20 C -4.737539 -4.945827 2.321901 0
M  V30 21 O -4.872524 -4.429641 1.051497 0
M  V30 22 C -3.746183 -3.739167 0.621497 0
M  V30 23 C -2.844601 -3.296197 1.752246 0
M  V30 24 N -2.836638 0.026183 -0.116315 0
M  V30 25 C -1.893499 0.351423 -1.014131 0
M  V30 26 O -2.111467 0.541322 -2.371205 0
M  V30 27 C -3.383059 0.388278 -2.912753 0
M  V30 28 C -3.645328 -0.903908 -3.381099 0
M  V30 29 C -4.895407 -1.165087 -3.944490 0
M  V30 30 C -5.858852 -0.183676 -4.044313 0
M  V30 31 C -5.573699 1.098917 -3.569753 0
M  V30 32 C -4.341305 1.383390 -3.006611 0
M  V30 33 N -0.642821 0.504491 -0.564589 0
M  V30 34 C -0.333318 0.342538 0.726569 0
M  V30 35 C 2.548999 0.074362 -0.210911 0
M  V30 36 C 3.805818 0.327795 -0.717522 0
M  V30 37 Cl 4.313567 -0.521703 -2.172606 0
M  V30 38 H 6.736968 0.847992 1.306506 0
M  V30 39 H 8.757750 1.283933 -0.920527 0
M  V30 40 H 8.472430 -0.575898 1.657029 0
M  V30 41 H 9.822183 -0.657080 0.350739 0
M  V30 42 H 9.117780 1.768045 2.181743 0
M  V30 43 H 10.400508 1.760391 0.868409 0
M  V30 44 H 4.970989 2.623095 1.508506 0
M  V30 45 H 2.676613 2.172257 2.451896 0
M  V30 46 H 1.263219 0.148549 3.626943 0
M  V30 47 H -3.730759 0.432106 2.573682 0
M  V30 48 H -5.123145 -1.898003 1.627084 0
M  V30 49 H -5.151673 -1.254061 3.280213 0
M  V30 50 H -2.962605 -2.457566 3.706636 0
M  V30 51 H -5.509088 -3.449425 3.706935 0
M  V30 52 H -4.116093 -4.384170 4.278705 0
M  V30 53 H -5.694187 -5.489560 2.560386 0
M  V30 54 H -3.939354 -5.729804 2.356382 0
M  V30 55 H -3.133176 -4.325741 -0.085159 0
M  V30 56 H -4.141172 -2.858886 0.043354 0
M  V30 57 H -2.141967 -2.572248 1.339462 0
M  V30 58 H -2.286265 -4.178180 2.114860 0
M  V30 59 H -2.924830 -1.716687 -3.329767 0
M  V30 60 H -5.087306 -2.160011 -4.301393 0
M  V30 61 H -6.823569 -0.397304 -4.482406 0
M  V30 62 H -6.296355 1.910842 -3.623106 0
M  V30 63 H -4.038624 2.360031 -2.610540 0
M  V30 64 H 1.929613 -0.629576 -0.718667 0
M  V30 END ATOM
M  V30 BEGIN BOND
M  V30 1 2 1 2
M  V30 2 1 2 3
M  V30 3 1 3 4
M  V30 4 1 4 5
M  V30 5 1 5 6
M  V30 6 1 2 7
M  V30 7 2 7 8
M  V30 8 1 8 9
M  V30 9 2 9 10
M  V30 10 1 10 11
M  V30 11 1 11 12
M  V30 12 2 12 13
M  V30 13 1 13 14
M  V30 14 1 14 15
M  V30 15 1 15 16
M  V30 16 1 16 17
M  V30 17 1 17 18
M  V30 18 1 18 19
M  V30 19 1 19 20
M  V30 20 1 20 21
M  V30 21 1 21 22
M  V30 22 1 22 23
M  V30 23 2 15 24
M  V30 24 1 24 25
M  V30 25 1 25 26
M  V30 26 1 26 27
M  V30 27 2 27 28
M  V30 28 1 28 29
M  V30 29 2 29 30
M  V30 30 1 30 31
M  V30 31 2 31 32
M  V30 32 2 25 33
M  V30 33 1 33 34
M  V30 34 1 10 35
M  V30 35 2 35 36
M  V30 36 1 36 37
M  V30 37 1 6 4
M  V30 38 1 36 7
M  V30 39 2 34 11
M  V30 40 1 34 14
M  V30 41 1 23 18
M  V30 42 1 32 27
M  V30 43 1 3 38
M  V30 44 1 4 39
M  V30 45 1 5 40
M  V30 46 1 5 41
M  V30 47 1 6 42
M  V30 48 1 6 43
M  V30 49 1 8 44
M  V30 50 1 9 45
M  V30 51 1 12 46
M  V30 52 1 16 47
M  V30 53 1 17 48
M  V30 54 1 17 49
M  V30 55 1 18 50
M  V30 56 1 19 51
M  V30 57 1 19 52
M  V30 58 1 20 53
M  V30 59 1 20 54
M  V30 60 1 22 55
M  V30 61 1 22 56
M  V30 62 1 23 57
M  V30 63 1 23 58
M  V30 64 1 28 59
M  V30 65 1 29 60
M  V30 66 1 30 61
M  V30 67 1 31 62
M  V30 68 1 32 63
M  V30 69 1 35 64
M  V30 END BOND
M  V30 END CTAB
M  END
>  <Dataset>  (993) 
ChEMBL_Kinases

>  <Ligand_Instance>  (993) 
nan

>  <PDB_ID>  (993) 
nan

>  <Standardized_SMILES>  (993) 
O=C(NC1CC1)c1ccc(-c2cnn3c(NCC4CCOCC4)nc(Oc4ccccc4)nc23)cc1Cl

>  <Name>  (993) 
nan

>  <Pocket>  (993) 
nan

>  <ATP_Site>  (993) 
nan

>  <Peripheral>  (993) 
nan

>  <Num_H_Atoms_ProtBoundConf>  (993) 
nan

>  <Num_Resolved_Atoms>  (993) 
nan

>  <Num_Not_Resolved_Atoms>  (993) 
nan

$$$$
CHEMBL3818372
     RDKit          3D

  0  0  0  0  0  0  0  0  0  0999 V3000
M  V30 BEGIN CTAB
M  V30 COUNTS 53 56 0 0 0
M  V30 BEGIN ATOM
M  V30 1 C -0.012234 -5.867130 5.555016 0
M  V30 2 N 0.285972 -5.900480 4.136597 0
M  V30 3 C 0.179165 -4.643060 3.484130 0
M  V30 4 N 1.238300 -3.864721 3.801054 0
M  V30 5 C 1.364094 -2.628602 3.280413 0
M  V30 6 C 0.371689 -2.183716 2.406549 0
M  V30 7 C 0.400564 -0.929200 1.784263 0
M  V30 8 C -0.614230 -0.541693 0.896593 0
M  V30 9 C -0.261238 0.791205 0.413146 0
M  V30 10 C -0.608847 2.039170 0.869602 0
M  V30 11 C -0.124502 3.182708 0.273897 0
M  V30 12 C 0.727239 3.036450 -0.800477 0
M  V30 13 N 1.317893 4.167354 -1.471094 0
M  V30 14 C 1.422501 4.439627 -2.785068 0
M  V30 15 C 2.104466 5.656996 -2.953575 0
M  V30 16 N 2.370869 6.042629 -1.676768 0
M  V30 17 C 3.063263 7.235354 -1.266918 0
M  V30 18 C 1.913318 5.174078 -0.769855 0
M  V30 19 O 1.995931 5.236551 0.486768 0
M  V30 20 C 1.101705 1.779788 -1.292903 0
M  V30 21 C 0.599194 0.618653 -0.676946 0
M  V30 22 Cl 1.148139 -0.880830 -1.394237 0
M  V30 23 C -1.645249 -1.413068 0.644155 0
M  V30 24 O -2.472750 -0.940327 -0.159923 0
M  V30 25 N -1.655611 -2.598697 1.246307 0
M  V30 26 C -2.723421 -3.499628 0.981457 0
M  V30 27 C -2.278667 -4.391124 -0.184033 0
M  V30 28 C -3.321626 -5.404403 -0.542653 0
M  V30 29 N -2.891449 -6.267001 -1.648073 0
M  V30 30 C -0.701442 -3.014590 2.106226 0
M  V30 31 N -0.798886 -4.254280 2.650518 0
M  V30 32 H -1.085795 -5.757188 5.692885 0
M  V30 33 H 0.355241 -6.806285 6.050010 0
M  V30 34 H 0.466870 -4.987560 6.036979 0
M  V30 35 H 0.559938 -6.489061 3.339761 0
M  V30 36 H 2.193385 -1.958103 3.501468 0
M  V30 37 H 1.293066 -0.374888 2.104873 0
M  V30 38 H -1.277612 2.005867 1.713125 0
M  V30 39 H -0.409246 4.132303 0.640017 0
M  V30 40 H 1.036914 3.815733 -3.579982 0
M  V30 41 H 2.355185 6.165277 -3.872717 0
M  V30 42 H 3.319020 7.843244 -2.156308 0
M  V30 43 H 2.514075 7.840039 -0.543617 0
M  V30 44 H 4.065442 6.927484 -0.840368 0
M  V30 45 H 1.783938 1.736058 -2.158196 0
M  V30 46 H -2.972292 -4.157437 1.818749 0
M  V30 47 H -3.676881 -3.006205 0.674083 0
M  V30 48 H -2.010236 -3.819190 -1.077271 0
M  V30 49 H -1.351301 -4.960094 0.108510 0
M  V30 50 H -3.454513 -6.129354 0.313081 0
M  V30 51 H -4.295159 -4.935352 -0.767027 0
M  V30 52 H -1.866755 -6.118056 -1.828433 0
M  V30 53 H -3.451370 -6.159228 -2.496185 0
M  V30 END ATOM
M  V30 BEGIN BOND
M  V30 1 1 1 2
M  V30 2 1 2 3
M  V30 3 2 3 4
M  V30 4 1 4 5
M  V30 5 2 5 6
M  V30 6 1 6 7
M  V30 7 2 7 8
M  V30 8 1 8 9
M  V30 9 2 9 10
M  V30 10 1 10 11
M  V30 11 2 11 12
M  V30 12 1 12 13
M  V30 13 1 13 14
M  V30 14 2 14 15
M  V30 15 1 15 16
M  V30 16 1 16 17
M  V30 17 1 16 18
M  V30 18 2 18 19
M  V30 19 1 12 20
M  V30 20 2 20 21
M  V30 21 1 21 22
M  V30 22 1 8 23
M  V30 23 2 23 24
M  V30 24 1 23 25
M  V30 25 1 25 26
M  V30 26 1 26 27
M  V30 27 1 27 28
M  V30 28 1 28 29
M  V30 29 1 25 30
M  V30 30 2 30 31
M  V30 31 1 31 3
M  V30 32 1 30 6
M  V30 33 1 21 9
M  V30 34 1 18 13
M  V30 35 1 1 32
M  V30 36 1 1 33
M  V30 37 1 1 34
M  V30 38 1 2 35
M  V30 39 1 5 36
M  V30 40 1 7 37
M  V30 41 1 10 38
M  V30 42 1 11 39
M  V30 43 1 14 40
M  V30 44 1 15 41
M  V30 45 1 17 42
M  V30 46 1 17 43
M  V30 47 1 17 44
M  V30 48 1 20 45
M  V30 49 1 26 46
M  V30 50 1 26 47
M  V30 51 1 27 48
M  V30 52 1 27 49
M  V30 53 1 28 50
M  V30 54 1 28 51
M  V30 55 1 29 52
M  V30 56 1 29 53
M  V30 END BOND
M  V30 END CTAB
M  END
>  <Dataset>  (994) 
ChEMBL_Kinases

>  <Ligand_Instance>  (994) 
nan

>  <PDB_ID>  (994) 
nan

>  <Standardized_SMILES>  (994) 
CNc1ncc2cc(-c3ccc(-n4ccn(C)c4=O)cc3Cl)c(=O)n(CCCN)c2n1

>  <Name>  (994) 
nan

>  <Pocket>  (994) 
nan

>  <ATP_Site>  (994) 
nan

>  <Peripheral>  (994) 
nan

>  <Num_H_Atoms_ProtBoundConf>  (994) 
nan

>  <Num_Resolved_Atoms>  (994) 
nan

>  <Num_Not_Resolved_Atoms>  (994) 
nan

$$$$
CHEMBL3818326
     RDKit          3D

  0  0  0  0  0  0  0  0  0  0999 V3000
M  V30 BEGIN CTAB
M  V30 COUNTS 52 55 0 0 0
M  V30 BEGIN ATOM
M  V30 1 C -2.915725 -6.397913 3.315993 0
M  V30 2 N -1.699639 -6.429547 2.489211 0
M  V30 3 C -1.137969 -5.168267 2.136261 0
M  V30 4 N -0.240438 -4.758051 3.051640 0
M  V30 5 C 0.425936 -3.592521 2.937622 0
M  V30 6 C 0.174395 -2.807800 1.851732 0
M  V30 7 C 0.823176 -1.606424 1.668168 0
M  V30 8 C 0.511811 -0.878452 0.537760 0
M  V30 9 C 1.196712 0.396046 0.337677 0
M  V30 10 C 2.402284 0.521562 -0.352002 0
M  V30 11 C 2.969491 1.793926 -0.483146 0
M  V30 12 C 2.358558 2.921931 0.056236 0
M  V30 13 N 3.016592 4.181483 -0.130415 0
M  V30 14 C 2.970818 4.957447 -1.228666 0
M  V30 15 C 3.664347 6.149213 -1.250748 0
M  V30 16 C 4.419079 6.590545 -0.173808 0
M  V30 17 C 4.422931 5.747016 0.920020 0
M  V30 18 C 3.736583 4.551922 0.962038 0
M  V30 19 O 3.839899 3.896626 2.030425 0
M  V30 20 C 1.154957 2.766868 0.740046 0
M  V30 21 C 0.583614 1.512037 0.876419 0
M  V30 22 Cl -0.936445 1.380901 1.750328 0
M  V30 23 C -0.420622 -1.369816 -0.351796 0
M  V30 24 O -0.621198 -0.612956 -1.349101 0
M  V30 25 N -1.080170 -2.558241 -0.195349 0
M  V30 26 C -1.992034 -2.865124 -1.246493 0
M  V30 27 C -3.376596 -2.347606 -1.108826 0
M  V30 28 C -4.160680 -2.816115 0.063237 0
M  V30 29 N -4.357017 -4.251189 0.066028 0
M  V30 30 C -0.743896 -3.229042 0.917005 0
M  V30 31 N -1.386449 -4.397615 1.067960 0
M  V30 32 H -3.776012 -5.976439 2.771525 0
M  V30 33 H -3.133206 -7.426885 3.689033 0
M  V30 34 H -2.674516 -5.792571 4.235238 0
M  V30 35 H -1.059132 -7.133133 2.038177 0
M  V30 36 H 1.144995 -3.244440 3.653070 0
M  V30 37 H 1.532932 -1.323729 2.430917 0
M  V30 38 H 2.849383 -0.372061 -0.757599 0
M  V30 39 H 3.913946 1.845485 -1.030898 0
M  V30 40 H 2.372620 4.575811 -2.041282 0
M  V30 41 H 3.596829 6.739342 -2.157250 0
M  V30 42 H 4.957490 7.524003 -0.201565 0
M  V30 43 H 5.013706 6.082980 1.775194 0
M  V30 44 H 0.695479 3.675743 1.155354 0
M  V30 45 H -1.600625 -2.466118 -2.224677 0
M  V30 46 H -2.067866 -3.966114 -1.390744 0
M  V30 47 H -3.933311 -2.714535 -2.024282 0
M  V30 48 H -3.439887 -1.229055 -1.223979 0
M  V30 49 H -3.710390 -2.511718 1.038411 0
M  V30 50 H -5.179652 -2.375848 -0.012731 0
M  V30 51 H -4.633147 -4.620684 0.986007 0
M  V30 52 H -5.107600 -4.467420 -0.629686 0
M  V30 END ATOM
M  V30 BEGIN BOND
M  V30 1 1 1 2
M  V30 2 1 2 3
M  V30 3 2 3 4
M  V30 4 1 4 5
M  V30 5 2 5 6
M  V30 6 1 6 7
M  V30 7 2 7 8
M  V30 8 1 8 9
M  V30 9 2 9 10
M  V30 10 1 10 11
M  V30 11 2 11 12
M  V30 12 1 12 13
M  V30 13 1 13 14
M  V30 14 2 14 15
M  V30 15 1 15 16
M  V30 16 2 16 17
M  V30 17 1 17 18
M  V30 18 2 18 19
M  V30 19 1 12 20
M  V30 20 2 20 21
M  V30 21 1 21 22
M  V30 22 1 8 23
M  V30 23 2 23 24
M  V30 24 1 23 25
M  V30 25 1 25 26
M  V30 26 1 26 27
M  V30 27 1 27 28
M  V30 28 1 28 29
M  V30 29 1 25 30
M  V30 30 2 30 31
M  V30 31 1 31 3
M  V30 32 1 30 6
M  V30 33 1 21 9
M  V30 34 1 18 13
M  V30 35 1 1 32
M  V30 36 1 1 33
M  V30 37 1 1 34
M  V30 38 1 2 35
M  V30 39 1 5 36
M  V30 40 1 7 37
M  V30 41 1 10 38
M  V30 42 1 11 39
M  V30 43 1 14 40
M  V30 44 1 15 41
M  V30 45 1 16 42
M  V30 46 1 17 43
M  V30 47 1 20 44
M  V30 48 1 26 45
M  V30 49 1 26 46
M  V30 50 1 27 47
M  V30 51 1 27 48
M  V30 52 1 28 49
M  V30 53 1 28 50
M  V30 54 1 29 51
M  V30 55 1 29 52
M  V30 END BOND
M  V30 END CTAB
M  END
>  <Dataset>  (995) 
ChEMBL_Kinases

>  <Ligand_Instance>  (995) 
nan

>  <PDB_ID>  (995) 
nan

>  <Standardized_SMILES>  (995) 
CNc1ncc2cc(-c3ccc(-n4ccccc4=O)cc3Cl)c(=O)n(CCCN)c2n1

>  <Name>  (995) 
nan

>  <Pocket>  (995) 
nan

>  <ATP_Site>  (995) 
nan

>  <Peripheral>  (995) 
nan

>  <Num_H_Atoms_ProtBoundConf>  (995) 
nan

>  <Num_Resolved_Atoms>  (995) 
nan

>  <Num_Not_Resolved_Atoms>  (995) 
nan

$$$$
CHEMBL593000
     RDKit          3D

  0  0  0  0  0  0  0  0  0  0999 V3000
M  V30 BEGIN CTAB
M  V30 COUNTS 40 43 0 0 0
M  V30 BEGIN ATOM
M  V30 1 C 0.949297 -3.578368 2.381979 0
M  V30 2 N 0.109337 -2.399853 2.521087 0
M  V30 3 C 0.222239 -1.320401 1.714254 0
M  V30 4 C 1.131472 -1.052736 0.580777 0
M  V30 5 C 2.511847 -0.979850 0.588974 0
M  V30 6 C 3.143524 -0.714580 -0.612319 0
M  V30 7 C 2.451706 -0.528236 -1.774345 0
M  V30 8 N 3.113526 -0.270283 -2.929279 0
M  V30 9 C 2.420077 -0.085728 -4.082693 0
M  V30 10 C 1.047310 -0.156435 -4.100048 0
M  V30 11 N 0.399604 -0.409832 -2.964804 0
M  V30 12 C 1.073035 -0.595021 -1.813683 0
M  V30 13 C 0.429469 -0.860656 -0.613961 0
M  V30 14 C -0.736696 -0.408096 2.148870 0
M  V30 15 C -0.971017 0.922295 1.550249 0
M  V30 16 C 0.142585 1.736402 1.672543 0
M  V30 17 C 0.127408 3.037539 1.170495 0
M  V30 18 C -1.040102 3.487916 0.545097 0
M  V30 19 C -2.139601 2.659545 0.433716 0
M  V30 20 F -3.294228 3.058993 -0.167305 0
M  V30 21 C -2.120594 1.371404 0.932296 0
M  V30 22 C -1.416198 -0.959326 3.219395 0
M  V30 23 O -2.347261 -0.432175 3.869695 0
M  V30 24 N -0.849066 -2.168375 3.388623 0
M  V30 25 C -1.248296 -3.132908 4.425674 0
M  V30 26 H 0.432474 -4.243458 1.656754 0
M  V30 27 H 1.932723 -3.278409 1.980389 0
M  V30 28 H 1.035245 -4.138737 3.345307 0
M  V30 29 H 2.940690 -1.142643 1.555360 0
M  V30 30 H 4.231003 -0.667184 -0.553822 0
M  V30 31 H 2.919188 0.121498 -5.019773 0
M  V30 32 H 0.508834 -0.008847 -5.017546 0
M  V30 33 H -0.658403 -0.901598 -0.705804 0
M  V30 34 H 1.081649 1.470389 2.138920 0
M  V30 35 H 0.961594 3.728825 1.231013 0
M  V30 36 H -1.128643 4.479817 0.132512 0
M  V30 37 H -2.922594 0.643596 0.898252 0
M  V30 38 H -1.952387 -2.660821 5.148778 0
M  V30 39 H -0.397135 -3.577413 4.936543 0
M  V30 40 H -1.890136 -3.894693 3.893656 0
M  V30 END ATOM
M  V30 BEGIN BOND
M  V30 1 1 1 2
M  V30 2 1 2 3
M  V30 3 1 3 4
M  V30 4 2 4 5
M  V30 5 1 5 6
M  V30 6 2 6 7
M  V30 7 1 7 8
M  V30 8 2 8 9
M  V30 9 1 9 10
M  V30 10 2 10 11
M  V30 11 1 11 12
M  V30 12 2 12 13
M  V30 13 2 3 14
M  V30 14 1 14 15
M  V30 15 2 15 16
M  V30 16 1 16 17
M  V30 17 2 17 18
M  V30 18 1 18 19
M  V30 19 1 19 20
M  V30 20 2 19 21
M  V30 21 1 14 22
M  V30 22 2 22 23
M  V30 23 1 22 24
M  V30 24 1 24 25
M  V30 25 1 24 2
M  V30 26 1 13 4
M  V30 27 1 21 15
M  V30 28 1 12 7
M  V30 29 1 1 26
M  V30 30 1 1 27
M  V30 31 1 1 28
M  V30 32 1 5 29
M  V30 33 1 6 30
M  V30 34 1 9 31
M  V30 35 1 10 32
M  V30 36 1 13 33
M  V30 37 1 16 34
M  V30 38 1 17 35
M  V30 39 1 18 36
M  V30 40 1 21 37
M  V30 41 1 25 38
M  V30 42 1 25 39
M  V30 43 1 25 40
M  V30 END BOND
M  V30 END CTAB
M  END
>  <Dataset>  (996) 
ChEMBL_Kinases

>  <Ligand_Instance>  (996) 
nan

>  <PDB_ID>  (996) 
nan

>  <Standardized_SMILES>  (996) 
Cn1c(-c2ccc3nccnc3c2)c(-c2cccc(F)c2)c(=O)n1C

>  <Name>  (996) 
nan

>  <Pocket>  (996) 
nan

>  <ATP_Site>  (996) 
nan

>  <Peripheral>  (996) 
nan

>  <Num_H_Atoms_ProtBoundConf>  (996) 
nan

>  <Num_Resolved_Atoms>  (996) 
nan

>  <Num_Not_Resolved_Atoms>  (996) 
nan

$$$$
CHEMBL3818646
     RDKit          3D

  0  0  0  0  0  0  0  0  0  0999 V3000
M  V30 BEGIN CTAB
M  V30 COUNTS 67 72 0 0 0
M  V30 BEGIN ATOM
M  V30 1 C 4.253951 1.470820 2.248685 0
M  V30 2 C 2.915692 0.830078 2.321495 0
M  V30 3 C 2.265825 0.448213 1.146591 0
M  V30 4 C 1.016800 -0.156523 1.079205 0
M  V30 5 C 0.504391 -0.478882 -0.246634 0
M  V30 6 C 0.580283 0.444622 -1.285699 0
M  V30 7 N 0.027426 -0.162270 -2.348867 0
M  V30 8 N -0.381131 -1.363103 -2.074555 0
M  V30 9 C -0.976024 -2.294929 -2.834211 0
M  V30 10 N -1.325188 -2.151174 -4.210615 0
M  V30 11 C -2.534648 -1.820238 -4.911063 0
M  V30 12 C -3.082054 -0.437626 -4.589936 0
M  V30 13 C -2.137666 0.646670 -4.940222 0
M  V30 14 C -2.332042 1.907236 -4.178110 0
M  V30 15 O -2.507732 1.736241 -2.820025 0
M  V30 16 C -3.626209 0.958971 -2.535975 0
M  V30 17 C -3.627627 -0.356639 -3.216443 0
M  V30 18 N -1.263644 -3.463428 -2.197258 0
M  V30 19 C -0.993674 -3.701515 -0.924166 0
M  V30 20 O -1.389030 -4.964132 -0.524088 0
M  V30 21 C -1.232341 -5.467002 0.746922 0
M  V30 22 C -0.702645 -4.984051 1.923948 0
M  V30 23 C -0.686261 -5.742758 3.069047 0
M  V30 24 C -1.191854 -7.025061 3.120770 0
M  V30 25 C -1.731575 -7.534334 1.944089 0
M  V30 26 F -2.212047 -8.794643 2.046194 0
M  V30 27 C -1.753237 -6.768373 0.772162 0
M  V30 28 F -2.326450 -7.462163 -0.257280 0
M  V30 29 N -0.397081 -2.738280 -0.201740 0
M  V30 30 C -0.100968 -1.590976 -0.782295 0
M  V30 31 C 0.397969 -0.382658 2.294103 0
M  V30 32 C 1.012620 -0.017925 3.472398 0
M  V30 33 C 2.253675 0.581284 3.505135 0
M  V30 34 C 2.958063 0.995029 4.711992 0
M  V30 35 O 3.838241 0.316348 5.346232 0
M  V30 36 N 2.682901 2.252723 5.276954 0
M  V30 37 C 3.252344 2.866515 6.455935 0
M  V30 38 C 3.723198 4.309331 6.201491 0
M  V30 39 C 2.567621 3.949298 7.174452 0
M  V30 40 H 4.320447 2.404644 2.811269 0
M  V30 41 H 5.035990 0.770217 2.632739 0
M  V30 42 H 4.468187 1.738915 1.184629 0
M  V30 43 H 2.803418 0.651546 0.223909 0
M  V30 44 H 0.977724 1.470167 -1.351007 0
M  V30 45 H -0.408114 -2.360641 -4.676261 0
M  V30 46 H -2.317459 -1.926766 -5.992118 0
M  V30 47 H -3.324052 -2.583728 -4.692612 0
M  V30 48 H -3.964949 -0.329883 -5.292491 0
M  V30 49 H -2.218538 0.912988 -6.037918 0
M  V30 50 H -1.104439 0.263385 -4.816774 0
M  V30 51 H -1.401794 2.537707 -4.291933 0
M  V30 52 H -3.157265 2.515010 -4.607432 0
M  V30 53 H -4.542788 1.518299 -2.831041 0
M  V30 54 H -3.709111 0.805744 -1.439507 0
M  V30 55 H -4.698213 -0.732764 -3.205918 0
M  V30 56 H -3.119642 -1.079303 -2.506127 0
M  V30 57 H -0.334136 -3.978426 1.786335 0
M  V30 58 H -0.236752 -5.226357 3.920546 0
M  V30 59 H -1.147482 -7.562051 4.052597 0
M  V30 60 H -0.570201 -0.849718 2.242441 0
M  V30 61 H 0.520652 -0.200035 4.419989 0
M  V30 62 H 1.961357 2.862370 4.795975 0
M  V30 63 H 4.016425 2.236591 6.971600 0
M  V30 64 H 3.400544 4.831074 5.299469 0
M  V30 65 H 4.680679 4.636276 6.656222 0
M  V30 66 H 2.804467 4.111984 8.239057 0
M  V30 67 H 1.535934 4.207849 6.830519 0
M  V30 END ATOM
M  V30 BEGIN BOND
M  V30 1 1 1 2
M  V30 2 2 2 3
M  V30 3 1 3 4
M  V30 4 1 4 5
M  V30 5 1 5 6
M  V30 6 2 6 7
M  V30 7 1 7 8
M  V30 8 1 8 9
M  V30 9 1 9 10
M  V30 10 1 10 11
M  V30 11 1 11 12
M  V30 12 1 12 13
M  V30 13 1 13 14
M  V30 14 1 14 15
M  V30 15 1 15 16
M  V30 16 1 16 17
M  V30 17 2 9 18
M  V30 18 1 18 19
M  V30 19 1 19 20
M  V30 20 1 20 21
M  V30 21 2 21 22
M  V30 22 1 22 23
M  V30 23 2 23 24
M  V30 24 1 24 25
M  V30 25 1 25 26
M  V30 26 2 25 27
M  V30 27 1 27 28
M  V30 28 2 19 29
M  V30 29 1 29 30
M  V30 30 2 4 31
M  V30 31 1 31 32
M  V30 32 2 32 33
M  V30 33 1 33 34
M  V30 34 2 34 35
M  V30 35 1 34 36
M  V30 36 1 36 37
M  V30 37 1 37 38
M  V30 38 1 38 39
M  V30 39 1 33 2
M  V30 40 1 39 37
M  V30 41 2 30 5
M  V30 42 1 30 8
M  V30 43 1 17 12
M  V30 44 1 27 21
M  V30 45 1 1 40
M  V30 46 1 1 41
M  V30 47 1 1 42
M  V30 48 1 3 43
M  V30 49 1 6 44
M  V30 50 1 10 45
M  V30 51 1 11 46
M  V30 52 1 11 47
M  V30 53 1 12 48
M  V30 54 1 13 49
M  V30 55 1 13 50
M  V30 56 1 14 51
M  V30 57 1 14 52
M  V30 58 1 16 53
M  V30 59 1 16 54
M  V30 60 1 17 55
M  V30 61 1 17 56
M  V30 62 1 22 57
M  V30 63 1 23 58
M  V30 64 1 24 59
M  V30 65 1 31 60
M  V30 66 1 32 61
M  V30 67 1 36 62
M  V30 68 1 37 63
M  V30 69 1 38 64
M  V30 70 1 38 65
M  V30 71 1 39 66
M  V30 72 1 39 67
M  V30 END BOND
M  V30 END CTAB
M  END
>  <Dataset>  (997) 
ChEMBL_Kinases

>  <Ligand_Instance>  (997) 
nan

>  <PDB_ID>  (997) 
nan

>  <Standardized_SMILES>  (997) 
Cc1cc(-c2cnn3c(NCC4CCOCC4)nc(Oc4cccc(F)c4F)nc23)ccc1C(=O)NC1CC1

>  <Name>  (997) 
nan

>  <Pocket>  (997) 
nan

>  <ATP_Site>  (997) 
nan

>  <Peripheral>  (997) 
nan

>  <Num_H_Atoms_ProtBoundConf>  (997) 
nan

>  <Num_Resolved_Atoms>  (997) 
nan

>  <Num_Not_Resolved_Atoms>  (997) 
nan

$$$$
CHEMBL3827586
     RDKit          3D

  0  0  0  0  0  0  0  0  0  0999 V3000
M  V30 BEGIN CTAB
M  V30 COUNTS 57 61 0 0 0
M  V30 BEGIN ATOM
M  V30 1 C 0.885953 -0.580276 3.814715 0
M  V30 2 O 0.801370 -1.647817 2.908510 0
M  V30 3 C 1.986208 -1.707489 2.153691 0
M  V30 4 C 3.216797 -2.019148 3.012359 0
M  V30 5 C 2.177372 -0.525363 1.253910 0
M  V30 6 N 1.851364 -1.368569 0.052678 0
M  V30 7 C 1.493662 -1.237038 -1.392660 0
M  V30 8 O 1.407558 -2.130866 -2.214218 0
M  V30 9 C 1.326946 0.220485 -1.257310 0
M  V30 10 C 2.190321 1.330643 -1.352578 0
M  V30 11 C 1.768847 2.569419 -0.973684 0
M  V30 12 C 0.485533 2.716624 -0.482041 0
M  V30 13 C -0.010843 3.955949 -0.075489 0
M  V30 14 N 0.873838 5.061586 -0.177673 0
M  V30 15 N -1.232128 4.197716 0.417496 0
M  V30 16 C -2.129425 3.201444 0.560745 0
M  V30 17 C -1.785224 1.933862 0.189010 0
M  V30 18 C -2.357472 0.565655 0.243616 0
M  V30 19 C -3.270757 0.120870 -0.664635 0
M  V30 20 C -3.652818 -1.204303 -0.777559 0
M  V30 21 C -3.002052 -2.030229 0.141789 0
M  V30 22 C -2.815167 -3.531767 0.117468 0
M  V30 23 C -2.718931 -4.774681 0.671432 0
M  V30 24 N -2.192789 -5.683182 -0.191037 0
M  V30 25 N -1.922493 -5.108272 -1.361430 0
M  V30 26 C -1.277355 -5.606659 -2.526986 0
M  V30 27 C -2.288141 -3.800547 -1.223299 0
M  V30 28 C -2.083398 -1.661071 1.079659 0
M  V30 29 C -1.719215 -0.320251 1.163675 0
M  V30 30 C -0.491263 1.753100 -0.321313 0
M  V30 31 C 0.046318 0.537579 -0.750431 0
M  V30 32 C 1.868083 -2.570828 0.881033 0
M  V30 33 H 1.724642 -0.736367 4.505651 0
M  V30 34 H 0.983485 0.389724 3.321277 0
M  V30 35 H -0.085239 -0.562280 4.335579 0
M  V30 36 H 3.979951 -2.519567 2.424691 0
M  V30 37 H 2.821220 -2.671368 3.818942 0
M  V30 38 H 3.573282 -1.114410 3.497365 0
M  V30 39 H 3.145660 -0.082407 1.220787 0
M  V30 40 H 1.357260 0.215117 1.335419 0
M  V30 41 H 3.123665 0.971416 -1.746418 0
M  V30 42 H 2.433216 3.397982 -1.058388 0
M  V30 43 H 1.345868 5.019454 0.752604 0
M  V30 44 H 1.489977 5.835761 -0.256105 0
M  V30 45 H -3.120106 3.165591 0.851643 0
M  V30 46 H -3.785673 0.744707 -1.405251 0
M  V30 47 H -4.318446 -1.745990 -1.402992 0
M  V30 48 H -3.097127 -4.646506 1.685507 0
M  V30 49 H -1.168576 -6.697760 -2.524682 0
M  V30 50 H -1.777128 -5.203149 -3.410586 0
M  V30 51 H -0.262398 -5.081287 -2.529087 0
M  V30 52 H -2.108636 -3.155532 -2.120850 0
M  V30 53 H -1.558617 -2.232228 1.832388 0
M  V30 54 H -1.020081 0.167591 1.849094 0
M  V30 55 H -0.600915 -0.311983 -0.732091 0
M  V30 56 H 0.884812 -3.101093 0.804636 0
M  V30 57 H 2.671218 -3.215746 0.722516 0
M  V30 END ATOM
M  V30 BEGIN BOND
M  V30 1 1 1 2
M  V30 2 1 2 3
M  V30 3 1 3 4
M  V30 4 1 3 5
M  V30 5 1 5 6
M  V30 6 1 6 7
M  V30 7 2 7 8
M  V30 8 1 7 9
M  V30 9 2 9 10
M  V30 10 1 10 11
M  V30 11 2 11 12
M  V30 12 1 12 13
M  V30 13 1 13 14
M  V30 14 2 13 15
M  V30 15 1 15 16
M  V30 16 2 16 17
M  V30 17 1 17 18
M  V30 18 2 18 19
M  V30 19 1 19 20
M  V30 20 2 20 21
M  V30 21 1 21 22
M  V30 22 1 22 23
M  V30 23 2 23 24
M  V30 24 1 24 25
M  V30 25 1 25 26
M  V30 26 1 25 27
M  V30 27 1 21 28
M  V30 28 2 28 29
M  V30 29 1 17 30
M  V30 30 2 30 31
M  V30 31 1 6 32
M  V30 32 1 32 3
M  V30 33 1 31 9
M  V30 34 1 30 12
M  V30 35 1 29 18
M  V30 36 2 27 22
M  V30 37 1 1 33
M  V30 38 1 1 34
M  V30 39 1 1 35
M  V30 40 1 4 36
M  V30 41 1 4 37
M  V30 42 1 4 38
M  V30 43 1 5 39
M  V30 44 1 5 40
M  V30 45 1 10 41
M  V30 46 1 11 42
M  V30 47 1 14 43
M  V30 48 1 14 44
M  V30 49 1 16 45
M  V30 50 1 19 46
M  V30 51 1 20 47
M  V30 52 1 23 48
M  V30 53 1 26 49
M  V30 54 1 26 50
M  V30 55 1 26 51
M  V30 56 1 27 52
M  V30 57 1 28 53
M  V30 58 1 29 54
M  V30 59 1 31 55
M  V30 60 1 32 56
M  V30 61 1 32 57
M  V30 END BOND
M  V30 END CTAB
M  END
>  <Dataset>  (998) 
ChEMBL_Kinases

>  <Ligand_Instance>  (998) 
nan

>  <PDB_ID>  (998) 
nan

>  <Standardized_SMILES>  (998) 
COC1(C)CN(C(=O)c2ccc3c(N)ncc(-c4ccc(-c5cnn(C)c5)cc4)c3c2)C1

>  <Name>  (998) 
nan

>  <Pocket>  (998) 
nan

>  <ATP_Site>  (998) 
nan

>  <Peripheral>  (998) 
nan

>  <Num_H_Atoms_ProtBoundConf>  (998) 
nan

>  <Num_Resolved_Atoms>  (998) 
nan

>  <Num_Not_Resolved_Atoms>  (998) 
nan

$$$$
CHEMBL495039
     RDKit          3D

  0  0  0  0  0  0  0  0  0  0999 V3000
M  V30 BEGIN CTAB
M  V30 COUNTS 51 53 0 0 0
M  V30 BEGIN ATOM
M  V30 1 C 0.653887 -3.290279 1.393475 0
M  V30 2 O -0.442990 -2.430661 1.165671 0
M  V30 3 C -0.216636 -1.064802 1.073050 0
M  V30 4 C 1.049868 -0.533436 1.198192 0
M  V30 5 C 1.373101 0.805804 1.122152 0
M  V30 6 N 2.696750 1.299101 1.240348 0
M  V30 7 C 3.907530 0.571273 1.483525 0
M  V30 8 C 4.022911 -0.019019 2.857832 0
M  V30 9 C 5.307792 -0.789806 3.081412 0
M  V30 10 N 6.473558 0.017056 2.915029 0
M  V30 11 C 0.280031 1.651446 0.898382 0
M  V30 12 N 0.569979 2.968569 0.840406 0
M  V30 13 C -0.362462 3.907041 0.654915 0
M  V30 14 C -1.622154 3.399629 0.533281 0
M  V30 15 C -2.021445 2.056911 0.579202 0
M  V30 16 C -3.450863 1.685632 0.484000 0
M  V30 17 C -0.991999 1.141085 0.771314 0
M  V30 18 C -1.258394 -0.208009 0.853101 0
M  V30 19 O -2.577138 -0.685313 0.710331 0
M  V30 20 C -2.805408 -1.329541 -0.527323 0
M  V30 21 C -2.871633 -0.996487 -1.858979 0
M  V30 22 C -3.133381 -1.951396 -2.810045 0
M  V30 23 C -3.343329 -3.280580 -2.511018 0
M  V30 24 C -3.280032 -3.639113 -1.168814 0
M  V30 25 C -3.518640 -5.090585 -0.945145 0
M  V30 26 F -4.472046 -5.591229 -1.780848 0
M  V30 27 F -2.273320 -5.711767 -1.106033 0
M  V30 28 F -3.855316 -5.286290 0.400636 0
M  V30 29 C -3.014223 -2.675203 -0.187147 0
M  V30 30 H 1.332676 -3.161270 0.516803 0
M  V30 31 H 1.235982 -3.042423 2.290509 0
M  V30 32 H 0.270570 -4.341809 1.445310 0
M  V30 33 H 1.821293 -1.273662 1.359062 0
M  V30 34 H 2.796713 2.341099 1.135810 0
M  V30 35 H 4.777209 1.208206 1.220658 0
M  V30 36 H 4.009208 -0.308622 0.777498 0
M  V30 37 H 4.084518 0.862016 3.571447 0
M  V30 38 H 3.117004 -0.559142 3.161858 0
M  V30 39 H 5.371580 -1.654070 2.366429 0
M  V30 40 H 5.221993 -1.252357 4.086036 0
M  V30 41 H 7.277493 -0.531998 3.346010 0
M  V30 42 H 6.735036 0.082023 1.903969 0
M  V30 43 H -0.178613 4.951148 0.602206 0
M  V30 44 H -2.424910 4.136596 0.379494 0
M  V30 45 H -4.018383 2.664759 0.668852 0
M  V30 46 H -3.807154 1.375961 -0.490131 0
M  V30 47 H -3.803128 1.073145 1.351135 0
M  V30 48 H -2.681194 0.046912 -1.973348 0
M  V30 49 H -3.149276 -1.514461 -3.800899 0
M  V30 50 H -3.542841 -3.960328 -3.327383 0
M  V30 51 H -3.022072 -3.198463 0.772432 0
M  V30 END ATOM
M  V30 BEGIN BOND
M  V30 1 1 1 2
M  V30 2 1 2 3
M  V30 3 2 3 4
M  V30 4 1 4 5
M  V30 5 1 5 6
M  V30 6 1 6 7
M  V30 7 1 7 8
M  V30 8 1 8 9
M  V30 9 1 9 10
M  V30 10 2 5 11
M  V30 11 1 11 12
M  V30 12 2 12 13
M  V30 13 1 13 14
M  V30 14 2 14 15
M  V30 15 1 15 16
M  V30 16 1 15 17
M  V30 17 2 17 18
M  V30 18 1 18 19
M  V30 19 1 19 20
M  V30 20 2 20 21
M  V30 21 1 21 22
M  V30 22 2 22 23
M  V30 23 1 23 24
M  V30 24 1 24 25
M  V30 25 1 25 26
M  V30 26 1 25 27
M  V30 27 1 25 28
M  V30 28 2 24 29
M  V30 29 1 18 3
M  V30 30 1 29 20
M  V30 31 1 17 11
M  V30 32 1 1 30
M  V30 33 1 1 31
M  V30 34 1 1 32
M  V30 35 1 4 33
M  V30 36 1 6 34
M  V30 37 1 7 35
M  V30 38 1 7 36
M  V30 39 1 8 37
M  V30 40 1 8 38
M  V30 41 1 9 39
M  V30 42 1 9 40
M  V30 43 1 10 41
M  V30 44 1 10 42
M  V30 45 1 13 43
M  V30 46 1 14 44
M  V30 47 1 16 45
M  V30 48 1 16 46
M  V30 49 1 16 47
M  V30 50 1 21 48
M  V30 51 1 22 49
M  V30 52 1 23 50
M  V30 53 1 29 51
M  V30 END BOND
M  V30 END CTAB
M  END
>  <Dataset>  (999) 
ChEMBL_Kinases

>  <Ligand_Instance>  (999) 
nan

>  <PDB_ID>  (999) 
nan

>  <Standardized_SMILES>  (999) 
COc1cc(NCCCN)c2nccc(C)c2c1Oc1cccc(C(F)(F)F)c1

>  <Name>  (999) 
nan

>  <Pocket>  (999) 
nan

>  <ATP_Site>  (999) 
nan

>  <Peripheral>  (999) 
nan

>  <Num_H_Atoms_ProtBoundConf>  (999) 
nan

>  <Num_Resolved_Atoms>  (999) 
nan

>  <Num_Not_Resolved_Atoms>  (999) 
nan

$$$$
