CHEMBL3658463
     RDKit          3D

  0  0  0  0  0  0  0  0  0  0999 V3000
M  V30 BEGIN CTAB
M  V30 COUNTS 63 68 0 0 0
M  V30 BEGIN ATOM
M  V30 1 C 5.134999 -3.472572 4.310172 0
M  V30 2 N 4.640989 -2.479346 3.346514 0
M  V30 3 C 4.749318 -1.149705 3.520473 0
M  V30 4 C 4.160752 -0.624469 2.389773 0
M  V30 5 C 3.908582 0.637638 1.881138 0
M  V30 6 C 3.278084 0.878783 0.677550 0
M  V30 7 C 3.042006 2.236259 0.195861 0
M  V30 8 N 3.932884 3.264523 0.201534 0
M  V30 9 N 3.364203 4.342333 -0.311736 0
M  V30 10 C 2.091852 4.114329 -0.684513 0
M  V30 11 C 1.085623 4.868690 -1.253643 0
M  V30 12 C -0.169172 4.311376 -1.523191 0
M  V30 13 C -0.353130 2.983224 -1.196496 0
M  V30 14 C -1.671628 2.427436 -1.488670 0
M  V30 15 O -2.543221 3.173866 -2.004675 0
M  V30 16 N -2.078761 1.087869 -1.240848 0
M  V30 17 C -3.375579 0.564101 -1.534849 0 CFG=1
M  V30 18 C -3.237760 -0.579985 -2.550709 0
M  V30 19 C -2.387274 -1.681601 -2.004010 0
M  V30 20 N -2.331040 -1.773149 -0.600072 0
M  V30 21 C -3.405275 -1.293758 0.164329 0 CFG=2
M  V30 22 C -4.417681 -2.428949 0.357067 0
M  V30 23 C -3.702284 -3.526598 1.063455 0
M  V30 24 C -3.068043 -4.475311 0.263777 0
M  V30 25 C -2.360154 -5.557645 0.720008 0
M  V30 26 C -2.272122 -5.714903 2.089734 0
M  V30 27 C -2.888136 -4.794242 2.911273 0
M  V30 28 C -3.593700 -3.715156 2.430905 0
M  V30 29 C -4.083695 -0.050893 -0.352686 0
M  V30 30 C 0.650129 2.226194 -0.627590 0
M  V30 31 C 1.894547 2.774951 -0.359089 0
M  V30 32 C 2.872724 -0.236799 -0.066025 0
M  V30 33 C 3.088256 -1.543770 0.374291 0
M  V30 34 C 3.730541 -1.666206 1.597174 0
M  V30 35 N 4.041558 -2.808492 2.215387 0
M  V30 36 H 4.748618 -4.470060 4.097621 0
M  V30 37 H 6.227807 -3.454416 4.290684 0
M  V30 38 H 4.749123 -3.134771 5.285768 0
M  V30 39 H 5.175884 -0.579741 4.317431 0
M  V30 40 H 4.229029 1.494980 2.469047 0
M  V30 41 H 3.806152 5.282438 -0.435402 0
M  V30 42 H 1.266653 5.917880 -1.499509 0
M  V30 43 H -0.922716 4.947446 -1.970576 0
M  V30 44 H -1.374618 0.448359 -0.813173 0
M  V30 45 H -4.062628 1.318002 -1.975669 0
M  V30 46 H -2.855449 -0.117485 -3.474686 0
M  V30 47 H -4.289549 -0.947852 -2.703477 0
M  V30 48 H -1.352648 -1.500666 -2.377617 0
M  V30 49 H -2.705923 -2.639515 -2.447679 0
M  V30 50 H -1.415376 -1.902467 -0.151969 0
M  V30 51 H -3.058815 -1.049749 1.192238 0
M  V30 52 H -4.811410 -2.795326 -0.597589 0
M  V30 53 H -5.252127 -2.077584 1.022880 0
M  V30 54 H -3.118378 -4.379757 -0.828246 0
M  V30 55 H -1.892214 -6.256178 0.041642 0
M  V30 56 H -1.736826 -6.535515 2.536256 0
M  V30 57 H -2.866793 -4.845795 4.007358 0
M  V30 58 H -4.093954 -2.965816 3.031499 0
M  V30 59 H -4.316567 0.680520 0.444679 0
M  V30 60 H -5.078815 -0.379529 -0.742072 0
M  V30 61 H 0.471287 1.200470 -0.387045 0
M  V30 62 H 2.372123 -0.115494 -1.021740 0
M  V30 63 H 2.774270 -2.392969 -0.201980 0
M  V30 END ATOM
M  V30 BEGIN BOND
M  V30 1 1 1 2
M  V30 2 1 2 3
M  V30 3 2 3 4
M  V30 4 1 4 5
M  V30 5 2 5 6
M  V30 6 1 6 7
M  V30 7 2 7 8
M  V30 8 1 8 9
M  V30 9 1 9 10
M  V30 10 2 10 11
M  V30 11 1 11 12
M  V30 12 2 12 13
M  V30 13 1 13 14
M  V30 14 2 14 15
M  V30 15 1 14 16
M  V30 16 1 16 17
M  V30 17 1 17 18
M  V30 18 1 18 19
M  V30 19 1 19 20
M  V30 20 1 20 21
M  V30 21 1 21 22
M  V30 22 1 22 23
M  V30 23 2 23 24
M  V30 24 1 24 25
M  V30 25 2 25 26
M  V30 26 1 26 27
M  V30 27 2 27 28
M  V30 28 1 21 29
M  V30 29 1 13 30
M  V30 30 2 30 31
M  V30 31 1 6 32
M  V30 32 2 32 33
M  V30 33 1 33 34
M  V30 34 2 34 35
M  V30 35 1 35 2
M  V30 36 1 34 4
M  V30 37 1 31 7
M  V30 38 1 31 10
M  V30 39 1 29 17
M  V30 40 1 28 23
M  V30 41 1 1 36
M  V30 42 1 1 37
M  V30 43 1 1 38
M  V30 44 1 3 39
M  V30 45 1 5 40
M  V30 46 1 9 41
M  V30 47 1 11 42
M  V30 48 1 12 43
M  V30 49 1 16 44
M  V30 50 1 17 45 CFG=3
M  V30 51 1 18 46
M  V30 52 1 18 47
M  V30 53 1 19 48
M  V30 54 1 19 49
M  V30 55 1 20 50
M  V30 56 1 21 51 CFG=1
M  V30 57 1 22 52
M  V30 58 1 22 53
M  V30 59 1 24 54
M  V30 60 1 25 55
M  V30 61 1 26 56
M  V30 62 1 27 57
M  V30 63 1 28 58
M  V30 64 1 29 59
M  V30 65 1 29 60
M  V30 66 1 30 61
M  V30 67 1 32 62
M  V30 68 1 33 63
M  V30 END BOND
M  V30 END CTAB
M  END
>  <Dataset>  (1) 
ChEMBL_Kinases

>  <Ligand_Instance>  (1) 
nan

>  <PDB_ID>  (1) 
nan

>  <Standardized_SMILES>  (1) 
Cn1cc2cc(-c3n[nH]c4ccc(C(=O)N[C@H]5CCN[C@H](Cc6ccccc6)C5)cc34)ccc2n1

>  <Name>  (1) 
nan

>  <Pocket>  (1) 
nan

>  <ATP_Site>  (1) 
nan

>  <Peripheral>  (1) 
nan

>  <Num_H_Atoms_ProtBoundConf>  (1) 
nan

>  <Num_Resolved_Atoms>  (1) 
nan

>  <Num_Not_Resolved_Atoms>  (1) 
nan

$$$$
CHEMBL3658464
     RDKit          3D

  0  0  0  0  0  0  0  0  0  0999 V3000
M  V30 BEGIN CTAB
M  V30 COUNTS 60 64 0 0 0
M  V30 BEGIN ATOM
M  V30 1 N 2.269878 -0.391836 5.264034 0
M  V30 2 C 1.776417 0.281201 4.118225 0
M  V30 3 O 0.631790 -0.099860 4.470483 0
M  V30 4 C 2.532600 1.042458 3.097115 0
M  V30 5 C 3.629977 0.352491 2.445363 0
M  V30 6 C 4.439207 -0.501015 3.185275 0
M  V30 7 C 5.498365 -1.234622 2.682863 0
M  V30 8 C 5.811548 -1.137726 1.332320 0
M  V30 9 C 5.045569 -0.305762 0.544548 0
M  V30 10 C 4.014746 0.383805 1.129289 0
M  V30 11 F 3.350478 1.204203 0.282511 0
M  V30 12 N 1.619069 1.582022 2.095379 0
M  V30 13 C 0.856739 2.689057 2.664644 0
M  V30 14 C 0.005885 3.305248 1.587286 0
M  V30 15 C -0.987218 2.325581 1.015681 0
M  V30 16 C -0.736380 0.950927 1.587196 0 CFG=1
M  V30 17 N -1.398081 -0.087248 0.813543 0
M  V30 18 C -2.358819 -1.003854 1.323970 0
M  V30 19 O -2.691635 -0.956140 2.510919 0
M  V30 20 C -2.978957 -2.020558 0.478247 0
M  V30 21 C -3.898896 -2.870236 1.082142 0
M  V30 22 C -4.563724 -3.886183 0.384671 0
M  V30 23 C -4.286189 -4.041065 -0.958049 0
M  V30 24 N -4.719309 -4.881949 -1.917793 0
M  V30 25 N -4.124676 -4.604760 -3.076044 0
M  V30 26 C -3.272426 -3.563652 -2.919198 0
M  V30 27 C -2.440315 -2.972393 -3.966422 0
M  V30 28 C -1.112071 -2.655555 -3.768420 0
M  V30 29 C -0.335994 -2.095085 -4.771924 0
M  V30 30 N -0.872439 -1.849643 -5.965296 0
M  V30 31 C -2.157879 -2.140788 -6.203152 0
M  V30 32 C -2.967791 -2.704245 -5.219868 0
M  V30 33 C -3.375082 -3.206068 -1.574863 0
M  V30 34 C -2.722376 -2.199925 -0.865366 0
M  V30 35 C 0.732904 0.563735 1.583045 0
M  V30 36 H 2.507160 -1.338550 5.628412 0
M  V30 37 H 2.558156 0.075513 6.174888 0
M  V30 38 H 2.978383 1.955348 3.595612 0
M  V30 39 H 4.342251 -0.690692 4.243837 0
M  V30 40 H 6.132090 -1.895149 3.230519 0
M  V30 41 H 6.626249 -1.688343 0.891360 0
M  V30 42 H 5.287413 -0.228886 -0.505499 0
M  V30 43 H 1.566450 3.459821 3.021757 0
M  V30 44 H 0.230644 2.291457 3.456730 0
M  V30 45 H 0.694296 3.606016 0.772312 0
M  V30 46 H -0.506944 4.218366 1.902651 0
M  V30 47 H -0.890902 2.258988 -0.065341 0
M  V30 48 H -1.986422 2.645958 1.372993 0
M  V30 49 H -1.069293 0.961892 2.639494 0
M  V30 50 H -1.103092 -0.111544 -0.188586 0
M  V30 51 H -4.173178 -2.820395 2.118501 0
M  V30 52 H -5.273344 -4.540130 0.855807 0
M  V30 53 H -5.421606 -5.638548 -1.760042 0
M  V30 54 H -0.643724 -2.842168 -2.809581 0
M  V30 55 H 0.709591 -1.861022 -4.569879 0
M  V30 56 H -2.605645 -1.941522 -7.182791 0
M  V30 57 H -4.024519 -2.946589 -5.407138 0
M  V30 58 H -2.008511 -1.538572 -1.328530 0
M  V30 59 H 0.860081 -0.342009 2.179229 0
M  V30 60 H 0.956175 0.335240 0.525802 0
M  V30 END ATOM
M  V30 BEGIN BOND
M  V30 1 1 1 2
M  V30 2 2 2 3
M  V30 3 1 2 4
M  V30 4 1 4 5
M  V30 5 2 5 6
M  V30 6 1 6 7
M  V30 7 2 7 8
M  V30 8 1 8 9
M  V30 9 2 9 10
M  V30 10 1 10 11
M  V30 11 1 4 12
M  V30 12 1 12 13
M  V30 13 1 13 14
M  V30 14 1 14 15
M  V30 15 1 15 16
M  V30 16 1 16 17
M  V30 17 1 17 18
M  V30 18 2 18 19
M  V30 19 1 18 20
M  V30 20 2 20 21
M  V30 21 1 21 22
M  V30 22 2 22 23
M  V30 23 1 23 24
M  V30 24 1 24 25
M  V30 25 2 25 26
M  V30 26 1 26 27
M  V30 27 2 27 28
M  V30 28 1 28 29
M  V30 29 2 29 30
M  V30 30 1 30 31
M  V30 31 2 31 32
M  V30 32 1 26 33
M  V30 33 2 33 34
M  V30 34 1 16 35
M  V30 35 1 10 5
M  V30 36 1 35 12
M  V30 37 1 34 20
M  V30 38 1 33 23
M  V30 39 1 32 27
M  V30 40 1 1 36
M  V30 41 1 1 37
M  V30 42 1 4 38
M  V30 43 1 6 39
M  V30 44 1 7 40
M  V30 45 1 8 41
M  V30 46 1 9 42
M  V30 47 1 13 43
M  V30 48 1 13 44
M  V30 49 1 14 45
M  V30 50 1 14 46
M  V30 51 1 15 47
M  V30 52 1 15 48
M  V30 53 1 16 49 CFG=1
M  V30 54 1 17 50
M  V30 55 1 21 51
M  V30 56 1 22 52
M  V30 57 1 24 53
M  V30 58 1 28 54
M  V30 59 1 29 55
M  V30 60 1 31 56
M  V30 61 1 32 57
M  V30 62 1 34 58
M  V30 63 1 35 59
M  V30 64 1 35 60
M  V30 END BOND
M  V30 END CTAB
M  END
>  <Dataset>  (2) 
ChEMBL_Kinases

>  <Ligand_Instance>  (2) 
nan

>  <PDB_ID>  (2) 
nan

>  <Standardized_SMILES>  (2) 
NC(=O)C(c1ccccc1F)N1CCC[C@@H](NC(=O)c2ccc3[nH]nc(-c4ccncc4)c3c2)C1

>  <Name>  (2) 
nan

>  <Pocket>  (2) 
nan

>  <ATP_Site>  (2) 
nan

>  <Peripheral>  (2) 
nan

>  <Num_H_Atoms_ProtBoundConf>  (2) 
nan

>  <Num_Resolved_Atoms>  (2) 
nan

>  <Num_Not_Resolved_Atoms>  (2) 
nan

$$$$
CHEMBL3658465
     RDKit          3D

  0  0  0  0  0  0  0  0  0  0999 V3000
M  V30 BEGIN CTAB
M  V30 COUNTS 63 67 0 0 0
M  V30 BEGIN ATOM
M  V30 1 C 2.596506 1.477029 5.101131 0
M  V30 2 N 2.640886 2.248665 3.849999 0
M  V30 3 C 1.444977 2.111204 3.090506 0
M  V30 4 O 0.553695 1.372012 3.586809 0
M  V30 5 C 1.339709 2.832742 1.800110 0
M  V30 6 C 2.511656 2.595130 0.924470 0
M  V30 7 C 3.137804 1.362902 0.698455 0
M  V30 8 C 4.220261 1.191907 -0.106141 0
M  V30 9 C 4.764074 2.273502 -0.757056 0
M  V30 10 C 4.222485 3.532489 -0.602616 0
M  V30 11 C 3.126135 3.641994 0.226019 0
M  V30 12 F 2.577991 4.876294 0.390428 0
M  V30 13 N 0.151514 2.677675 1.080535 0
M  V30 14 C -1.071960 3.071251 1.657790 0
M  V30 15 C -2.020940 3.475728 0.535428 0
M  V30 16 C -2.264962 2.371472 -0.456202 0
M  V30 17 C -1.269104 1.298149 -0.202265 0 CFG=1
M  V30 18 N -1.324328 0.162015 -1.067671 0
M  V30 19 C -1.587727 -1.148953 -0.539940 0
M  V30 20 O -1.770973 -1.276844 0.718102 0
M  V30 21 C -1.641017 -2.293258 -1.430832 0
M  V30 22 C -1.472656 -2.286251 -2.807385 0
M  V30 23 C -1.549810 -3.466712 -3.531328 0
M  V30 24 C -1.793481 -4.689152 -2.934412 0
M  V30 25 N -1.920614 -5.965336 -3.358482 0
M  V30 26 N -2.159692 -6.746074 -2.291303 0
M  V30 27 C -2.192077 -6.012005 -1.178763 0
M  V30 28 C -2.431030 -6.549933 0.159654 0
M  V30 29 C -1.659796 -6.172140 1.241075 0
M  V30 30 C -1.923489 -6.708450 2.502356 0
M  V30 31 N -2.924358 -7.588408 2.659343 0
M  V30 32 C -3.688297 -7.975226 1.638562 0
M  V30 33 C -3.449748 -7.457069 0.365710 0
M  V30 34 C -1.961035 -4.716134 -1.587608 0
M  V30 35 C -1.883459 -3.544857 -0.878177 0
M  V30 36 C 0.108716 1.912522 -0.095719 0
M  V30 37 H 2.214882 0.439797 4.881898 0
M  V30 38 H 1.878466 1.897227 5.820028 0
M  V30 39 H 3.570443 1.366500 5.575725 0
M  V30 40 H 3.459566 2.814149 3.582697 0
M  V30 41 H 1.417132 3.924725 2.082867 0
M  V30 42 H 2.704273 0.517738 1.215731 0
M  V30 43 H 4.616954 0.199515 -0.204282 0
M  V30 44 H 5.623425 2.122828 -1.391963 0
M  V30 45 H 4.615457 4.412743 -1.093737 0
M  V30 46 H -1.523210 2.397309 2.394583 0
M  V30 47 H -0.882191 4.039961 2.209046 0
M  V30 48 H -1.592376 4.392270 0.066795 0
M  V30 49 H -2.971568 3.758861 0.991460 0
M  V30 50 H -2.095167 2.808953 -1.460845 0
M  V30 51 H -3.317217 2.021722 -0.444232 0
M  V30 52 H -1.474756 0.906804 0.839100 0
M  V30 53 H -1.164482 0.346207 -2.082707 0
M  V30 54 H -1.283307 -1.319472 -3.250322 0
M  V30 55 H -1.413283 -3.425062 -4.607214 0
M  V30 56 H -1.836703 -6.252372 -4.378484 0
M  V30 57 H -0.853158 -5.470684 1.141100 0
M  V30 58 H -1.277307 -6.371109 3.328114 0
M  V30 59 H -4.496195 -8.697677 1.817259 0
M  V30 60 H -4.085523 -7.795660 -0.418078 0
M  V30 61 H -2.025015 -3.603925 0.208078 0
M  V30 62 H 0.889398 1.162293 -0.205887 0
M  V30 63 H 0.210143 2.585911 -0.997021 0
M  V30 END ATOM
M  V30 BEGIN BOND
M  V30 1 1 1 2
M  V30 2 1 2 3
M  V30 3 2 3 4
M  V30 4 1 3 5
M  V30 5 1 5 6
M  V30 6 2 6 7
M  V30 7 1 7 8
M  V30 8 2 8 9
M  V30 9 1 9 10
M  V30 10 2 10 11
M  V30 11 1 11 12
M  V30 12 1 5 13
M  V30 13 1 13 14
M  V30 14 1 14 15
M  V30 15 1 15 16
M  V30 16 1 16 17
M  V30 17 1 17 18
M  V30 18 1 18 19
M  V30 19 2 19 20
M  V30 20 1 19 21
M  V30 21 2 21 22
M  V30 22 1 22 23
M  V30 23 2 23 24
M  V30 24 1 24 25
M  V30 25 1 25 26
M  V30 26 2 26 27
M  V30 27 1 27 28
M  V30 28 2 28 29
M  V30 29 1 29 30
M  V30 30 2 30 31
M  V30 31 1 31 32
M  V30 32 2 32 33
M  V30 33 1 27 34
M  V30 34 2 34 35
M  V30 35 1 17 36
M  V30 36 1 11 6
M  V30 37 1 36 13
M  V30 38 1 35 21
M  V30 39 1 34 24
M  V30 40 1 33 28
M  V30 41 1 1 37
M  V30 42 1 1 38
M  V30 43 1 1 39
M  V30 44 1 2 40
M  V30 45 1 5 41
M  V30 46 1 7 42
M  V30 47 1 8 43
M  V30 48 1 9 44
M  V30 49 1 10 45
M  V30 50 1 14 46
M  V30 51 1 14 47
M  V30 52 1 15 48
M  V30 53 1 15 49
M  V30 54 1 16 50
M  V30 55 1 16 51
M  V30 56 1 17 52 CFG=1
M  V30 57 1 18 53
M  V30 58 1 22 54
M  V30 59 1 23 55
M  V30 60 1 25 56
M  V30 61 1 29 57
M  V30 62 1 30 58
M  V30 63 1 32 59
M  V30 64 1 33 60
M  V30 65 1 35 61
M  V30 66 1 36 62
M  V30 67 1 36 63
M  V30 END BOND
M  V30 END CTAB
M  END
>  <Dataset>  (3) 
ChEMBL_Kinases

>  <Ligand_Instance>  (3) 
nan

>  <PDB_ID>  (3) 
nan

>  <Standardized_SMILES>  (3) 
CNC(=O)C(c1ccccc1F)N1CCC[C@@H](NC(=O)c2ccc3[nH]nc(-c4ccncc4)c3c2)C1

>  <Name>  (3) 
nan

>  <Pocket>  (3) 
nan

>  <ATP_Site>  (3) 
nan

>  <Peripheral>  (3) 
nan

>  <Num_H_Atoms_ProtBoundConf>  (3) 
nan

>  <Num_Resolved_Atoms>  (3) 
nan

>  <Num_Not_Resolved_Atoms>  (3) 
nan

$$$$
CHEMBL3658466
     RDKit          3D

  0  0  0  0  0  0  0  0  0  0999 V3000
M  V30 BEGIN CTAB
M  V30 COUNTS 60 64 0 0 0
M  V30 BEGIN ATOM
M  V30 1 N 2.273863 1.358837 4.609982 0
M  V30 2 C 3.036253 1.059130 3.456014 0
M  V30 3 O 3.990832 0.968431 4.307484 0
M  V30 4 C 2.686279 0.951523 2.011222 0
M  V30 5 C 3.678424 1.631527 1.161491 0
M  V30 6 C 5.023060 1.533439 1.366986 0
M  V30 7 F 5.566313 0.809442 2.359896 0
M  V30 8 C 5.985493 2.140561 0.588502 0
M  V30 9 C 5.627359 2.918087 -0.493896 0
M  V30 10 C 4.269443 3.050532 -0.748805 0
M  V30 11 C 3.363935 2.415739 0.070083 0
M  V30 12 F 2.088504 2.614787 -0.322437 0
M  V30 13 N 1.336250 1.225300 1.696291 0
M  V30 14 C 0.822544 2.428468 2.215220 0
M  V30 15 C -0.475480 2.846278 1.534742 0
M  V30 16 C -1.099948 1.675520 0.805957 0
M  V30 17 C -0.976519 0.471261 1.724765 0 CFG=1
M  V30 18 N -1.657713 -0.685035 1.177957 0
M  V30 19 C -2.749589 -1.396744 1.717149 0
M  V30 20 O -3.260338 -1.052137 2.809629 0
M  V30 21 C -3.326981 -2.551136 1.037011 0
M  V30 22 C -4.416335 -3.161366 1.637220 0
M  V30 23 C -5.021207 -4.275137 1.042245 0
M  V30 24 C -4.546834 -4.784628 -0.147384 0
M  V30 25 N -4.868845 -5.810329 -0.983103 0
M  V30 26 N -4.041860 -5.828044 -2.014349 0
M  V30 27 C -3.160242 -4.827784 -1.893062 0
M  V30 28 C -2.133098 -4.611806 -2.888347 0
M  V30 29 C -0.878686 -4.374805 -2.398057 0
M  V30 30 C 0.203237 -4.149800 -3.256999 0
M  V30 31 N -0.011535 -4.170338 -4.595723 0
M  V30 32 C -1.248206 -4.404053 -5.079152 0
M  V30 33 C -2.330378 -4.628396 -4.258665 0
M  V30 34 C -3.461066 -4.155010 -0.719824 0
M  V30 35 C -2.843281 -3.051684 -0.153312 0
M  V30 36 C 0.500055 0.086478 1.832477 0
M  V30 37 H 1.689712 0.909903 5.348002 0
M  V30 38 H 1.913352 2.081479 5.265158 0
M  V30 39 H 2.877715 -0.167613 1.796518 0
M  V30 40 H 7.065728 2.067488 0.745876 0
M  V30 41 H 6.349529 3.403087 -1.117483 0
M  V30 42 H 4.006669 3.661923 -1.599216 0
M  V30 43 H 0.603089 2.337475 3.322719 0
M  V30 44 H 1.536131 3.253639 2.140107 0
M  V30 45 H -0.333291 3.730281 0.880687 0
M  V30 46 H -1.185909 3.158839 2.321614 0
M  V30 47 H -2.195829 1.877400 0.723334 0
M  V30 48 H -0.612126 1.490540 -0.169833 0
M  V30 49 H -1.373951 0.805561 2.701371 0
M  V30 50 H -1.209266 -0.943717 0.272927 0
M  V30 51 H -4.880682 -2.846950 2.581162 0
M  V30 52 H -5.875915 -4.785216 1.475368 0
M  V30 53 H -5.680718 -6.451180 -0.759087 0
M  V30 54 H -0.527542 -4.324551 -1.360663 0
M  V30 55 H 1.236063 -3.953468 -2.944996 0
M  V30 56 H -1.428799 -4.422452 -6.146710 0
M  V30 57 H -3.335530 -4.818756 -4.617368 0
M  V30 58 H -1.997697 -2.583910 -0.628913 0
M  V30 59 H 0.776381 -0.631458 1.032811 0
M  V30 60 H 0.595859 -0.460415 2.792277 0
M  V30 END ATOM
M  V30 BEGIN BOND
M  V30 1 1 1 2
M  V30 2 2 2 3
M  V30 3 1 2 4
M  V30 4 1 4 5
M  V30 5 2 5 6
M  V30 6 1 6 7
M  V30 7 1 6 8
M  V30 8 2 8 9
M  V30 9 1 9 10
M  V30 10 2 10 11
M  V30 11 1 11 12
M  V30 12 1 4 13
M  V30 13 1 13 14
M  V30 14 1 14 15
M  V30 15 1 15 16
M  V30 16 1 16 17
M  V30 17 1 17 18
M  V30 18 1 18 19
M  V30 19 2 19 20
M  V30 20 1 19 21
M  V30 21 2 21 22
M  V30 22 1 22 23
M  V30 23 2 23 24
M  V30 24 1 24 25
M  V30 25 1 25 26
M  V30 26 2 26 27
M  V30 27 1 27 28
M  V30 28 2 28 29
M  V30 29 1 29 30
M  V30 30 2 30 31
M  V30 31 1 31 32
M  V30 32 2 32 33
M  V30 33 1 27 34
M  V30 34 2 34 35
M  V30 35 1 17 36
M  V30 36 1 11 5
M  V30 37 1 36 13
M  V30 38 1 35 21
M  V30 39 1 34 24
M  V30 40 1 33 28
M  V30 41 1 1 37
M  V30 42 1 1 38
M  V30 43 1 4 39
M  V30 44 1 8 40
M  V30 45 1 9 41
M  V30 46 1 10 42
M  V30 47 1 14 43
M  V30 48 1 14 44
M  V30 49 1 15 45
M  V30 50 1 15 46
M  V30 51 1 16 47
M  V30 52 1 16 48
M  V30 53 1 17 49 CFG=1
M  V30 54 1 18 50
M  V30 55 1 22 51
M  V30 56 1 23 52
M  V30 57 1 25 53
M  V30 58 1 29 54
M  V30 59 1 30 55
M  V30 60 1 32 56
M  V30 61 1 33 57
M  V30 62 1 35 58
M  V30 63 1 36 59
M  V30 64 1 36 60
M  V30 END BOND
M  V30 END CTAB
M  END
>  <Dataset>  (4) 
ChEMBL_Kinases

>  <Ligand_Instance>  (4) 
nan

>  <PDB_ID>  (4) 
nan

>  <Standardized_SMILES>  (4) 
NC(=O)C(c1c(F)cccc1F)N1CCC[C@@H](NC(=O)c2ccc3[nH]nc(-c4ccncc4)c3c2)C1

>  <Name>  (4) 
nan

>  <Pocket>  (4) 
nan

>  <ATP_Site>  (4) 
nan

>  <Peripheral>  (4) 
nan

>  <Num_H_Atoms_ProtBoundConf>  (4) 
nan

>  <Num_Resolved_Atoms>  (4) 
nan

>  <Num_Not_Resolved_Atoms>  (4) 
nan

$$$$
CHEMBL3658458
     RDKit          3D

  0  0  0  0  0  0  0  0  0  0999 V3000
M  V30 BEGIN CTAB
M  V30 COUNTS 61 66 0 0 0
M  V30 BEGIN ATOM
M  V30 1 C -1.035295 1.205476 5.010310 0
M  V30 2 N -0.253218 0.085670 4.528218 0
M  V30 3 C 1.141753 0.361917 4.456784 0
M  V30 4 C 1.589092 0.984813 3.148018 0 CFG=1
M  V30 5 C 3.071487 1.070118 3.135743 0
M  V30 6 C 3.680605 1.654567 1.926542 0
M  V30 7 C 3.943752 1.072576 0.707582 0
M  V30 8 F 3.659591 -0.232442 0.572789 0
M  V30 9 C 4.490812 1.719961 -0.359609 0
M  V30 10 C 4.821191 3.054280 -0.256208 0
M  V30 11 C 4.604827 3.735099 0.909017 0
M  V30 12 C 4.046457 3.008486 1.944794 0
M  V30 13 F 3.831192 3.698990 3.114792 0
M  V30 14 C 1.072748 0.166948 2.028532 0
M  V30 15 C -0.456014 0.130384 2.165133 0 CFG=1
M  V30 16 N -1.061327 -0.389488 0.957273 0
M  V30 17 C -1.884375 0.380523 0.091007 0
M  V30 18 O -2.152996 1.589580 0.312261 0
M  V30 19 C -2.460713 -0.210292 -1.110522 0
M  V30 20 C -3.260466 0.599442 -1.925730 0
M  V30 21 C -3.833084 0.090343 -3.080117 0
M  V30 22 C -3.646466 -1.217775 -3.476356 0
M  V30 23 N -4.052758 -1.972074 -4.503422 0
M  V30 24 N -3.547075 -3.193126 -4.360573 0
M  V30 25 C -2.799246 -3.278677 -3.244920 0
M  V30 26 C -2.099331 -4.476321 -2.789719 0
M  V30 27 C -1.333666 -5.303433 -3.616580 0
M  V30 28 C -0.714740 -6.416282 -3.076183 0
M  V30 29 C -0.814954 -6.757489 -1.745737 0
M  V30 30 N -0.318499 -7.767627 -0.993117 0
M  V30 31 O -0.745095 -7.588481 0.232799 0
M  V30 32 N -1.483962 -6.521341 0.298876 0
M  V30 33 C -1.567569 -5.950374 -0.917441 0
M  V30 34 C -2.192516 -4.829024 -1.456446 0
M  V30 35 C -2.858624 -2.017264 -2.673928 0
M  V30 36 C -2.286588 -1.513826 -1.523548 0
M  V30 37 C -0.817380 -0.599212 3.409816 0
M  V30 38 H -2.108163 1.011665 4.984370 0
M  V30 39 H -0.669386 1.397002 6.050574 0
M  V30 40 H -0.742450 2.112979 4.420562 0
M  V30 41 H 1.703820 -0.582026 4.591511 0
M  V30 42 H 1.383690 1.093457 5.254434 0
M  V30 43 H 1.180435 2.016323 3.036662 0
M  V30 44 H 3.543128 0.062388 3.350927 0
M  V30 45 H 3.424683 1.688087 4.010339 0
M  V30 46 H 4.664593 1.185783 -1.285620 0
M  V30 47 H 5.253452 3.549665 -1.114970 0
M  V30 48 H 4.842788 4.769352 1.042366 0
M  V30 49 H 1.224405 0.673971 1.032078 0
M  V30 50 H 1.492239 -0.837073 1.991233 0
M  V30 51 H -0.753078 1.187136 2.263927 0
M  V30 52 H -0.833203 -1.392689 0.782384 0
M  V30 53 H -3.481042 1.642968 -1.721170 0
M  V30 54 H -4.455790 0.689275 -3.731331 0
M  V30 55 H -4.670409 -1.630094 -5.282102 0
M  V30 56 H -1.261909 -5.025638 -4.661558 0
M  V30 57 H -0.123797 -7.046602 -3.733739 0
M  V30 58 H -2.750477 -4.282436 -0.707562 0
M  V30 59 H -1.672853 -2.152631 -0.907929 0
M  V30 60 H -1.937530 -0.502998 3.520988 0
M  V30 61 H -0.558514 -1.663102 3.408927 0
M  V30 END ATOM
M  V30 BEGIN BOND
M  V30 1 1 1 2
M  V30 2 1 2 3
M  V30 3 1 3 4
M  V30 4 1 4 5
M  V30 5 1 5 6
M  V30 6 2 6 7
M  V30 7 1 7 8
M  V30 8 1 7 9
M  V30 9 2 9 10
M  V30 10 1 10 11
M  V30 11 2 11 12
M  V30 12 1 12 13
M  V30 13 1 4 14
M  V30 14 1 14 15
M  V30 15 1 15 16
M  V30 16 1 16 17
M  V30 17 2 17 18
M  V30 18 1 17 19
M  V30 19 2 19 20
M  V30 20 1 20 21
M  V30 21 2 21 22
M  V30 22 1 22 23
M  V30 23 1 23 24
M  V30 24 2 24 25
M  V30 25 1 25 26
M  V30 26 1 26 27
M  V30 27 2 27 28
M  V30 28 1 28 29
M  V30 29 2 29 30
M  V30 30 1 30 31
M  V30 31 1 31 32
M  V30 32 2 32 33
M  V30 33 1 33 34
M  V30 34 1 25 35
M  V30 35 2 35 36
M  V30 36 1 15 37
M  V30 37 1 37 2
M  V30 38 1 12 6
M  V30 39 1 36 19
M  V30 40 1 35 22
M  V30 41 2 34 26
M  V30 42 1 33 29
M  V30 43 1 1 38
M  V30 44 1 1 39
M  V30 45 1 1 40
M  V30 46 1 3 41
M  V30 47 1 3 42
M  V30 48 1 4 43 CFG=3
M  V30 49 1 5 44
M  V30 50 1 5 45
M  V30 51 1 9 46
M  V30 52 1 10 47
M  V30 53 1 11 48
M  V30 54 1 14 49
M  V30 55 1 14 50
M  V30 56 1 15 51 CFG=1
M  V30 57 1 16 52
M  V30 58 1 20 53
M  V30 59 1 21 54
M  V30 60 1 23 55
M  V30 61 1 27 56
M  V30 62 1 28 57
M  V30 63 1 34 58
M  V30 64 1 36 59
M  V30 65 1 37 60
M  V30 66 1 37 61
M  V30 END BOND
M  V30 END CTAB
M  END
>  <Dataset>  (5) 
ChEMBL_Kinases

>  <Ligand_Instance>  (5) 
nan

>  <PDB_ID>  (5) 
nan

>  <Standardized_SMILES>  (5) 
CN1C[C@@H](Cc2c(F)cccc2F)C[C@@H](NC(=O)c2ccc3[nH]nc(-c4ccc5nonc5c4)c3c2)C1

>  <Name>  (5) 
nan

>  <Pocket>  (5) 
nan

>  <ATP_Site>  (5) 
nan

>  <Peripheral>  (5) 
nan

>  <Num_H_Atoms_ProtBoundConf>  (5) 
nan

>  <Num_Resolved_Atoms>  (5) 
nan

>  <Num_Not_Resolved_Atoms>  (5) 
nan

$$$$
CHEMBL3658667
     RDKit          3D

  0  0  0  0  0  0  0  0  0  0999 V3000
M  V30 BEGIN CTAB
M  V30 COUNTS 52 55 0 0 0
M  V30 BEGIN ATOM
M  V30 1 C 3.545492 -3.514574 5.565948 0
M  V30 2 O 2.867815 -2.340089 5.548401 0
M  V30 3 C 1.503796 -2.364869 5.390375 0
M  V30 4 C 1.001703 -2.975461 4.148240 0 CFG=1
M  V30 5 N 1.630058 -2.238075 3.036743 0
M  V30 6 C 0.891848 -1.366460 2.189054 0
M  V30 7 O -0.343918 -1.199336 2.370872 0
M  V30 8 N 1.567319 -0.684108 1.131128 0
M  V30 9 C 0.849117 0.194341 0.270296 0
M  V30 10 C 0.815512 1.502226 0.714021 0
M  V30 11 C 0.151250 2.461281 -0.025909 0
M  V30 12 N -0.105576 3.781159 0.050462 0
M  V30 13 N -0.823556 4.159650 -1.000833 0
M  V30 14 C -1.062179 3.093285 -1.805608 0
M  V30 15 C -1.838600 3.268301 -3.031561 0
M  V30 16 C -3.000065 4.031585 -2.926138 0
M  V30 17 N -3.818347 4.282249 -3.963166 0
M  V30 18 C -3.488872 3.766429 -5.151595 0
M  V30 19 O -4.351141 4.041794 -6.201063 0
M  V30 20 C -4.186115 3.597205 -7.517324 0
M  V30 21 N -2.372757 3.016594 -5.316136 0
M  V30 22 C -1.542096 2.758179 -4.278774 0
M  V30 23 C -0.447134 2.021969 -1.190426 0
M  V30 24 C -0.423982 0.720864 -1.648949 0
M  V30 25 N 0.239147 -0.178180 -0.887959 0
M  V30 26 C 0.950325 -4.397839 3.986232 0
M  V30 27 C 0.745030 -4.708978 2.631958 0
M  V30 28 C 0.640967 -6.040326 2.208079 0
M  V30 29 C 0.742596 -7.050644 3.139266 0
M  V30 30 F 0.646899 -8.356381 2.766471 0
M  V30 31 C 0.943013 -6.796558 4.474330 0
M  V30 32 C 1.035807 -5.467739 4.822334 0
M  V30 33 H 3.237777 -4.187008 6.383517 0
M  V30 34 H 3.517469 -4.056557 4.596414 0
M  V30 35 H 4.658516 -3.330824 5.714504 0
M  V30 36 H 1.189834 -1.278174 5.462621 0
M  V30 37 H 1.091014 -2.797487 6.327010 0
M  V30 38 H -0.085015 -2.622761 4.050913 0
M  V30 39 H 2.647754 -2.385656 2.899367 0
M  V30 40 H 2.592269 -0.832549 0.992302 0
M  V30 41 H 1.292076 1.838320 1.636191 0
M  V30 42 H 0.262612 4.311328 0.866241 0
M  V30 43 H -3.285595 4.461753 -1.961478 0
M  V30 44 H -3.765154 4.446460 -8.110678 0
M  V30 45 H -5.180938 3.337515 -7.941938 0
M  V30 46 H -3.568115 2.677833 -7.596673 0
M  V30 47 H -0.638730 2.169688 -4.340558 0
M  V30 48 H -0.905672 0.414936 -2.568140 0
M  V30 49 H 0.642504 -4.037958 1.771831 0
M  V30 50 H 0.483831 -6.361718 1.190033 0
M  V30 51 H 1.033766 -7.518155 5.264914 0
M  V30 52 H 1.180785 -5.163021 5.848526 0
M  V30 END ATOM
M  V30 BEGIN BOND
M  V30 1 1 1 2
M  V30 2 1 2 3
M  V30 3 1 3 4
M  V30 4 1 4 5
M  V30 5 1 5 6
M  V30 6 2 6 7
M  V30 7 1 6 8
M  V30 8 1 8 9
M  V30 9 2 9 10
M  V30 10 1 10 11
M  V30 11 1 11 12
M  V30 12 1 12 13
M  V30 13 2 13 14
M  V30 14 1 14 15
M  V30 15 2 15 16
M  V30 16 1 16 17
M  V30 17 2 17 18
M  V30 18 1 18 19
M  V30 19 1 19 20
M  V30 20 1 18 21
M  V30 21 2 21 22
M  V30 22 1 14 23
M  V30 23 1 23 24
M  V30 24 2 24 25
M  V30 25 1 4 26
M  V30 26 2 26 27
M  V30 27 1 27 28
M  V30 28 2 28 29
M  V30 29 1 29 30
M  V30 30 1 29 31
M  V30 31 2 31 32
M  V30 32 1 25 9
M  V30 33 1 32 26
M  V30 34 2 23 11
M  V30 35 1 22 15
M  V30 36 1 1 33
M  V30 37 1 1 34
M  V30 38 1 1 35
M  V30 39 1 3 36
M  V30 40 1 3 37
M  V30 41 1 4 38 CFG=3
M  V30 42 1 5 39
M  V30 43 1 8 40
M  V30 44 1 10 41
M  V30 45 1 12 42
M  V30 46 1 16 43
M  V30 47 1 20 44
M  V30 48 1 20 45
M  V30 49 1 20 46
M  V30 50 1 22 47
M  V30 51 1 24 48
M  V30 52 1 27 49
M  V30 53 1 28 50
M  V30 54 1 31 51
M  V30 55 1 32 52
M  V30 END BOND
M  V30 END CTAB
M  END
>  <Dataset>  (6) 
ChEMBL_Kinases

>  <Ligand_Instance>  (6) 
nan

>  <PDB_ID>  (6) 
nan

>  <Standardized_SMILES>  (6) 
COC[C@@H](NC(=O)Nc1cc2[nH]nc(-c3cnc(OC)nc3)c2cn1)c1ccc(F)cc1

>  <Name>  (6) 
nan

>  <Pocket>  (6) 
nan

>  <ATP_Site>  (6) 
nan

>  <Peripheral>  (6) 
nan

>  <Num_H_Atoms_ProtBoundConf>  (6) 
nan

>  <Num_Resolved_Atoms>  (6) 
nan

>  <Num_Not_Resolved_Atoms>  (6) 
nan

$$$$
CHEMBL3658666
     RDKit          3D

  0  0  0  0  0  0  0  0  0  0999 V3000
M  V30 BEGIN CTAB
M  V30 COUNTS 62 66 0 0 0
M  V30 BEGIN ATOM
M  V30 1 C 4.701656 -0.854187 6.875734 0
M  V30 2 O 4.959410 -2.070247 6.271198 0
M  V30 3 C 4.700584 -2.132996 4.929658 0
M  V30 4 C 3.280251 -1.888093 4.565452 0 CFG=1
M  V30 5 N 3.066514 -1.952130 3.111410 0
M  V30 6 C 2.501366 -0.977129 2.246341 0
M  V30 7 O 2.096759 0.139388 2.720730 0
M  V30 8 N 2.427520 -1.340675 0.854291 0
M  V30 9 C 1.853554 -0.377356 -0.024082 0
M  V30 10 C 2.421563 0.658082 -0.738146 0
M  V30 11 C 1.591184 1.432219 -1.519451 0
M  V30 12 N 1.931845 2.482664 -2.288229 0
M  V30 13 N 0.823614 2.930579 -2.863247 0
M  V30 14 C -0.251836 2.194538 -2.489289 0
M  V30 15 C -1.651866 2.334786 -2.874098 0
M  V30 16 C -2.230558 3.585709 -2.861446 0
M  V30 17 C -3.566189 3.671582 -3.238945 0
M  V30 18 N -4.313813 2.610433 -3.611239 0
M  V30 19 C -3.769011 1.381160 -3.630872 0
M  V30 20 N -4.502541 0.217256 -4.013985 0
M  V30 21 C -3.986412 -1.136924 -4.070578 0
M  V30 22 C -5.120409 -2.094641 -3.750465 0
M  V30 23 O -6.111912 -2.041297 -4.697301 0
M  V30 24 C -6.250716 -0.811780 -5.307901 0
M  V30 25 C -5.897094 0.351148 -4.389946 0
M  V30 26 C -2.437905 1.257269 -3.260191 0
M  V30 27 C 0.231408 1.232782 -1.628218 0
M  V30 28 C -0.297253 0.176977 -0.889925 0
M  V30 29 N 0.509315 -0.602686 -0.109102 0
M  V30 30 C 2.351488 -2.852511 5.249076 0
M  V30 31 C 2.340279 -4.127509 4.678526 0
M  V30 32 C 1.536675 -5.132658 5.183661 0
M  V30 33 C 0.729979 -4.874531 6.271464 0
M  V30 34 F -0.097517 -5.790390 6.846833 0
M  V30 35 C 0.729260 -3.614677 6.849591 0
M  V30 36 C 1.535487 -2.622472 6.335068 0
M  V30 37 H 5.343533 -0.064441 6.386418 0
M  V30 38 H 4.999382 -0.947624 7.943786 0
M  V30 39 H 3.673874 -0.504168 6.833358 0
M  V30 40 H 5.368208 -1.473159 4.321740 0
M  V30 41 H 4.998908 -3.172893 4.610136 0
M  V30 42 H 2.957871 -0.878519 4.870955 0
M  V30 43 H 3.400713 -2.868663 2.730250 0
M  V30 44 H 2.766039 -2.264454 0.474648 0
M  V30 45 H 3.467225 0.721669 -0.582608 0
M  V30 46 H 2.893131 2.883765 -2.418639 0
M  V30 47 H -1.652196 4.449439 -2.567384 0
M  V30 48 H -4.048731 4.646001 -3.238265 0
M  V30 49 H -3.137958 -1.316996 -3.384780 0
M  V30 50 H -3.645248 -1.310783 -5.114371 0
M  V30 51 H -4.751797 -3.140857 -3.663109 0
M  V30 52 H -5.564999 -1.756585 -2.785814 0
M  V30 53 H -7.311359 -0.721752 -5.621073 0
M  V30 54 H -5.627727 -0.771077 -6.223048 0
M  V30 55 H -5.985528 1.261001 -4.988794 0
M  V30 56 H -6.570505 0.320374 -3.506749 0
M  V30 57 H -1.922788 0.306643 -3.250861 0
M  V30 58 H -1.370876 -0.007352 -0.951686 0
M  V30 59 H 2.910366 -4.510890 3.818904 0
M  V30 60 H 1.458329 -6.132469 4.820506 0
M  V30 61 H 0.133368 -3.309097 7.706282 0
M  V30 62 H 1.582902 -1.621033 6.731532 0
M  V30 END ATOM
M  V30 BEGIN BOND
M  V30 1 1 1 2
M  V30 2 1 2 3
M  V30 3 1 3 4
M  V30 4 1 4 5
M  V30 5 1 5 6
M  V30 6 2 6 7
M  V30 7 1 6 8
M  V30 8 1 8 9
M  V30 9 2 9 10
M  V30 10 1 10 11
M  V30 11 1 11 12
M  V30 12 1 12 13
M  V30 13 2 13 14
M  V30 14 1 14 15
M  V30 15 2 15 16
M  V30 16 1 16 17
M  V30 17 2 17 18
M  V30 18 1 18 19
M  V30 19 1 19 20
M  V30 20 1 20 21
M  V30 21 1 21 22
M  V30 22 1 22 23
M  V30 23 1 23 24
M  V30 24 1 24 25
M  V30 25 2 19 26
M  V30 26 1 14 27
M  V30 27 1 27 28
M  V30 28 2 28 29
M  V30 29 1 4 30
M  V30 30 2 30 31
M  V30 31 1 31 32
M  V30 32 2 32 33
M  V30 33 1 33 34
M  V30 34 1 33 35
M  V30 35 2 35 36
M  V30 36 1 29 9
M  V30 37 1 36 30
M  V30 38 2 27 11
M  V30 39 1 26 15
M  V30 40 1 25 20
M  V30 41 1 1 37
M  V30 42 1 1 38
M  V30 43 1 1 39
M  V30 44 1 3 40
M  V30 45 1 3 41
M  V30 46 1 4 42 CFG=1
M  V30 47 1 5 43
M  V30 48 1 8 44
M  V30 49 1 10 45
M  V30 50 1 12 46
M  V30 51 1 16 47
M  V30 52 1 17 48
M  V30 53 1 21 49
M  V30 54 1 21 50
M  V30 55 1 22 51
M  V30 56 1 22 52
M  V30 57 1 24 53
M  V30 58 1 24 54
M  V30 59 1 25 55
M  V30 60 1 25 56
M  V30 61 1 26 57
M  V30 62 1 28 58
M  V30 63 1 31 59
M  V30 64 1 32 60
M  V30 65 1 35 61
M  V30 66 1 36 62
M  V30 END BOND
M  V30 END CTAB
M  END
>  <Dataset>  (7) 
ChEMBL_Kinases

>  <Ligand_Instance>  (7) 
nan

>  <PDB_ID>  (7) 
nan

>  <Standardized_SMILES>  (7) 
COC[C@@H](NC(=O)Nc1cc2[nH]nc(-c3ccnc(N4CCOCC4)c3)c2cn1)c1ccc(F)cc1

>  <Name>  (7) 
nan

>  <Pocket>  (7) 
nan

>  <ATP_Site>  (7) 
nan

>  <Peripheral>  (7) 
nan

>  <Num_H_Atoms_ProtBoundConf>  (7) 
nan

>  <Num_Resolved_Atoms>  (7) 
nan

>  <Num_Not_Resolved_Atoms>  (7) 
nan

$$$$
CHEMBL3658665
     RDKit          3D

  0  0  0  0  0  0  0  0  0  0999 V3000
M  V30 BEGIN CTAB
M  V30 COUNTS 62 66 0 0 0
M  V30 BEGIN ATOM
M  V30 1 C 7.172466 -2.316655 4.211929 0
M  V30 2 O 6.961434 -1.094034 3.666610 0
M  V30 3 C 6.000057 -0.267863 4.153911 0
M  V30 4 C 4.607763 -0.799460 4.106893 0 CFG=1
M  V30 5 N 4.236569 -1.204518 2.748632 0
M  V30 6 C 3.224108 -0.536633 2.001305 0
M  V30 7 O 2.560115 0.447632 2.422696 0
M  V30 8 N 3.001283 -1.071861 0.698378 0
M  V30 9 C 2.004846 -0.464060 -0.116976 0
M  V30 10 C 2.188737 0.578118 -1.003828 0
M  V30 11 C 1.090381 1.030407 -1.707828 0
M  V30 12 N 0.994510 2.015585 -2.619231 0
M  V30 13 N -0.288295 2.055066 -3.002475 0
M  V30 14 C -1.003626 1.116136 -2.352538 0
M  V30 15 C -2.434138 0.882242 -2.530834 0
M  V30 16 C -3.410870 1.856971 -2.581164 0
M  V30 17 C -4.727806 1.489780 -2.756906 0
M  V30 18 C -5.136545 0.181064 -2.888197 0
M  V30 19 N -6.535398 -0.116800 -3.071287 0
M  V30 20 C -7.456903 0.973109 -3.153685 0
M  V30 21 C -8.784486 0.518606 -3.698061 0
M  V30 22 O -9.057224 -0.820551 -3.484554 0
M  V30 23 C -8.084309 -1.640429 -4.064550 0
M  V30 24 C -6.858413 -1.549021 -3.151802 0
M  V30 25 N -4.178296 -0.754096 -2.837518 0
M  V30 26 C -2.888252 -0.414542 -2.666630 0
M  V30 27 C -0.142377 0.440944 -1.511994 0
M  V30 28 C -0.301970 -0.600548 -0.619116 0
M  V30 29 N 0.783246 -1.039461 0.069276 0
M  V30 30 C 4.269040 -1.842433 5.066575 0
M  V30 31 C 3.155144 -2.578056 4.634861 0
M  V30 32 C 2.624690 -3.617594 5.410761 0
M  V30 33 C 3.177502 -3.953967 6.624309 0
M  V30 34 F 2.709406 -4.941929 7.409556 0
M  V30 35 C 4.264795 -3.241695 7.054688 0
M  V30 36 C 4.774840 -2.226878 6.287140 0
M  V30 37 H 7.458559 -2.326242 5.279798 0
M  V30 38 H 8.035842 -2.816596 3.647646 0
M  V30 39 H 6.311832 -3.022434 4.040052 0
M  V30 40 H 6.255858 -0.115190 5.252828 0
M  V30 41 H 6.062442 0.771830 3.748516 0
M  V30 42 H 3.908593 0.088154 4.289344 0
M  V30 43 H 4.772206 -2.018986 2.375101 0
M  V30 44 H 3.493151 -1.875051 0.262067 0
M  V30 45 H 3.194932 0.965840 -1.079493 0
M  V30 46 H 1.783855 2.618855 -2.947617 0
M  V30 47 H -3.073008 2.891307 -2.475718 0
M  V30 48 H -5.397498 2.327844 -2.779542 0
M  V30 49 H -7.571282 1.522923 -2.182688 0
M  V30 50 H -7.027041 1.744929 -3.844337 0
M  V30 51 H -9.607480 1.080089 -3.188628 0
M  V30 52 H -8.836954 0.791149 -4.762813 0
M  V30 53 H -7.776441 -1.255380 -5.061267 0
M  V30 54 H -8.458198 -2.662766 -4.118353 0
M  V30 55 H -6.009920 -2.117472 -3.581740 0
M  V30 56 H -7.106977 -1.935232 -2.156166 0
M  V30 57 H -2.253425 -1.294061 -2.651208 0
M  V30 58 H -1.277222 -1.046110 -0.481298 0
M  V30 59 H 2.602107 -2.442882 3.708217 0
M  V30 60 H 1.769998 -4.202560 5.108709 0
M  V30 61 H 4.803619 -3.386003 7.976970 0
M  V30 62 H 5.629243 -1.600770 6.556979 0
M  V30 END ATOM
M  V30 BEGIN BOND
M  V30 1 1 1 2
M  V30 2 1 2 3
M  V30 3 1 3 4
M  V30 4 1 4 5
M  V30 5 1 5 6
M  V30 6 2 6 7
M  V30 7 1 6 8
M  V30 8 1 8 9
M  V30 9 2 9 10
M  V30 10 1 10 11
M  V30 11 1 11 12
M  V30 12 1 12 13
M  V30 13 2 13 14
M  V30 14 1 14 15
M  V30 15 2 15 16
M  V30 16 1 16 17
M  V30 17 2 17 18
M  V30 18 1 18 19
M  V30 19 1 19 20
M  V30 20 1 20 21
M  V30 21 1 21 22
M  V30 22 1 22 23
M  V30 23 1 23 24
M  V30 24 1 18 25
M  V30 25 2 25 26
M  V30 26 1 14 27
M  V30 27 1 27 28
M  V30 28 2 28 29
M  V30 29 1 4 30
M  V30 30 2 30 31
M  V30 31 1 31 32
M  V30 32 2 32 33
M  V30 33 1 33 34
M  V30 34 1 33 35
M  V30 35 2 35 36
M  V30 36 1 29 9
M  V30 37 1 36 30
M  V30 38 2 27 11
M  V30 39 1 26 15
M  V30 40 1 24 19
M  V30 41 1 1 37
M  V30 42 1 1 38
M  V30 43 1 1 39
M  V30 44 1 3 40
M  V30 45 1 3 41
M  V30 46 1 4 42 CFG=1
M  V30 47 1 5 43
M  V30 48 1 8 44
M  V30 49 1 10 45
M  V30 50 1 12 46
M  V30 51 1 16 47
M  V30 52 1 17 48
M  V30 53 1 20 49
M  V30 54 1 20 50
M  V30 55 1 21 51
M  V30 56 1 21 52
M  V30 57 1 23 53
M  V30 58 1 23 54
M  V30 59 1 24 55
M  V30 60 1 24 56
M  V30 61 1 26 57
M  V30 62 1 28 58
M  V30 63 1 31 59
M  V30 64 1 32 60
M  V30 65 1 35 61
M  V30 66 1 36 62
M  V30 END BOND
M  V30 END CTAB
M  END
>  <Dataset>  (8) 
ChEMBL_Kinases

>  <Ligand_Instance>  (8) 
nan

>  <PDB_ID>  (8) 
nan

>  <Standardized_SMILES>  (8) 
COC[C@@H](NC(=O)Nc1cc2[nH]nc(-c3ccc(N4CCOCC4)nc3)c2cn1)c1ccc(F)cc1

>  <Name>  (8) 
nan

>  <Pocket>  (8) 
nan

>  <ATP_Site>  (8) 
nan

>  <Peripheral>  (8) 
nan

>  <Num_H_Atoms_ProtBoundConf>  (8) 
nan

>  <Num_Resolved_Atoms>  (8) 
nan

>  <Num_Not_Resolved_Atoms>  (8) 
nan

$$$$
CHEMBL3658664
     RDKit          3D

  0  0  0  0  0  0  0  0  0  0999 V3000
M  V30 BEGIN CTAB
M  V30 COUNTS 50 53 0 0 0
M  V30 BEGIN ATOM
M  V30 1 C -1.016363 -6.129096 0.357274 0
M  V30 2 O 0.241097 -6.267588 -0.144225 0
M  V30 3 C 0.941873 -5.164712 -0.477404 0
M  V30 4 C 1.313830 -4.166165 0.538253 0 CFG=1
M  V30 5 N 0.330905 -3.461100 1.265181 0
M  V30 6 C 0.270572 -2.036340 1.038500 0
M  V30 7 O 1.023027 -1.398920 0.251937 0
M  V30 8 N -0.615354 -1.062257 1.625717 0
M  V30 9 C -0.657502 0.335383 1.388052 0
M  V30 10 C 0.027242 1.340065 2.051162 0
M  V30 11 C -0.179517 2.647134 1.633748 0
M  V30 12 N 0.386159 3.772082 2.141616 0
M  V30 13 N -0.093243 4.809133 1.442540 0
M  V30 14 C -0.957836 4.348725 0.496368 0
M  V30 15 C -1.721579 5.105096 -0.496567 0
M  V30 16 C -3.075484 4.847455 -0.745210 0
M  V30 17 N -3.480163 5.711168 -1.709253 0
M  V30 18 N -2.481418 6.482982 -2.076053 0
M  V30 19 C -2.532074 7.529021 -3.083820 0
M  V30 20 C -1.399055 6.145344 -1.363146 0
M  V30 21 C -1.031859 2.972112 0.595859 0
M  V30 22 C -1.689548 1.931439 -0.030841 0
M  V30 23 N -1.502666 0.637083 0.361672 0
M  V30 24 C 2.217651 -4.872191 1.527705 0
M  V30 25 C 1.833544 -5.560691 2.654583 0
M  V30 26 C 2.782111 -6.153485 3.455167 0
M  V30 27 C 4.129536 -6.094925 3.185141 0
M  V30 28 F 5.040321 -6.688710 3.992272 0
M  V30 29 C 4.573664 -5.418081 2.068700 0
M  V30 30 C 3.597263 -4.836634 1.289447 0
M  V30 31 H -1.672395 -5.557389 -0.367660 0
M  V30 32 H -1.497026 -7.146049 0.522686 0
M  V30 33 H -1.059722 -5.644044 1.329384 0
M  V30 34 H 1.919445 -5.515512 -0.973157 0
M  V30 35 H 0.398933 -4.714442 -1.361213 0
M  V30 36 H 1.953988 -3.364852 0.028944 0
M  V30 37 H -0.421481 -3.603796 1.972751 0
M  V30 38 H -1.297266 -1.463691 2.303818 0
M  V30 39 H 0.650475 0.987174 2.825595 0
M  V30 40 H 1.068401 3.847717 2.927054 0
M  V30 41 H -3.741505 4.110729 -0.290570 0
M  V30 42 H -3.127533 7.128541 -3.954844 0
M  V30 43 H -1.513332 7.689901 -3.466105 0
M  V30 44 H -3.023894 8.446250 -2.702965 0
M  V30 45 H -0.398546 6.540914 -1.373484 0
M  V30 46 H -2.352587 2.204444 -0.840911 0
M  V30 47 H 0.770924 -5.588887 2.843125 0
M  V30 48 H 2.427105 -6.689465 4.339739 0
M  V30 49 H 5.610123 -5.317992 1.775048 0
M  V30 50 H 3.932280 -4.294313 0.397656 0
M  V30 END ATOM
M  V30 BEGIN BOND
M  V30 1 1 1 2
M  V30 2 1 2 3
M  V30 3 1 3 4
M  V30 4 1 4 5
M  V30 5 1 5 6
M  V30 6 2 6 7
M  V30 7 1 6 8
M  V30 8 1 8 9
M  V30 9 2 9 10
M  V30 10 1 10 11
M  V30 11 1 11 12
M  V30 12 1 12 13
M  V30 13 2 13 14
M  V30 14 1 14 15
M  V30 15 1 15 16
M  V30 16 2 16 17
M  V30 17 1 17 18
M  V30 18 1 18 19
M  V30 19 1 18 20
M  V30 20 1 14 21
M  V30 21 1 21 22
M  V30 22 2 22 23
M  V30 23 1 4 24
M  V30 24 2 24 25
M  V30 25 1 25 26
M  V30 26 2 26 27
M  V30 27 1 27 28
M  V30 28 1 27 29
M  V30 29 2 29 30
M  V30 30 1 23 9
M  V30 31 1 30 24
M  V30 32 2 21 11
M  V30 33 2 20 15
M  V30 34 1 1 31
M  V30 35 1 1 32
M  V30 36 1 1 33
M  V30 37 1 3 34
M  V30 38 1 3 35
M  V30 39 1 4 36 CFG=3
M  V30 40 1 5 37
M  V30 41 1 8 38
M  V30 42 1 10 39
M  V30 43 1 12 40
M  V30 44 1 16 41
M  V30 45 1 19 42
M  V30 46 1 19 43
M  V30 47 1 19 44
M  V30 48 1 20 45
M  V30 49 1 22 46
M  V30 50 1 25 47
M  V30 51 1 26 48
M  V30 52 1 29 49
M  V30 53 1 30 50
M  V30 END BOND
M  V30 END CTAB
M  END
>  <Dataset>  (9) 
ChEMBL_Kinases

>  <Ligand_Instance>  (9) 
nan

>  <PDB_ID>  (9) 
nan

>  <Standardized_SMILES>  (9) 
COC[C@@H](NC(=O)Nc1cc2[nH]nc(-c3cnn(C)c3)c2cn1)c1ccc(F)cc1

>  <Name>  (9) 
nan

>  <Pocket>  (9) 
nan

>  <ATP_Site>  (9) 
nan

>  <Peripheral>  (9) 
nan

>  <Num_H_Atoms_ProtBoundConf>  (9) 
nan

>  <Num_Resolved_Atoms>  (9) 
nan

>  <Num_Not_Resolved_Atoms>  (9) 
nan

$$$$
CHEMBL3658663
     RDKit          3D

  0  0  0  0  0  0  0  0  0  0999 V3000
M  V30 BEGIN CTAB
M  V30 COUNTS 48 52 0 0 0
M  V30 BEGIN ATOM
M  V30 1 O -0.798866 -0.213524 0.442230 0
M  V30 2 C -0.351329 -0.877414 1.402960 0
M  V30 3 N 0.949729 -0.618793 1.954504 0
M  V30 4 C 1.779852 0.427986 1.403488 0
M  V30 5 C 1.718811 1.726543 1.886190 0
M  V30 6 C 2.528385 2.702327 1.334360 0
M  V30 7 N 2.661617 4.012288 1.613060 0
M  V30 8 N 3.574523 4.517672 0.799562 0
M  V30 9 C 4.062404 3.578457 -0.023973 0
M  V30 10 C 5.072744 3.582310 -1.102844 0
M  V30 11 C 4.685921 3.857597 -2.508205 0
M  V30 12 C 5.304930 4.942532 -1.734486 0
M  V30 13 C 3.403373 2.385305 0.296998 0
M  V30 14 C 3.443800 1.082562 -0.165015 0
M  V30 15 N 2.646617 0.145342 0.385967 0
M  V30 16 N -1.048103 -1.933303 2.047116 0
M  V30 17 C -2.356834 -2.307836 1.609536 0 CFG=2
M  V30 18 C -3.418632 -2.216845 2.651090 0
M  V30 19 C -4.782939 -1.878980 2.174978 0
M  V30 20 C -5.205138 -2.489255 0.878116 0
M  V30 21 O -4.916763 -3.869771 0.781407 0
M  V30 22 C -3.588654 -4.338952 0.723304 0
M  V30 23 C -3.564204 -5.634197 0.231789 0
M  V30 24 C -2.341644 -6.284650 0.094992 0
M  V30 25 C -1.189225 -5.615862 0.454708 0
M  V30 26 C -1.185137 -4.326611 0.946535 0
M  V30 27 C -2.392862 -3.706404 1.073148 0
M  V30 28 H 1.454773 -1.079836 2.743577 0
M  V30 29 H 1.033312 1.982385 2.701306 0
M  V30 30 H 2.120105 4.517741 2.354474 0
M  V30 31 H 5.955806 2.942169 -0.934277 0
M  V30 32 H 5.305221 3.402916 -3.305724 0
M  V30 33 H 3.625977 3.937897 -2.811298 0
M  V30 34 H 6.370923 5.220023 -1.841285 0
M  V30 35 H 4.638183 5.782870 -1.424202 0
M  V30 36 H 4.129850 0.836143 -0.977694 0
M  V30 37 H -0.650799 -2.479984 2.856250 0
M  V30 38 H -2.688099 -1.664651 0.742815 0
M  V30 39 H -3.453161 -3.172708 3.220345 0
M  V30 40 H -3.114720 -1.389984 3.357426 0
M  V30 41 H -5.503996 -2.229056 2.947915 0
M  V30 42 H -4.961488 -0.786877 2.093448 0
M  V30 43 H -4.765625 -1.895846 0.055084 0
M  V30 44 H -6.307286 -2.407751 0.793424 0
M  V30 45 H -4.424872 -6.184499 -0.056227 0
M  V30 46 H -2.205711 -7.278377 -0.271461 0
M  V30 47 H -0.200090 -6.091184 0.363441 0
M  V30 48 H -0.306654 -3.777126 1.235875 0
M  V30 END ATOM
M  V30 BEGIN BOND
M  V30 1 2 1 2
M  V30 2 1 2 3
M  V30 3 1 3 4
M  V30 4 2 4 5
M  V30 5 1 5 6
M  V30 6 1 6 7
M  V30 7 1 7 8
M  V30 8 2 8 9
M  V30 9 1 9 10
M  V30 10 1 10 11
M  V30 11 1 11 12
M  V30 12 1 9 13
M  V30 13 1 13 14
M  V30 14 2 14 15
M  V30 15 1 2 16
M  V30 16 1 16 17
M  V30 17 1 17 18
M  V30 18 1 18 19
M  V30 19 1 19 20
M  V30 20 1 20 21
M  V30 21 1 21 22
M  V30 22 2 22 23
M  V30 23 1 23 24
M  V30 24 2 24 25
M  V30 25 1 25 26
M  V30 26 2 26 27
M  V30 27 1 15 4
M  V30 28 1 27 17
M  V30 29 2 13 6
M  V30 30 1 27 22
M  V30 31 1 12 10
M  V30 32 1 3 28
M  V30 33 1 5 29
M  V30 34 1 7 30
M  V30 35 1 10 31
M  V30 36 1 11 32
M  V30 37 1 11 33
M  V30 38 1 12 34
M  V30 39 1 12 35
M  V30 40 1 14 36
M  V30 41 1 16 37
M  V30 42 1 17 38 CFG=3
M  V30 43 1 18 39
M  V30 44 1 18 40
M  V30 45 1 19 41
M  V30 46 1 19 42
M  V30 47 1 20 43
M  V30 48 1 20 44
M  V30 49 1 23 45
M  V30 50 1 24 46
M  V30 51 1 25 47
M  V30 52 1 26 48
M  V30 END BOND
M  V30 END CTAB
M  END
>  <Dataset>  (10) 
ChEMBL_Kinases

>  <Ligand_Instance>  (10) 
nan

>  <PDB_ID>  (10) 
nan

>  <Standardized_SMILES>  (10) 
O=C(Nc1cc2[nH]nc(C3CC3)c2cn1)N[C@@H]1CCCOc2ccccc21

>  <Name>  (10) 
nan

>  <Pocket>  (10) 
nan

>  <ATP_Site>  (10) 
nan

>  <Peripheral>  (10) 
nan

>  <Num_H_Atoms_ProtBoundConf>  (10) 
nan

>  <Num_Resolved_Atoms>  (10) 
nan

>  <Num_Not_Resolved_Atoms>  (10) 
nan

$$$$
CHEMBL3658662
     RDKit          3D

  0  0  0  0  0  0  0  0  0  0999 V3000
M  V30 BEGIN CTAB
M  V30 COUNTS 48 52 0 0 0
M  V30 BEGIN ATOM
M  V30 1 C -4.277384 -3.692378 -0.915823 0
M  V30 2 C -2.779728 -3.818920 -0.881582 0 CFG=1
M  V30 3 N -2.197228 -3.335972 0.341003 0
M  V30 4 C -1.290758 -2.231800 0.300666 0
M  V30 5 O -0.950598 -1.629703 -0.748895 0
M  V30 6 N -0.722177 -1.766217 1.526080 0
M  V30 7 C 0.192118 -0.676463 1.617156 0
M  V30 8 C 1.557922 -0.874101 1.527518 0
M  V30 9 C 2.367945 0.241280 1.626739 0
M  V30 10 N 3.709208 0.432118 1.586310 0
M  V30 11 N 3.998374 1.714029 1.730992 0
M  V30 12 C 2.870583 2.454941 1.876426 0
M  V30 13 C 2.755154 3.901751 2.060832 0
M  V30 14 C 3.570116 4.607877 2.954450 0
M  V30 15 C 3.411238 5.981543 3.084080 0
M  V30 16 N 2.496354 6.678019 2.380290 0
M  V30 17 N 2.178259 7.964293 2.345515 0
M  V30 18 C 1.166224 8.149200 1.449273 0
M  V30 19 N 0.894301 6.928039 0.952957 0
M  V30 20 C 1.697601 6.001492 1.507572 0
M  V30 21 C 1.822143 4.630230 1.346753 0
M  V30 22 C 1.862457 1.513095 1.808105 0
M  V30 23 C 0.485381 1.620290 1.887097 0
M  V30 24 N -0.327310 0.552340 1.793868 0
M  V30 25 C -2.433948 -5.254152 -1.041194 0
M  V30 26 C -1.120919 -5.560943 -0.780922 0
M  V30 27 C -0.623192 -6.859132 -0.881328 0
M  V30 28 C -1.481231 -7.892318 -1.259200 0
M  V30 29 C -2.796454 -7.570189 -1.517408 0
M  V30 30 C -3.271771 -6.283877 -1.413678 0
M  V30 31 H -4.614431 -3.999386 -1.927565 0
M  V30 32 H -4.577520 -2.621573 -0.783504 0
M  V30 33 H -4.800021 -4.312960 -0.180202 0
M  V30 34 H -2.400593 -3.205363 -1.733922 0
M  V30 35 H -2.439029 -3.793477 1.249730 0
M  V30 36 H -0.936854 -2.196387 2.464903 0
M  V30 37 H 1.979458 -1.862484 1.385198 0
M  V30 38 H 4.406383 -0.344279 1.457048 0
M  V30 39 H 4.302252 4.079477 3.523488 0
M  V30 40 H 4.042981 6.547932 3.780623 0
M  V30 41 H 0.772834 9.129775 1.283589 0
M  V30 42 H 1.149780 4.170467 0.634157 0
M  V30 43 H 0.024698 2.572197 2.026776 0
M  V30 44 H -0.361561 -4.862712 -0.482916 0
M  V30 45 H 0.386357 -7.170203 -0.693881 0
M  V30 46 H -1.131289 -8.923991 -1.349824 0
M  V30 47 H -3.525535 -8.309021 -1.815049 0
M  V30 48 H -4.296565 -5.989595 -1.607574 0
M  V30 END ATOM
M  V30 BEGIN BOND
M  V30 1 1 1 2
M  V30 2 1 2 3
M  V30 3 1 3 4
M  V30 4 2 4 5
M  V30 5 1 4 6
M  V30 6 1 6 7
M  V30 7 2 7 8
M  V30 8 1 8 9
M  V30 9 1 9 10
M  V30 10 1 10 11
M  V30 11 2 11 12
M  V30 12 1 12 13
M  V30 13 1 13 14
M  V30 14 2 14 15
M  V30 15 1 15 16
M  V30 16 1 16 17
M  V30 17 2 17 18
M  V30 18 1 18 19
M  V30 19 2 19 20
M  V30 20 1 20 21
M  V30 21 1 12 22
M  V30 22 1 22 23
M  V30 23 2 23 24
M  V30 24 1 2 25
M  V30 25 2 25 26
M  V30 26 1 26 27
M  V30 27 2 27 28
M  V30 28 1 28 29
M  V30 29 2 29 30
M  V30 30 1 24 7
M  V30 31 1 30 25
M  V30 32 2 22 9
M  V30 33 2 21 13
M  V30 34 1 20 16
M  V30 35 1 1 31
M  V30 36 1 1 32
M  V30 37 1 1 33
M  V30 38 1 2 34 CFG=3
M  V30 39 1 3 35
M  V30 40 1 6 36
M  V30 41 1 8 37
M  V30 42 1 10 38
M  V30 43 1 14 39
M  V30 44 1 15 40
M  V30 45 1 18 41
M  V30 46 1 21 42
M  V30 47 1 23 43
M  V30 48 1 26 44
M  V30 49 1 27 45
M  V30 50 1 28 46
M  V30 51 1 29 47
M  V30 52 1 30 48
M  V30 END BOND
M  V30 END CTAB
M  END
>  <Dataset>  (11) 
ChEMBL_Kinases

>  <Ligand_Instance>  (11) 
nan

>  <PDB_ID>  (11) 
nan

>  <Standardized_SMILES>  (11) 
C[C@@H](NC(=O)Nc1cc2[nH]nc(-c3ccn4ncnc4c3)c2cn1)c1ccccc1

>  <Name>  (11) 
nan

>  <Pocket>  (11) 
nan

>  <ATP_Site>  (11) 
nan

>  <Peripheral>  (11) 
nan

>  <Num_H_Atoms_ProtBoundConf>  (11) 
nan

>  <Num_Resolved_Atoms>  (11) 
nan

>  <Num_Not_Resolved_Atoms>  (11) 
nan

$$$$
CHEMBL3658661
     RDKit          3D

  0  0  0  0  0  0  0  0  0  0999 V3000
M  V30 BEGIN CTAB
M  V30 COUNTS 59 62 0 0 0
M  V30 BEGIN ATOM
M  V30 1 C 4.887204 -1.384600 2.649618 0
M  V30 2 O 5.926581 -0.545385 2.993577 0
M  V30 3 C 7.028754 -0.602483 2.184210 0
M  V30 4 C 6.753442 -0.191446 0.747836 0
M  V30 5 N 6.269343 1.179596 0.685343 0
M  V30 6 C 7.159125 2.261359 1.027683 0
M  V30 7 C 5.006819 1.723739 0.314838 0
M  V30 8 N 4.062682 1.527936 1.273296 0
M  V30 9 C 2.797374 1.952663 1.153845 0
M  V30 10 C 2.383954 2.628878 0.017180 0
M  V30 11 C 0.979885 3.008034 0.018683 0
M  V30 12 N 0.295834 4.144514 -0.184528 0
M  V30 13 N -1.005445 3.936857 -0.080751 0
M  V30 14 C -1.251797 2.624313 0.201212 0
M  V30 15 C -2.407433 1.902442 0.392639 0
M  V30 16 C -2.317396 0.566358 0.651107 0
M  V30 17 N -3.319947 -0.391594 0.909528 0
M  V30 18 C -4.192294 -1.204633 0.159290 0
M  V30 19 O -4.013451 -0.912261 -1.053746 0
M  V30 20 N -5.060469 -2.132886 0.718960 0
M  V30 21 C -5.955176 -2.917205 -0.099043 0 CFG=2
M  V30 22 C -7.327535 -3.080661 0.421116 0
M  V30 23 C -5.326126 -4.253549 -0.423670 0
M  V30 24 C -5.481671 -4.764130 -1.726389 0
M  V30 25 C -4.950549 -5.950334 -2.165083 0
M  V30 26 C -4.206409 -6.718496 -1.284320 0
M  V30 27 C -4.060396 -6.214702 -0.018153 0
M  V30 28 C -4.584031 -5.027898 0.441086 0
M  V30 29 N -1.107288 -0.017671 0.712558 0
M  V30 30 C 0.058086 0.671935 0.527192 0
M  V30 31 C 0.004011 2.056717 0.259496 0
M  V30 32 C 3.358261 2.816223 -0.939991 0
M  V30 33 N 4.620306 2.386080 -0.807503 0
M  V30 34 H 5.160456 -2.474695 2.684051 0
M  V30 35 H 4.060187 -1.174560 3.365142 0
M  V30 36 H 4.541989 -1.165177 1.610011 0
M  V30 37 H 7.864906 -0.023315 2.616991 0
M  V30 38 H 7.394326 -1.656795 2.152670 0
M  V30 39 H 7.715938 -0.247556 0.203681 0
M  V30 40 H 6.022654 -0.844929 0.263849 0
M  V30 41 H 7.453455 2.832716 0.100443 0
M  V30 42 H 6.739572 2.925020 1.783416 0
M  V30 43 H 8.138585 1.897500 1.448507 0
M  V30 44 H 2.118912 1.750763 1.979403 0
M  V30 45 H -1.799664 4.601599 -0.179362 0
M  V30 46 H -3.392020 2.312342 0.355736 0
M  V30 47 H -3.380176 -0.534054 1.946096 0
M  V30 48 H -5.050575 -2.253413 1.770306 0
M  V30 49 H -5.983137 -2.403843 -1.087699 0
M  V30 50 H -7.741603 -4.037813 -0.023972 0
M  V30 51 H -7.381992 -3.279834 1.517135 0
M  V30 52 H -8.006689 -2.285947 0.115301 0
M  V30 53 H -6.073427 -4.147136 -2.412161 0
M  V30 54 H -5.117160 -6.263154 -3.173068 0
M  V30 55 H -3.767395 -7.655782 -1.580498 0
M  V30 56 H -3.464206 -6.830365 0.674678 0
M  V30 57 H -4.464161 -4.636537 1.439788 0
M  V30 58 H 1.032213 0.158998 0.580852 0
M  V30 59 H 3.023635 3.343318 -1.818864 0
M  V30 END ATOM
M  V30 BEGIN BOND
M  V30 1 1 1 2
M  V30 2 1 2 3
M  V30 3 1 3 4
M  V30 4 1 4 5
M  V30 5 1 5 6
M  V30 6 1 5 7
M  V30 7 2 7 8
M  V30 8 1 8 9
M  V30 9 2 9 10
M  V30 10 1 10 11
M  V30 11 2 11 12
M  V30 12 1 12 13
M  V30 13 1 13 14
M  V30 14 2 14 15
M  V30 15 1 15 16
M  V30 16 1 16 17
M  V30 17 1 17 18
M  V30 18 2 18 19
M  V30 19 1 18 20
M  V30 20 1 20 21
M  V30 21 1 21 22
M  V30 22 1 21 23
M  V30 23 2 23 24
M  V30 24 1 24 25
M  V30 25 2 25 26
M  V30 26 1 26 27
M  V30 27 2 27 28
M  V30 28 2 16 29
M  V30 29 1 29 30
M  V30 30 2 30 31
M  V30 31 1 10 32
M  V30 32 2 32 33
M  V30 33 1 33 7
M  V30 34 1 31 11
M  V30 35 1 31 14
M  V30 36 1 28 23
M  V30 37 1 1 34
M  V30 38 1 1 35
M  V30 39 1 1 36
M  V30 40 1 3 37
M  V30 41 1 3 38
M  V30 42 1 4 39
M  V30 43 1 4 40
M  V30 44 1 6 41
M  V30 45 1 6 42
M  V30 46 1 6 43
M  V30 47 1 9 44
M  V30 48 1 13 45
M  V30 49 1 15 46
M  V30 50 1 17 47
M  V30 51 1 20 48
M  V30 52 1 21 49 CFG=3
M  V30 53 1 22 50
M  V30 54 1 22 51
M  V30 55 1 22 52
M  V30 56 1 24 53
M  V30 57 1 25 54
M  V30 58 1 26 55
M  V30 59 1 27 56
M  V30 60 1 28 57
M  V30 61 1 30 58
M  V30 62 1 32 59
M  V30 END BOND
M  V30 END CTAB
M  END
>  <Dataset>  (12) 
ChEMBL_Kinases

>  <Ligand_Instance>  (12) 
nan

>  <PDB_ID>  (12) 
nan

>  <Standardized_SMILES>  (12) 
COCCN(C)c1ncc(-c2n[nH]c3cc(NC(=O)N[C@H](C)c4ccccc4)ncc23)cn1

>  <Name>  (12) 
nan

>  <Pocket>  (12) 
nan

>  <ATP_Site>  (12) 
nan

>  <Peripheral>  (12) 
nan

>  <Num_H_Atoms_ProtBoundConf>  (12) 
nan

>  <Num_Resolved_Atoms>  (12) 
nan

>  <Num_Not_Resolved_Atoms>  (12) 
nan

$$$$
CHEMBL3658660
     RDKit          3D

  0  0  0  0  0  0  0  0  0  0999 V3000
M  V30 BEGIN CTAB
M  V30 COUNTS 55 58 0 0 0
M  V30 BEGIN ATOM
M  V30 1 C 1.708048 -6.452864 4.063488 0
M  V30 2 C 0.620670 -5.761806 3.267362 0 CFG=1
M  V30 3 N 1.164036 -5.131093 2.079271 0
M  V30 4 C 1.226106 -3.732682 1.767745 0
M  V30 5 O 0.757794 -2.953890 2.616513 0
M  V30 6 N 1.796835 -3.307669 0.551158 0
M  V30 7 C 1.803184 -1.891217 0.350063 0
M  V30 8 C 2.835248 -1.065534 0.748339 0
M  V30 9 C 2.754321 0.292109 0.512068 0
M  V30 10 N 3.566205 1.337161 0.768652 0
M  V30 11 N 3.019686 2.461169 0.332801 0
M  V30 12 C 1.808097 2.215517 -0.239249 0
M  V30 13 C 0.872014 3.162019 -0.844230 0
M  V30 14 C 0.523629 4.371954 -0.276870 0
M  V30 15 N -0.349246 5.178415 -0.912521 0
M  V30 16 C -0.918406 4.875618 -2.093161 0
M  V30 17 N -1.835440 5.756371 -2.729547 0
M  V30 18 C -2.418335 5.388435 -3.993146 0
M  V30 19 S -2.245653 7.249287 -1.996956 0
M  V30 20 C -3.024958 7.050151 -0.421005 0
M  V30 21 O -3.123337 8.050988 -2.920298 0
M  V30 22 O -0.975705 8.047208 -1.775226 0
M  V30 23 N -0.592991 3.693862 -2.670862 0
M  V30 24 C 0.275883 2.872958 -2.054903 0
M  V30 25 C 1.659112 0.848577 -0.117084 0
M  V30 26 C 0.665913 -0.035360 -0.487454 0
M  V30 27 N 0.717084 -1.363793 -0.270336 0
M  V30 28 C -0.490746 -6.714342 2.947273 0
M  V30 29 C -1.666299 -6.738083 3.670278 0
M  V30 30 C -2.689878 -7.605104 3.386496 0
M  V30 31 C -2.517157 -8.488149 2.323654 0
M  V30 32 C -1.343049 -8.473252 1.592036 0
M  V30 33 C -0.305337 -7.585579 1.889059 0
M  V30 34 H 2.474414 -6.915596 3.409540 0
M  V30 35 H 2.255786 -5.662913 4.629242 0
M  V30 36 H 1.210369 -7.198675 4.716962 0
M  V30 37 H 0.251560 -4.926175 3.906775 0
M  V30 38 H 1.557633 -5.791459 1.366711 0
M  V30 39 H 2.185243 -3.970020 -0.150630 0
M  V30 40 H 3.693308 -1.502311 1.241335 0
M  V30 41 H 4.507036 1.263799 1.250924 0
M  V30 42 H 0.967710 4.638844 0.672683 0
M  V30 43 H -1.990496 4.425856 -4.349437 0
M  V30 44 H -3.502902 5.182401 -3.813260 0
M  V30 45 H -2.332544 6.178650 -4.742571 0
M  V30 46 H -2.447783 6.281223 0.146490 0
M  V30 47 H -4.091265 6.796725 -0.475059 0
M  V30 48 H -2.934593 7.984837 0.134238 0
M  V30 49 H 0.464494 1.959607 -2.601727 0
M  V30 50 H -0.215396 0.328002 -0.981223 0
M  V30 51 H -1.738570 -6.023885 4.486995 0
M  V30 52 H -3.585643 -7.549825 4.016505 0
M  V30 53 H -3.335382 -9.169349 2.109647 0
M  V30 54 H -1.308818 -9.200921 0.785098 0
M  V30 55 H 0.583590 -7.621134 1.284600 0
M  V30 END ATOM
M  V30 BEGIN BOND
M  V30 1 1 1 2
M  V30 2 1 2 3
M  V30 3 1 3 4
M  V30 4 2 4 5
M  V30 5 1 4 6
M  V30 6 1 6 7
M  V30 7 2 7 8
M  V30 8 1 8 9
M  V30 9 1 9 10
M  V30 10 1 10 11
M  V30 11 2 11 12
M  V30 12 1 12 13
M  V30 13 2 13 14
M  V30 14 1 14 15
M  V30 15 2 15 16
M  V30 16 1 16 17
M  V30 17 1 17 18
M  V30 18 1 17 19
M  V30 19 1 19 20
M  V30 20 2 19 21
M  V30 21 2 19 22
M  V30 22 1 16 23
M  V30 23 2 23 24
M  V30 24 1 12 25
M  V30 25 1 25 26
M  V30 26 2 26 27
M  V30 27 1 2 28
M  V30 28 2 28 29
M  V30 29 1 29 30
M  V30 30 2 30 31
M  V30 31 1 31 32
M  V30 32 2 32 33
M  V30 33 1 27 7
M  V30 34 1 33 28
M  V30 35 2 25 9
M  V30 36 1 24 13
M  V30 37 1 1 34
M  V30 38 1 1 35
M  V30 39 1 1 36
M  V30 40 1 2 37 CFG=1
M  V30 41 1 3 38
M  V30 42 1 6 39
M  V30 43 1 8 40
M  V30 44 1 10 41
M  V30 45 1 14 42
M  V30 46 1 18 43
M  V30 47 1 18 44
M  V30 48 1 18 45
M  V30 49 1 20 46
M  V30 50 1 20 47
M  V30 51 1 20 48
M  V30 52 1 24 49
M  V30 53 1 26 50
M  V30 54 1 29 51
M  V30 55 1 30 52
M  V30 56 1 31 53
M  V30 57 1 32 54
M  V30 58 1 33 55
M  V30 END BOND
M  V30 END CTAB
M  END
>  <Dataset>  (13) 
ChEMBL_Kinases

>  <Ligand_Instance>  (13) 
nan

>  <PDB_ID>  (13) 
nan

>  <Standardized_SMILES>  (13) 
C[C@@H](NC(=O)Nc1cc2[nH]nc(-c3cnc(N(C)S(C)(=O)=O)nc3)c2cn1)c1ccccc1

>  <Name>  (13) 
nan

>  <Pocket>  (13) 
nan

>  <ATP_Site>  (13) 
nan

>  <Peripheral>  (13) 
nan

>  <Num_H_Atoms_ProtBoundConf>  (13) 
nan

>  <Num_Resolved_Atoms>  (13) 
nan

>  <Num_Not_Resolved_Atoms>  (13) 
nan

$$$$
CHEMBL3658659
     RDKit          3D

  0  0  0  0  0  0  0  0  0  0999 V3000
M  V30 BEGIN CTAB
M  V30 COUNTS 51 55 0 0 0
M  V30 BEGIN ATOM
M  V30 1 C 2.177208 -5.861617 -1.816459 0
M  V30 2 C 2.534557 -5.149000 -0.553547 0 CFG=1
M  V30 3 N 1.436908 -4.539910 0.118869 0
M  V30 4 C 1.382231 -3.145043 0.394047 0
M  V30 5 O 2.237079 -2.273394 0.109240 0
M  V30 6 N 0.221986 -2.689537 1.070765 0
M  V30 7 C -0.072955 -1.365303 1.457176 0
M  V30 8 C 0.221429 -0.723155 2.618141 0
M  V30 9 C -0.165073 0.591019 2.792454 0
M  V30 10 N 0.020323 1.410604 3.849185 0
M  V30 11 N -0.535040 2.575363 3.528906 0
M  V30 12 C -1.079019 2.524848 2.278923 0
M  V30 13 C -1.772681 3.608143 1.581634 0
M  V30 14 C -2.958612 3.310265 0.938066 0
M  V30 15 N -3.646863 4.278603 0.271286 0
M  V30 16 C -3.198575 5.548360 0.217223 0
M  V30 17 N -3.938562 6.540375 -0.487185 0
M  V30 18 C -4.271760 6.217999 -1.768752 0
M  V30 19 C -4.985511 7.276538 -2.320563 0
M  V30 20 C -5.057506 8.235268 -1.307958 0
M  V30 21 N -4.417730 7.746952 -0.235830 0
M  V30 22 N -2.027013 5.846737 0.852027 0
M  V30 23 C -1.313208 4.915345 1.524809 0
M  V30 24 C -0.848830 1.251835 1.790482 0
M  V30 25 C -1.143808 0.594203 0.615822 0
M  V30 26 N -0.750664 -0.692951 0.477679 0
M  V30 27 C 3.226115 -6.045583 0.410649 0
M  V30 28 C 3.472144 -5.576839 1.674458 0
M  V30 29 C 4.116703 -6.383687 2.606044 0
M  V30 30 C 4.518862 -7.657791 2.286238 0
M  V30 31 C 4.261696 -8.105109 1.015165 0
M  V30 32 C 3.627010 -7.319305 0.087571 0
M  V30 33 H 3.138491 -6.161113 -2.297427 0
M  V30 34 H 1.592093 -6.769631 -1.667161 0
M  V30 35 H 1.725582 -5.136649 -2.520413 0
M  V30 36 H 3.285199 -4.360922 -0.803950 0
M  V30 37 H 0.666806 -5.178282 0.401957 0
M  V30 38 H -0.608361 -3.258583 1.396483 0
M  V30 39 H 0.758555 -1.326949 3.338293 0
M  V30 40 H 0.508828 1.156190 4.736380 0
M  V30 41 H -3.431988 2.349552 0.898760 0
M  V30 42 H -4.112975 5.367068 -2.418233 0
M  V30 43 H -5.429150 7.421692 -3.306452 0
M  V30 44 H -5.531014 9.207370 -1.335772 0
M  V30 45 H -0.384429 5.148617 2.028930 0
M  V30 46 H -1.677955 1.117442 -0.164058 0
M  V30 47 H 3.194655 -4.584310 2.028010 0
M  V30 48 H 4.317976 -6.016059 3.620307 0
M  V30 49 H 5.024825 -8.317961 2.985797 0
M  V30 50 H 4.530098 -9.090041 0.644579 0
M  V30 51 H 3.409628 -7.638376 -0.917932 0
M  V30 END ATOM
M  V30 BEGIN BOND
M  V30 1 1 1 2
M  V30 2 1 2 3
M  V30 3 1 3 4
M  V30 4 2 4 5
M  V30 5 1 4 6
M  V30 6 1 6 7
M  V30 7 2 7 8
M  V30 8 1 8 9
M  V30 9 1 9 10
M  V30 10 1 10 11
M  V30 11 2 11 12
M  V30 12 1 12 13
M  V30 13 2 13 14
M  V30 14 1 14 15
M  V30 15 2 15 16
M  V30 16 1 16 17
M  V30 17 1 17 18
M  V30 18 2 18 19
M  V30 19 1 19 20
M  V30 20 2 20 21
M  V30 21 1 16 22
M  V30 22 2 22 23
M  V30 23 1 12 24
M  V30 24 1 24 25
M  V30 25 2 25 26
M  V30 26 1 2 27
M  V30 27 2 27 28
M  V30 28 1 28 29
M  V30 29 2 29 30
M  V30 30 1 30 31
M  V30 31 2 31 32
M  V30 32 1 26 7
M  V30 33 1 32 27
M  V30 34 2 24 9
M  V30 35 1 23 13
M  V30 36 1 21 17
M  V30 37 1 1 33
M  V30 38 1 1 34
M  V30 39 1 1 35
M  V30 40 1 2 36 CFG=3
M  V30 41 1 3 37
M  V30 42 1 6 38
M  V30 43 1 8 39
M  V30 44 1 10 40
M  V30 45 1 14 41
M  V30 46 1 18 42
M  V30 47 1 19 43
M  V30 48 1 20 44
M  V30 49 1 23 45
M  V30 50 1 25 46
M  V30 51 1 28 47
M  V30 52 1 29 48
M  V30 53 1 30 49
M  V30 54 1 31 50
M  V30 55 1 32 51
M  V30 END BOND
M  V30 END CTAB
M  END
>  <Dataset>  (14) 
ChEMBL_Kinases

>  <Ligand_Instance>  (14) 
nan

>  <PDB_ID>  (14) 
nan

>  <Standardized_SMILES>  (14) 
C[C@@H](NC(=O)Nc1cc2[nH]nc(-c3cnc(-n4cccn4)nc3)c2cn1)c1ccccc1

>  <Name>  (14) 
nan

>  <Pocket>  (14) 
nan

>  <ATP_Site>  (14) 
nan

>  <Peripheral>  (14) 
nan

>  <Num_H_Atoms_ProtBoundConf>  (14) 
nan

>  <Num_Resolved_Atoms>  (14) 
nan

>  <Num_Not_Resolved_Atoms>  (14) 
nan

$$$$
CHEMBL3658658
     RDKit          3D

  0  0  0  0  0  0  0  0  0  0999 V3000
M  V30 BEGIN CTAB
M  V30 COUNTS 45 48 0 0 0
M  V30 BEGIN ATOM
M  V30 1 C 1.356590 -4.195684 4.170117 0
M  V30 2 C 0.952430 -4.047486 2.740815 0 CFG=1
M  V30 3 N 1.584935 -2.861670 2.174518 0
M  V30 4 C 0.937402 -1.682862 1.690284 0
M  V30 5 O -0.326870 -1.684406 1.768933 0
M  V30 6 N 1.745910 -0.632608 1.173424 0
M  V30 7 C 1.055103 0.522682 0.702324 0
M  V30 8 C 0.696921 0.495168 -0.637583 0
M  V30 9 C 0.023606 1.564345 -1.196181 0
M  V30 10 N -0.451319 1.836382 -2.433300 0
M  V30 11 N -1.018563 3.039576 -2.375005 0
M  V30 12 C -0.927494 3.559815 -1.136784 0
M  V30 13 C -1.464210 4.870667 -0.780158 0
M  V30 14 C -2.185457 5.030988 0.386176 0
M  V30 15 N -2.683627 6.252832 0.715009 0
M  V30 16 C -2.461160 7.300281 -0.115411 0
M  V30 17 O -2.993238 8.529780 0.268200 0
M  V30 18 N -1.753002 7.172889 -1.273464 0
M  V30 19 C -1.250031 5.956053 -1.612666 0
M  V30 20 C -0.262309 2.629747 -0.364216 0
M  V30 21 C 0.093373 2.662748 0.976263 0
M  V30 22 N 0.748228 1.596035 1.472597 0
M  V30 23 C 1.252738 -5.258110 1.913671 0
M  V30 24 C 2.532791 -5.503011 1.459914 0
M  V30 25 C 2.724033 -6.650784 0.697643 0
M  V30 26 C 1.694152 -7.509572 0.402838 0
M  V30 27 C 0.415367 -7.253832 0.863072 0
M  V30 28 C 0.192170 -6.122759 1.622413 0
M  V30 29 H 2.178485 -4.937961 4.313926 0
M  V30 30 H 0.479470 -4.405281 4.817395 0
M  V30 31 H 1.781994 -3.236013 4.533802 0
M  V30 32 H -0.139532 -3.836560 2.714638 0
M  V30 33 H 2.610739 -3.002236 2.173770 0
M  V30 34 H 2.783592 -0.748565 1.161000 0
M  V30 35 H 0.913366 -0.328300 -1.297026 0
M  V30 36 H -0.388508 1.226433 -3.273436 0
M  V30 37 H -2.383834 4.219538 1.074082 0
M  V30 38 H -3.944207 8.566352 0.663801 0
M  V30 39 H -0.680895 5.867740 -2.549407 0
M  V30 40 H -0.148493 3.515539 1.595307 0
M  V30 41 H 3.361257 -4.834527 1.683109 0
M  V30 42 H 3.697856 -6.913024 0.304982 0
M  V30 43 H 1.763502 -8.412800 -0.177962 0
M  V30 44 H -0.481548 -7.866662 0.690759 0
M  V30 45 H -0.802880 -5.863880 2.017962 0
M  V30 END ATOM
M  V30 BEGIN BOND
M  V30 1 1 1 2
M  V30 2 1 2 3
M  V30 3 1 3 4
M  V30 4 2 4 5
M  V30 5 1 4 6
M  V30 6 1 6 7
M  V30 7 2 7 8
M  V30 8 1 8 9
M  V30 9 1 9 10
M  V30 10 1 10 11
M  V30 11 2 11 12
M  V30 12 1 12 13
M  V30 13 2 13 14
M  V30 14 1 14 15
M  V30 15 2 15 16
M  V30 16 1 16 17
M  V30 17 1 16 18
M  V30 18 2 18 19
M  V30 19 1 12 20
M  V30 20 1 20 21
M  V30 21 2 21 22
M  V30 22 1 2 23
M  V30 23 2 23 24
M  V30 24 1 24 25
M  V30 25 2 25 26
M  V30 26 1 26 27
M  V30 27 2 27 28
M  V30 28 1 22 7
M  V30 29 1 28 23
M  V30 30 2 20 9
M  V30 31 1 19 13
M  V30 32 1 1 29
M  V30 33 1 1 30
M  V30 34 1 1 31
M  V30 35 1 2 32 CFG=1
M  V30 36 1 3 33
M  V30 37 1 6 34
M  V30 38 1 8 35
M  V30 39 1 10 36
M  V30 40 1 14 37
M  V30 41 1 17 38
M  V30 42 1 19 39
M  V30 43 1 21 40
M  V30 44 1 24 41
M  V30 45 1 25 42
M  V30 46 1 26 43
M  V30 47 1 27 44
M  V30 48 1 28 45
M  V30 END BOND
M  V30 END CTAB
M  END
>  <Dataset>  (15) 
ChEMBL_Kinases

>  <Ligand_Instance>  (15) 
nan

>  <PDB_ID>  (15) 
nan

>  <Standardized_SMILES>  (15) 
C[C@@H](NC(=O)Nc1cc2[nH]nc(-c3cnc(O)nc3)c2cn1)c1ccccc1

>  <Name>  (15) 
nan

>  <Pocket>  (15) 
nan

>  <ATP_Site>  (15) 
nan

>  <Peripheral>  (15) 
nan

>  <Num_H_Atoms_ProtBoundConf>  (15) 
nan

>  <Num_Resolved_Atoms>  (15) 
nan

>  <Num_Not_Resolved_Atoms>  (15) 
nan

$$$$
CHEMBL3658657
     RDKit          3D

  0  0  0  0  0  0  0  0  0  0999 V3000
M  V30 BEGIN CTAB
M  V30 COUNTS 53 56 0 0 0
M  V30 BEGIN ATOM
M  V30 1 C 4.753192 -1.682488 6.330820 0
M  V30 2 O 5.299975 -1.012387 5.223199 0
M  V30 3 C 6.418638 -1.653425 4.751368 0
M  V30 4 C 7.038910 -0.953479 3.548625 0
M  V30 5 N 6.113713 -0.872709 2.441061 0
M  V30 6 C 5.251660 0.138472 2.220624 0
M  V30 7 C 4.522063 -0.115553 1.071782 0
M  V30 8 C 3.469703 0.606098 0.358162 0
M  V30 9 N 3.390653 1.926166 0.038215 0
M  V30 10 N 2.265355 2.175173 -0.614897 0
M  V30 11 C 1.607324 1.005818 -0.720137 0
M  V30 12 C 0.385497 0.772557 -1.323314 0
M  V30 13 C -0.112396 -0.515732 -1.318049 0
M  V30 14 N -1.351370 -0.977985 -1.882177 0
M  V30 15 C -2.435884 -0.916887 -0.962068 0
M  V30 16 O -2.468791 -0.529884 0.235174 0
M  V30 17 N -3.721886 -1.342042 -1.381758 0
M  V30 18 C -4.906201 -1.318869 -0.509140 0 CFG=2
M  V30 19 C -5.357912 -2.763670 -0.259897 0
M  V30 20 C -6.043575 -0.624901 -1.120690 0
M  V30 21 C -5.831876 0.574660 -1.752204 0
M  V30 22 C -6.861346 1.275344 -2.346447 0
M  V30 23 C -8.152203 0.778843 -2.320219 0
M  V30 24 C -8.413377 -0.430451 -1.692917 0
M  V30 25 C -7.345517 -1.088861 -1.114882 0
M  V30 26 N 0.599382 -1.520317 -0.726710 0
M  V30 27 C 1.791127 -1.282704 -0.140509 0
M  V30 28 C 2.317950 -0.017931 -0.125381 0
M  V30 29 C 4.998022 -1.345750 0.610918 0
M  V30 30 N 5.962503 -1.766298 1.473827 0
M  V30 31 H 4.459784 -2.713180 6.071920 0
M  V30 32 H 3.887964 -1.125622 6.732394 0
M  V30 33 H 5.505425 -1.783508 7.149413 0
M  V30 34 H 6.173107 -2.690658 4.433156 0
M  V30 35 H 7.211731 -1.739099 5.515567 0
M  V30 36 H 7.265127 0.090597 3.894101 0
M  V30 37 H 7.985540 -1.444236 3.303308 0
M  V30 38 H 5.075817 1.044707 2.782563 0
M  V30 39 H 1.958860 3.123466 -0.978041 0
M  V30 40 H -0.256012 1.489859 -1.816700 0
M  V30 41 H -1.525204 -1.331355 -2.837259 0
M  V30 42 H -3.926555 -1.709130 -2.357659 0
M  V30 43 H -4.645924 -0.934150 0.482417 0
M  V30 44 H -4.405383 -3.365424 -0.187189 0
M  V30 45 H -5.922347 -2.872410 0.669024 0
M  V30 46 H -5.879031 -3.191283 -1.140494 0
M  V30 47 H -4.879992 1.058013 -1.837295 0
M  V30 48 H -6.746695 2.221277 -2.854662 0
M  V30 49 H -9.037716 1.256224 -2.761055 0
M  V30 50 H -9.411594 -0.890342 -1.630032 0
M  V30 51 H -7.548488 -2.034296 -0.624217 0
M  V30 52 H 2.368093 -2.077037 0.334622 0
M  V30 53 H 4.696221 -1.917202 -0.268656 0
M  V30 END ATOM
M  V30 BEGIN BOND
M  V30 1 1 1 2
M  V30 2 1 2 3
M  V30 3 1 3 4
M  V30 4 1 4 5
M  V30 5 1 5 6
M  V30 6 2 6 7
M  V30 7 1 7 8
M  V30 8 2 8 9
M  V30 9 1 9 10
M  V30 10 1 10 11
M  V30 11 2 11 12
M  V30 12 1 12 13
M  V30 13 1 13 14
M  V30 14 1 14 15
M  V30 15 2 15 16
M  V30 16 1 15 17
M  V30 17 1 17 18
M  V30 18 1 18 19
M  V30 19 1 18 20
M  V30 20 2 20 21
M  V30 21 1 21 22
M  V30 22 2 22 23
M  V30 23 1 23 24
M  V30 24 2 24 25
M  V30 25 2 13 26
M  V30 26 1 26 27
M  V30 27 2 27 28
M  V30 28 1 7 29
M  V30 29 2 29 30
M  V30 30 1 30 5
M  V30 31 1 28 8
M  V30 32 1 28 11
M  V30 33 1 25 20
M  V30 34 1 1 31
M  V30 35 1 1 32
M  V30 36 1 1 33
M  V30 37 1 3 34
M  V30 38 1 3 35
M  V30 39 1 4 36
M  V30 40 1 4 37
M  V30 41 1 6 38
M  V30 42 1 10 39
M  V30 43 1 12 40
M  V30 44 1 14 41
M  V30 45 1 17 42
M  V30 46 1 18 43 CFG=1
M  V30 47 1 19 44
M  V30 48 1 19 45
M  V30 49 1 19 46
M  V30 50 1 21 47
M  V30 51 1 22 48
M  V30 52 1 23 49
M  V30 53 1 24 50
M  V30 54 1 25 51
M  V30 55 1 27 52
M  V30 56 1 29 53
M  V30 END BOND
M  V30 END CTAB
M  END
>  <Dataset>  (16) 
ChEMBL_Kinases

>  <Ligand_Instance>  (16) 
nan

>  <PDB_ID>  (16) 
nan

>  <Standardized_SMILES>  (16) 
COCCn1cc(-c2n[nH]c3cc(NC(=O)N[C@H](C)c4ccccc4)ncc23)cn1

>  <Name>  (16) 
nan

>  <Pocket>  (16) 
nan

>  <ATP_Site>  (16) 
nan

>  <Peripheral>  (16) 
nan

>  <Num_H_Atoms_ProtBoundConf>  (16) 
nan

>  <Num_Resolved_Atoms>  (16) 
nan

>  <Num_Not_Resolved_Atoms>  (16) 
nan

$$$$
CHEMBL3658656
     RDKit          3D

  0  0  0  0  0  0  0  0  0  0999 V3000
M  V30 BEGIN CTAB
M  V30 COUNTS 57 61 0 0 0
M  V30 BEGIN ATOM
M  V30 1 C 7.685338 -4.088640 4.590589 0
M  V30 2 C 6.591251 -4.189855 3.569441 0
M  V30 3 C 6.174060 -3.115608 2.789727 0
M  V30 4 C 5.158446 -3.292582 1.871037 0
M  V30 5 C 4.699976 -2.183348 1.039148 0
M  V30 6 N 5.504507 -1.298787 0.380513 0
M  V30 7 N 4.770041 -0.415440 -0.283488 0
M  V30 8 C 3.457594 -0.659422 -0.106254 0
M  V30 9 C 2.298694 -0.058621 -0.560619 0
M  V30 10 C 1.075420 -0.607446 -0.155019 0
M  V30 11 N -0.117891 0.013911 -0.624817 0
M  V30 12 C -0.893467 1.058247 -0.069041 0
M  V30 13 O -0.601174 1.632350 1.021779 0
M  V30 14 N -2.062272 1.500909 -0.751516 0
M  V30 15 C -2.766257 2.587617 -0.064532 0
M  V30 16 C -4.196705 2.696160 -0.536599 0
M  V30 17 N -4.579354 1.396412 -1.058694 0
M  V30 18 C -5.471027 0.483180 -0.435111 0
M  V30 19 C -5.848703 -0.743293 -0.935254 0
M  V30 20 C -6.719295 -1.584473 -0.277794 0
M  V30 21 C -7.266233 -1.240931 0.930121 0
M  V30 22 F -8.106698 -2.123326 1.500609 0
M  V30 23 C -6.908187 -0.006661 1.469547 0
M  V30 24 C -6.033571 0.805088 0.778716 0
M  V30 25 C -3.922887 1.131117 -2.325862 0
M  V30 26 C -2.463847 0.891742 -2.003597 0 CFG=1
M  V30 27 C -1.607909 1.295999 -3.155293 0
M  V30 28 N 1.092238 -1.685930 0.652088 0
M  V30 29 C 2.193277 -2.287411 1.106728 0
M  V30 30 C 3.409006 -1.764616 0.720551 0
M  V30 31 C 4.579292 -4.553881 1.754211 0
M  V30 32 C 5.030794 -5.605768 2.559214 0
M  V30 33 N 6.031819 -5.419870 3.460680 0
M  V30 34 H 8.218041 -3.123244 4.425146 0
M  V30 35 H 8.459940 -4.880953 4.452317 0
M  V30 36 H 7.303286 -4.138288 5.625883 0
M  V30 37 H 6.668501 -2.152114 2.929179 0
M  V30 38 H 5.195771 0.351127 -0.855328 0
M  V30 39 H 2.397943 0.807952 -1.208630 0
M  V30 40 H -0.331183 -0.478061 -1.520125 0
M  V30 41 H -2.811461 2.325469 1.004910 0
M  V30 42 H -2.271768 3.550874 -0.212829 0
M  V30 43 H -4.289950 3.449545 -1.366809 0
M  V30 44 H -4.815096 3.075679 0.269891 0
M  V30 45 H -5.442571 -1.057286 -1.884927 0
M  V30 46 H -6.957774 -2.541533 -0.759856 0
M  V30 47 H -7.363694 0.214385 2.416420 0
M  V30 48 H -5.856500 1.719896 1.325083 0
M  V30 49 H -3.936784 2.052016 -2.966575 0
M  V30 50 H -4.281226 0.258130 -2.863987 0
M  V30 51 H -2.323827 -0.217098 -1.844630 0
M  V30 52 H -2.228476 1.828117 -3.895017 0
M  V30 53 H -1.180286 0.404907 -3.684987 0
M  V30 54 H -0.794592 1.989372 -2.856817 0
M  V30 55 H 2.128909 -3.153382 1.754531 0
M  V30 56 H 3.779152 -4.750907 1.050666 0
M  V30 57 H 4.609379 -6.615176 2.506373 0
M  V30 END ATOM
M  V30 BEGIN BOND
M  V30 1 1 1 2
M  V30 2 2 2 3
M  V30 3 1 3 4
M  V30 4 1 4 5
M  V30 5 2 5 6
M  V30 6 1 6 7
M  V30 7 1 7 8
M  V30 8 2 8 9
M  V30 9 1 9 10
M  V30 10 1 10 11
M  V30 11 1 11 12
M  V30 12 2 12 13
M  V30 13 1 12 14
M  V30 14 1 14 15
M  V30 15 1 15 16
M  V30 16 1 16 17
M  V30 17 1 17 18
M  V30 18 2 18 19
M  V30 19 1 19 20
M  V30 20 2 20 21
M  V30 21 1 21 22
M  V30 22 1 21 23
M  V30 23 2 23 24
M  V30 24 1 17 25
M  V30 25 1 25 26
M  V30 26 1 26 27
M  V30 27 2 10 28
M  V30 28 1 28 29
M  V30 29 2 29 30
M  V30 30 2 4 31
M  V30 31 1 31 32
M  V30 32 2 32 33
M  V30 33 1 33 2
M  V30 34 1 30 5
M  V30 35 1 30 8
M  V30 36 1 26 14
M  V30 37 1 24 18
M  V30 38 1 1 34
M  V30 39 1 1 35
M  V30 40 1 1 36
M  V30 41 1 3 37
M  V30 42 1 7 38
M  V30 43 1 9 39
M  V30 44 1 11 40
M  V30 45 1 15 41
M  V30 46 1 15 42
M  V30 47 1 16 43
M  V30 48 1 16 44
M  V30 49 1 19 45
M  V30 50 1 20 46
M  V30 51 1 23 47
M  V30 52 1 24 48
M  V30 53 1 25 49
M  V30 54 1 25 50
M  V30 55 1 26 51 CFG=1
M  V30 56 1 27 52
M  V30 57 1 27 53
M  V30 58 1 27 54
M  V30 59 1 29 55
M  V30 60 1 31 56
M  V30 61 1 32 57
M  V30 END BOND
M  V30 END CTAB
M  END
>  <Dataset>  (17) 
ChEMBL_Kinases

>  <Ligand_Instance>  (17) 
nan

>  <PDB_ID>  (17) 
nan

>  <Standardized_SMILES>  (17) 
Cc1cc(-c2n[nH]c3cc(NC(=O)N4CCN(c5ccc(F)cc5)C[C@H]4C)ncc23)ccn1

>  <Name>  (17) 
nan

>  <Pocket>  (17) 
nan

>  <ATP_Site>  (17) 
nan

>  <Peripheral>  (17) 
nan

>  <Num_H_Atoms_ProtBoundConf>  (17) 
nan

>  <Num_Resolved_Atoms>  (17) 
nan

>  <Num_Not_Resolved_Atoms>  (17) 
nan

$$$$
CHEMBL3658655
     RDKit          3D

  0  0  0  0  0  0  0  0  0  0999 V3000
M  V30 BEGIN CTAB
M  V30 COUNTS 50 54 0 0 0
M  V30 BEGIN ATOM
M  V30 1 C -0.505944 5.399796 -3.770511 0
M  V30 2 C 0.198340 4.230562 -4.357962 0
M  V30 3 C 0.860338 3.397288 -3.477096 0
M  V30 4 C 1.518473 2.307626 -4.010142 0
M  V30 5 C 2.277203 1.302187 -3.272344 0
M  V30 6 N 3.486348 0.828673 -3.625475 0
M  V30 7 N 3.918561 -0.067281 -2.767418 0
M  V30 8 C 2.989505 -0.220828 -1.795320 0
M  V30 9 C 2.863801 -0.986730 -0.654550 0
M  V30 10 C 1.729494 -0.892554 0.150821 0
M  V30 11 N 1.604700 -1.683567 1.324882 0
M  V30 12 C 0.489106 -1.638501 2.181314 0
M  V30 13 O -0.405948 -0.822457 1.812030 0
M  V30 14 N 0.378831 -2.447765 3.368210 0
M  V30 15 C -0.792578 -2.338271 4.183273 0
M  V30 16 C -0.492038 -1.885935 5.594319 0
M  V30 17 C -1.786247 -1.490701 6.261944 0
M  V30 18 O -2.887469 -2.247646 5.808445 0
M  V30 19 C -2.648456 -3.437530 5.149855 0
M  V30 20 C -3.488134 -4.543990 5.343311 0
M  V30 21 C -3.239095 -5.727016 4.679511 0
M  V30 22 F -4.036094 -6.811208 4.849510 0
M  V30 23 C -2.174275 -5.861855 3.817012 0
M  V30 24 C -1.342306 -4.781768 3.618844 0
M  V30 25 C -1.582510 -3.596639 4.276801 0
M  V30 26 N 0.750707 -0.039249 -0.199928 0
M  V30 27 C 0.833271 0.720150 -1.296410 0
M  V30 28 C 1.950502 0.636190 -2.101572 0
M  V30 29 C 1.490108 2.096370 -5.379611 0
M  V30 30 C 0.820259 2.945764 -6.237278 0
M  V30 31 N 0.192129 3.995141 -5.677871 0
M  V30 32 H -0.740347 6.177413 -4.497974 0
M  V30 33 H -1.419623 5.095341 -3.190928 0
M  V30 34 H 0.167691 5.872009 -3.012511 0
M  V30 35 H 0.922021 3.504166 -2.399994 0
M  V30 36 H 4.807930 -0.593531 -2.786109 0
M  V30 37 H 3.673662 -1.661912 -0.406130 0
M  V30 38 H 2.383248 -2.342083 1.576589 0
M  V30 39 H 1.159115 -3.106035 3.618174 0
M  V30 40 H -1.479547 -1.590059 3.734517 0
M  V30 41 H -0.056146 -2.702588 6.206535 0
M  V30 42 H 0.179165 -1.002899 5.589137 0
M  V30 43 H -1.679298 -1.605399 7.367470 0
M  V30 44 H -2.003517 -0.409608 6.070150 0
M  V30 45 H -4.347213 -4.496547 6.014459 0
M  V30 46 H -1.957104 -6.785636 3.281422 0
M  V30 47 H -0.483210 -4.775040 2.969335 0
M  V30 48 H 0.030843 1.393464 -1.548423 0
M  V30 49 H 1.983848 1.258499 -5.889500 0
M  V30 50 H 0.789417 2.790750 -7.323549 0
M  V30 END ATOM
M  V30 BEGIN BOND
M  V30 1 1 1 2
M  V30 2 2 2 3
M  V30 3 1 3 4
M  V30 4 1 4 5
M  V30 5 2 5 6
M  V30 6 1 6 7
M  V30 7 1 7 8
M  V30 8 2 8 9
M  V30 9 1 9 10
M  V30 10 1 10 11
M  V30 11 1 11 12
M  V30 12 2 12 13
M  V30 13 1 12 14
M  V30 14 1 14 15
M  V30 15 1 15 16
M  V30 16 1 16 17
M  V30 17 1 17 18
M  V30 18 1 18 19
M  V30 19 2 19 20
M  V30 20 1 20 21
M  V30 21 1 21 22
M  V30 22 2 21 23
M  V30 23 1 23 24
M  V30 24 2 24 25
M  V30 25 2 10 26
M  V30 26 1 26 27
M  V30 27 2 27 28
M  V30 28 2 4 29
M  V30 29 1 29 30
M  V30 30 2 30 31
M  V30 31 1 31 2
M  V30 32 1 28 5
M  V30 33 1 28 8
M  V30 34 1 25 15
M  V30 35 1 25 19
M  V30 36 1 1 32
M  V30 37 1 1 33
M  V30 38 1 1 34
M  V30 39 1 3 35
M  V30 40 1 7 36
M  V30 41 1 9 37
M  V30 42 1 11 38
M  V30 43 1 14 39
M  V30 44 1 15 40
M  V30 45 1 16 41
M  V30 46 1 16 42
M  V30 47 1 17 43
M  V30 48 1 17 44
M  V30 49 1 20 45
M  V30 50 1 23 46
M  V30 51 1 24 47
M  V30 52 1 27 48
M  V30 53 1 29 49
M  V30 54 1 30 50
M  V30 END BOND
M  V30 END CTAB
M  END
>  <Dataset>  (18) 
ChEMBL_Kinases

>  <Ligand_Instance>  (18) 
nan

>  <PDB_ID>  (18) 
nan

>  <Standardized_SMILES>  (18) 
Cc1cc(-c2n[nH]c3cc(NC(=O)NC4CCOc5cc(F)ccc54)ncc23)ccn1

>  <Name>  (18) 
nan

>  <Pocket>  (18) 
nan

>  <ATP_Site>  (18) 
nan

>  <Peripheral>  (18) 
nan

>  <Num_H_Atoms_ProtBoundConf>  (18) 
nan

>  <Num_Resolved_Atoms>  (18) 
nan

>  <Num_Not_Resolved_Atoms>  (18) 
nan

$$$$
CHEMBL3658654
     RDKit          3D

  0  0  0  0  0  0  0  0  0  0999 V3000
M  V30 BEGIN CTAB
M  V30 COUNTS 53 57 0 0 0
M  V30 BEGIN ATOM
M  V30 1 C 3.012225 -3.087998 7.868979 0
M  V30 2 C 2.434331 -3.987363 6.832705 0
M  V30 3 C 2.514962 -3.646291 5.479353 0
M  V30 4 C 1.977140 -4.485336 4.525304 0
M  V30 5 C 2.053766 -4.141021 3.104996 0
M  V30 6 N 2.405688 -5.004095 2.112325 0
M  V30 7 N 2.377747 -4.378099 0.925839 0
M  V30 8 C 2.004648 -3.106860 1.169327 0
M  V30 9 C 1.820147 -2.043589 0.300676 0
M  V30 10 C 1.427621 -0.827509 0.829993 0
M  V30 11 N 1.197615 0.367257 0.036815 0
M  V30 12 C -0.170206 0.418039 -0.382402 0
M  V30 13 O -1.074124 -0.438215 -0.117793 0
M  V30 14 N -0.637362 1.500035 -1.173700 0
M  V30 15 C -2.007666 1.661105 -1.661438 0 CFG=1
M  V30 16 C -2.677338 2.827268 -1.028142 0
M  V30 17 C -3.052560 3.943452 -1.942743 0
M  V30 18 C -4.372975 3.584131 -2.613763 0
M  V30 19 O -4.050705 2.885964 -3.797483 0
M  V30 20 C -2.943468 2.096887 -4.076254 0
M  V30 21 C -2.741325 1.838827 -5.436352 0
M  V30 22 C -1.678199 1.068625 -5.849040 0
M  V30 23 C -0.803533 0.547333 -4.898327 0
M  V30 24 C -1.024626 0.817795 -3.546073 0
M  V30 25 C -2.088412 1.589348 -3.123022 0
M  V30 26 N 1.224546 -0.665330 2.165427 0
M  V30 27 C 1.396113 -1.685249 3.044058 0
M  V30 28 C 1.788317 -2.902959 2.521097 0
M  V30 29 C 1.368961 -5.654836 4.980188 0
M  V30 30 C 1.309959 -5.956860 6.334842 0
M  V30 31 N 1.836040 -5.130305 7.227781 0
M  V30 32 H 4.050156 -3.333229 8.142326 0
M  V30 33 H 2.899294 -2.028777 7.541665 0
M  V30 34 H 2.385116 -3.203319 8.785071 0
M  V30 35 H 3.000206 -2.732109 5.243050 0
M  V30 36 H 2.596090 -4.779383 0.005196 0
M  V30 37 H 1.963805 -2.096490 -0.784050 0
M  V30 38 H 1.808946 1.175993 -0.282048 0
M  V30 39 H -0.010467 2.287639 -1.474681 0
M  V30 40 H -2.542228 0.747965 -1.264114 0
M  V30 41 H -1.978987 3.241421 -0.243868 0
M  V30 42 H -3.593571 2.558630 -0.434151 0
M  V30 43 H -3.270902 4.837166 -1.299056 0
M  V30 44 H -2.259626 4.154085 -2.691813 0
M  V30 45 H -4.993968 4.475691 -2.792174 0
M  V30 46 H -4.912852 2.876658 -1.953596 0
M  V30 47 H -3.500007 2.307384 -6.071166 0
M  V30 48 H -1.605769 0.925831 -6.916051 0
M  V30 49 H 0.014125 -0.050561 -5.279116 0
M  V30 50 H -0.296159 0.373878 -2.866332 0
M  V30 51 H 1.237332 -1.568305 4.107556 0
M  V30 52 H 0.952525 -6.299625 4.207363 0
M  V30 53 H 0.815678 -6.888672 6.574420 0
M  V30 END ATOM
M  V30 BEGIN BOND
M  V30 1 1 1 2
M  V30 2 2 2 3
M  V30 3 1 3 4
M  V30 4 1 4 5
M  V30 5 2 5 6
M  V30 6 1 6 7
M  V30 7 1 7 8
M  V30 8 2 8 9
M  V30 9 1 9 10
M  V30 10 1 10 11
M  V30 11 1 11 12
M  V30 12 2 12 13
M  V30 13 1 12 14
M  V30 14 1 14 15
M  V30 15 1 15 16
M  V30 16 1 16 17
M  V30 17 1 17 18
M  V30 18 1 18 19
M  V30 19 1 19 20
M  V30 20 2 20 21
M  V30 21 1 21 22
M  V30 22 2 22 23
M  V30 23 1 23 24
M  V30 24 2 24 25
M  V30 25 2 10 26
M  V30 26 1 26 27
M  V30 27 2 27 28
M  V30 28 2 4 29
M  V30 29 1 29 30
M  V30 30 2 30 31
M  V30 31 1 31 2
M  V30 32 1 28 5
M  V30 33 1 28 8
M  V30 34 1 25 15
M  V30 35 1 25 20
M  V30 36 1 1 32
M  V30 37 1 1 33
M  V30 38 1 1 34
M  V30 39 1 3 35
M  V30 40 1 7 36
M  V30 41 1 9 37
M  V30 42 1 11 38
M  V30 43 1 14 39
M  V30 44 1 15 40 CFG=1
M  V30 45 1 16 41
M  V30 46 1 16 42
M  V30 47 1 17 43
M  V30 48 1 17 44
M  V30 49 1 18 45
M  V30 50 1 18 46
M  V30 51 1 21 47
M  V30 52 1 22 48
M  V30 53 1 23 49
M  V30 54 1 24 50
M  V30 55 1 27 51
M  V30 56 1 29 52
M  V30 57 1 30 53
M  V30 END BOND
M  V30 END CTAB
M  END
>  <Dataset>  (19) 
ChEMBL_Kinases

>  <Ligand_Instance>  (19) 
nan

>  <PDB_ID>  (19) 
nan

>  <Standardized_SMILES>  (19) 
Cc1cc(-c2n[nH]c3cc(NC(=O)N[C@H]4CCCOc5ccccc54)ncc23)ccn1

>  <Name>  (19) 
nan

>  <Pocket>  (19) 
nan

>  <ATP_Site>  (19) 
nan

>  <Peripheral>  (19) 
nan

>  <Num_H_Atoms_ProtBoundConf>  (19) 
nan

>  <Num_Resolved_Atoms>  (19) 
nan

>  <Num_Not_Resolved_Atoms>  (19) 
nan

$$$$
CHEMBL3658653
     RDKit          3D

  0  0  0  0  0  0  0  0  0  0999 V3000
M  V30 BEGIN CTAB
M  V30 COUNTS 49 53 0 0 0
M  V30 BEGIN ATOM
M  V30 1 C 3.227482 -7.667166 0.819532 0
M  V30 2 C 3.152365 -6.890255 -0.452425 0
M  V30 3 C 2.918769 -5.532056 -0.505127 0
M  V30 4 C 2.865509 -4.894417 -1.726921 0
M  V30 5 C 2.622234 -3.461799 -1.848398 0
M  V30 6 N 3.279584 -2.588042 -2.637266 0
M  V30 7 N 2.797182 -1.363792 -2.497506 0
M  V30 8 C 1.803100 -1.447908 -1.595795 0
M  V30 9 C 1.003580 -0.424897 -1.127323 0
M  V30 10 C 0.043518 -0.760765 -0.196537 0
M  V30 11 N -0.907518 0.086190 0.447893 0
M  V30 12 C -0.761023 0.799138 1.666273 0
M  V30 13 O 0.333069 0.657126 2.225361 0
M  V30 14 N -1.872190 1.559138 2.060484 0
M  V30 15 C -1.893950 2.337237 3.260784 0
M  V30 16 C -3.111893 2.158546 4.115091 0
M  V30 17 C -4.190770 2.859742 3.377508 0
M  V30 18 C -3.471016 4.081804 2.875275 0
M  V30 19 C -3.893890 5.341875 2.505715 0
M  V30 20 C -2.978943 6.299309 2.067542 0
M  V30 21 Cl -3.586969 7.873773 1.615912 0
M  V30 22 C -1.629088 5.948057 2.013732 0
M  V30 23 C -1.205699 4.677718 2.386677 0
M  V30 24 C -2.112569 3.745947 2.815200 0
M  V30 25 N -0.074303 -2.039743 0.209070 0
M  V30 26 C 0.688486 -3.048193 -0.230239 0
M  V30 27 C 1.660098 -2.750179 -1.162361 0
M  V30 28 C 3.055586 -5.681562 -2.857132 0
M  V30 29 C 3.289650 -7.044775 -2.795904 0
M  V30 30 N 3.335900 -7.642168 -1.573804 0
M  V30 31 H 2.284569 -8.242683 0.964103 0
M  V30 32 H 4.104476 -8.376335 0.810804 0
M  V30 33 H 3.337230 -7.003333 1.695995 0
M  V30 34 H 2.781689 -4.990582 0.406532 0
M  V30 35 H 3.142534 -0.498361 -3.007626 0
M  V30 36 H 1.017695 0.608360 -1.383074 0
M  V30 37 H -1.773855 0.090006 -0.164509 0
M  V30 38 H -2.758034 1.609119 1.506088 0
M  V30 39 H -0.952904 2.275597 3.836437 0
M  V30 40 H -3.317573 1.135724 4.439904 0
M  V30 41 H -2.930652 2.750499 5.042068 0
M  V30 42 H -4.988400 3.206753 4.094829 0
M  V30 43 H -4.706162 2.309951 2.594915 0
M  V30 44 H -4.977160 5.521864 2.583135 0
M  V30 45 H -0.930348 6.721888 1.664770 0
M  V30 46 H -0.153929 4.434951 2.334356 0
M  V30 47 H 0.585020 -4.072512 0.102689 0
M  V30 48 H 3.010720 -5.166492 -3.804885 0
M  V30 49 H 3.431692 -7.609750 -3.726240 0
M  V30 END ATOM
M  V30 BEGIN BOND
M  V30 1 1 1 2
M  V30 2 2 2 3
M  V30 3 1 3 4
M  V30 4 1 4 5
M  V30 5 2 5 6
M  V30 6 1 6 7
M  V30 7 1 7 8
M  V30 8 2 8 9
M  V30 9 1 9 10
M  V30 10 1 10 11
M  V30 11 1 11 12
M  V30 12 2 12 13
M  V30 13 1 12 14
M  V30 14 1 14 15
M  V30 15 1 15 16
M  V30 16 1 16 17
M  V30 17 1 17 18
M  V30 18 2 18 19
M  V30 19 1 19 20
M  V30 20 1 20 21
M  V30 21 2 20 22
M  V30 22 1 22 23
M  V30 23 2 23 24
M  V30 24 2 10 25
M  V30 25 1 25 26
M  V30 26 2 26 27
M  V30 27 2 4 28
M  V30 28 1 28 29
M  V30 29 2 29 30
M  V30 30 1 30 2
M  V30 31 1 27 5
M  V30 32 1 27 8
M  V30 33 1 24 15
M  V30 34 1 24 18
M  V30 35 1 1 31
M  V30 36 1 1 32
M  V30 37 1 1 33
M  V30 38 1 3 34
M  V30 39 1 7 35
M  V30 40 1 9 36
M  V30 41 1 11 37
M  V30 42 1 14 38
M  V30 43 1 15 39
M  V30 44 1 16 40
M  V30 45 1 16 41
M  V30 46 1 17 42
M  V30 47 1 17 43
M  V30 48 1 19 44
M  V30 49 1 22 45
M  V30 50 1 23 46
M  V30 51 1 26 47
M  V30 52 1 28 48
M  V30 53 1 29 49
M  V30 END BOND
M  V30 END CTAB
M  END
>  <Dataset>  (20) 
ChEMBL_Kinases

>  <Ligand_Instance>  (20) 
nan

>  <PDB_ID>  (20) 
nan

>  <Standardized_SMILES>  (20) 
Cc1cc(-c2n[nH]c3cc(NC(=O)NC4CCc5cc(Cl)ccc54)ncc23)ccn1

>  <Name>  (20) 
nan

>  <Pocket>  (20) 
nan

>  <ATP_Site>  (20) 
nan

>  <Peripheral>  (20) 
nan

>  <Num_H_Atoms_ProtBoundConf>  (20) 
nan

>  <Num_Resolved_Atoms>  (20) 
nan

>  <Num_Not_Resolved_Atoms>  (20) 
nan

$$$$
CHEMBL3658635
     RDKit          3D

  0  0  0  0  0  0  0  0  0  0999 V3000
M  V30 BEGIN CTAB
M  V30 COUNTS 55 59 0 0 0
M  V30 BEGIN ATOM
M  V30 1 C 3.241712 -5.128122 5.586032 0
M  V30 2 C 4.294608 -4.626235 4.653321 0
M  V30 3 C 4.106756 -3.460908 3.974156 0
M  V30 4 C 5.038895 -2.930233 3.090250 0
M  V30 5 C 4.818176 -1.678076 2.371133 0
M  V30 6 N 5.736547 -0.705958 2.241814 0
M  V30 7 N 5.268740 0.318678 1.540311 0
M  V30 8 C 3.996115 0.052312 1.173838 0
M  V30 9 C 2.994591 0.682503 0.461399 0
M  V30 10 C 1.762872 0.090599 0.275399 0
M  V30 11 N 0.714790 0.719865 -0.454878 0
M  V30 12 C -0.543349 0.076834 -0.625507 0
M  V30 13 O -0.672196 -1.060605 -0.102006 0
M  V30 14 N -1.598475 0.692739 -1.351775 0
M  V30 15 C -2.853404 -0.020858 -1.485526 0 CFG=2
M  V30 16 C -3.151432 -0.410143 -2.919892 0
M  V30 17 C -3.245079 0.849730 -3.725105 0
M  V30 18 C -4.623100 1.462682 -3.720915 0
M  V30 19 C -4.850042 2.372236 -2.544812 0
M  V30 20 C -4.839502 1.670764 -1.253308 0
M  V30 21 C -5.850800 2.150933 -0.423489 0
M  V30 22 C -6.031607 1.633422 0.851245 0
M  V30 23 C -5.206798 0.623480 1.328750 0
M  V30 24 C -4.230955 0.201426 0.450956 0
M  V30 25 C -3.983110 0.668939 -0.844872 0
M  V30 26 N 1.555371 -1.134993 0.812537 0
M  V30 27 C 2.478053 -1.802495 1.512776 0
M  V30 28 C 3.704438 -1.193881 1.688238 0
M  V30 29 C 6.211570 -3.636200 2.903816 0
M  V30 30 C 6.401953 -4.819884 3.593921 0
M  V30 31 N 5.452541 -5.279984 4.440024 0
M  V30 32 H 2.823411 -4.266442 6.176927 0
M  V30 33 H 2.382336 -5.552421 5.034028 0
M  V30 34 H 3.629995 -5.858188 6.301481 0
M  V30 35 H 3.204476 -2.907995 4.111042 0
M  V30 36 H 5.687088 1.221636 1.249080 0
M  V30 37 H 3.201004 1.657947 0.050137 0
M  V30 38 H 0.902982 1.666282 -0.858586 0
M  V30 39 H -1.418352 1.623147 -1.750549 0
M  V30 40 H -2.737736 -1.003040 -0.944075 0
M  V30 41 H -2.426568 -1.133798 -3.290249 0
M  V30 42 H -4.163587 -0.889711 -2.883573 0
M  V30 43 H -2.509590 1.613667 -3.473953 0
M  V30 44 H -3.044878 0.554969 -4.784944 0
M  V30 45 H -5.415442 0.720749 -3.838561 0
M  V30 46 H -4.673328 2.111152 -4.630802 0
M  V30 47 H -4.115760 3.198526 -2.571701 0
M  V30 48 H -5.863004 2.829961 -2.718679 0
M  V30 49 H -6.530765 2.936893 -0.730079 0
M  V30 50 H -6.807060 1.985666 1.517324 0
M  V30 51 H -5.268622 0.163679 2.292655 0
M  V30 52 H -3.556068 -0.597477 0.790411 0
M  V30 53 H 2.241814 -2.785167 1.915938 0
M  V30 54 H 6.969618 -3.251229 2.216385 0
M  V30 55 H 7.335238 -5.358307 3.429764 0
M  V30 END ATOM
M  V30 BEGIN BOND
M  V30 1 1 1 2
M  V30 2 2 2 3
M  V30 3 1 3 4
M  V30 4 1 4 5
M  V30 5 2 5 6
M  V30 6 1 6 7
M  V30 7 1 7 8
M  V30 8 2 8 9
M  V30 9 1 9 10
M  V30 10 1 10 11
M  V30 11 1 11 12
M  V30 12 2 12 13
M  V30 13 1 12 14
M  V30 14 1 14 15
M  V30 15 1 15 16
M  V30 16 1 16 17
M  V30 17 1 17 18
M  V30 18 1 18 19
M  V30 19 1 19 20
M  V30 20 2 20 21
M  V30 21 1 21 22
M  V30 22 2 22 23
M  V30 23 1 23 24
M  V30 24 2 24 25
M  V30 25 2 10 26
M  V30 26 1 26 27
M  V30 27 2 27 28
M  V30 28 2 4 29
M  V30 29 1 29 30
M  V30 30 2 30 31
M  V30 31 1 31 2
M  V30 32 1 28 5
M  V30 33 1 28 8
M  V30 34 1 25 15
M  V30 35 1 25 20
M  V30 36 1 1 32
M  V30 37 1 1 33
M  V30 38 1 1 34
M  V30 39 1 3 35
M  V30 40 1 7 36
M  V30 41 1 9 37
M  V30 42 1 11 38
M  V30 43 1 14 39
M  V30 44 1 15 40 CFG=1
M  V30 45 1 16 41
M  V30 46 1 16 42
M  V30 47 1 17 43
M  V30 48 1 17 44
M  V30 49 1 18 45
M  V30 50 1 18 46
M  V30 51 1 19 47
M  V30 52 1 19 48
M  V30 53 1 21 49
M  V30 54 1 22 50
M  V30 55 1 23 51
M  V30 56 1 24 52
M  V30 57 1 27 53
M  V30 58 1 29 54
M  V30 59 1 30 55
M  V30 END BOND
M  V30 END CTAB
M  END
>  <Dataset>  (21) 
ChEMBL_Kinases

>  <Ligand_Instance>  (21) 
nan

>  <PDB_ID>  (21) 
nan

>  <Standardized_SMILES>  (21) 
Cc1cc(-c2n[nH]c3cc(NC(=O)N[C@@H]4CCCCc5ccccc54)ncc23)ccn1

>  <Name>  (21) 
nan

>  <Pocket>  (21) 
nan

>  <ATP_Site>  (21) 
nan

>  <Peripheral>  (21) 
nan

>  <Num_H_Atoms_ProtBoundConf>  (21) 
nan

>  <Num_Resolved_Atoms>  (21) 
nan

>  <Num_Not_Resolved_Atoms>  (21) 
nan

$$$$
CHEMBL3658636
     RDKit          3D

  0  0  0  0  0  0  0  0  0  0999 V3000
M  V30 BEGIN CTAB
M  V30 COUNTS 51 55 0 0 0
M  V30 BEGIN ATOM
M  V30 1 C 1.614576 -5.727867 5.779739 0
M  V30 2 C 2.373547 -4.457458 5.958128 0
M  V30 3 C 1.957972 -3.254392 5.467967 0
M  V30 4 C 2.658819 -2.074400 5.631494 0
M  V30 5 C 2.203284 -0.810264 5.105342 0
M  V30 6 N 2.271399 0.274633 5.918817 0
M  V30 7 N 1.810175 1.337949 5.260514 0
M  V30 8 C 1.442063 0.944284 4.018666 0
M  V30 9 C 0.905609 1.525455 2.875547 0
M  V30 10 C 0.650979 0.774232 1.741059 0
M  V30 11 N 0.101514 1.390233 0.581248 0
M  V30 12 C -0.203126 0.738915 -0.626493 0
M  V30 13 O 0.050834 -0.484346 -0.622390 0
M  V30 14 N -0.743221 1.328262 -1.777524 0
M  V30 15 C -0.999017 0.536069 -2.930360 0 CFG=2
M  V30 16 C -0.047688 1.032305 -4.032397 0
M  V30 17 C 0.013331 0.004241 -5.124912 0
M  V30 18 O -1.243585 -0.580515 -5.280032 0
M  V30 19 C -2.355887 -0.065019 -4.666371 0
M  V30 20 C -3.559305 -0.186698 -5.386588 0
M  V30 21 C -4.732257 0.300905 -4.850364 0
M  V30 22 C -6.000836 0.216518 -5.518605 0
M  V30 23 N -7.027597 0.156194 -6.074941 0
M  V30 24 C -4.739288 0.915319 -3.598332 0
M  V30 25 C -3.557623 1.031939 -2.897196 0
M  V30 26 C -2.388168 0.546498 -3.430563 0
M  V30 27 N 0.913324 -0.547949 1.701821 0
M  V30 28 C 1.440354 -1.194157 2.781277 0
M  V30 29 C 1.680177 -0.418401 3.889214 0
M  V30 30 C 3.845499 -2.203938 6.348041 0
M  V30 31 C 4.282780 -3.431434 6.855934 0
M  V30 32 N 3.540185 -4.558631 6.657183 0
M  V30 33 H 1.645860 -6.360233 6.685061 0
M  V30 34 H 2.049804 -6.339910 4.954394 0
M  V30 35 H 0.559148 -5.556440 5.506017 0
M  V30 36 H 1.035282 -3.271524 4.935502 0
M  V30 37 H 1.673767 2.353693 5.470194 0
M  V30 38 H 0.698116 2.586889 2.915770 0
M  V30 39 H -0.106853 2.429922 0.598796 0
M  V30 40 H -0.936628 2.353168 -1.728294 0
M  V30 41 H -0.715527 -0.515674 -2.733773 0
M  V30 42 H -0.544876 1.936621 -4.492038 0
M  V30 43 H 0.926361 1.288001 -3.588431 0
M  V30 44 H 0.404026 0.444404 -6.074158 0
M  V30 45 H 0.778996 -0.755061 -4.764283 0
M  V30 46 H -3.700336 -0.642120 -6.372137 0
M  V30 47 H -5.591332 1.332536 -3.080196 0
M  V30 48 H -3.376953 1.473525 -1.924122 0
M  V30 49 H 1.656516 -2.238833 2.774820 0
M  V30 50 H 4.415270 -1.287740 6.490022 0
M  V30 51 H 5.218239 -3.416417 7.396591 0
M  V30 END ATOM
M  V30 BEGIN BOND
M  V30 1 1 1 2
M  V30 2 2 2 3
M  V30 3 1 3 4
M  V30 4 1 4 5
M  V30 5 2 5 6
M  V30 6 1 6 7
M  V30 7 1 7 8
M  V30 8 2 8 9
M  V30 9 1 9 10
M  V30 10 1 10 11
M  V30 11 1 11 12
M  V30 12 2 12 13
M  V30 13 1 12 14
M  V30 14 1 14 15
M  V30 15 1 15 16
M  V30 16 1 16 17
M  V30 17 1 17 18
M  V30 18 1 18 19
M  V30 19 2 19 20
M  V30 20 1 20 21
M  V30 21 1 21 22
M  V30 22 3 22 23
M  V30 23 2 21 24
M  V30 24 1 24 25
M  V30 25 2 25 26
M  V30 26 2 10 27
M  V30 27 1 27 28
M  V30 28 2 28 29
M  V30 29 2 4 30
M  V30 30 1 30 31
M  V30 31 2 31 32
M  V30 32 1 32 2
M  V30 33 1 29 5
M  V30 34 1 29 8
M  V30 35 1 26 15
M  V30 36 1 26 19
M  V30 37 1 1 33
M  V30 38 1 1 34
M  V30 39 1 1 35
M  V30 40 1 3 36
M  V30 41 1 7 37
M  V30 42 1 9 38
M  V30 43 1 11 39
M  V30 44 1 14 40
M  V30 45 1 15 41 CFG=1
M  V30 46 1 16 42
M  V30 47 1 16 43
M  V30 48 1 17 44
M  V30 49 1 17 45
M  V30 50 1 20 46
M  V30 51 1 24 47
M  V30 52 1 25 48
M  V30 53 1 28 49
M  V30 54 1 30 50
M  V30 55 1 31 51
M  V30 END BOND
M  V30 END CTAB
M  END
>  <Dataset>  (22) 
ChEMBL_Kinases

>  <Ligand_Instance>  (22) 
nan

>  <PDB_ID>  (22) 
nan

>  <Standardized_SMILES>  (22) 
Cc1cc(-c2n[nH]c3cc(NC(=O)N[C@@H]4CCOc5cc(C#N)ccc54)ncc23)ccn1

>  <Name>  (22) 
nan

>  <Pocket>  (22) 
nan

>  <ATP_Site>  (22) 
nan

>  <Peripheral>  (22) 
nan

>  <Num_H_Atoms_ProtBoundConf>  (22) 
nan

>  <Num_Resolved_Atoms>  (22) 
nan

>  <Num_Not_Resolved_Atoms>  (22) 
nan

$$$$
CHEMBL3658637
     RDKit          3D

  0  0  0  0  0  0  0  0  0  0999 V3000
M  V30 BEGIN CTAB
M  V30 COUNTS 50 54 0 0 0
M  V30 BEGIN ATOM
M  V30 1 C 2.142907 -3.484720 -6.017156 0
M  V30 2 C 3.120138 -3.725163 -4.921694 0
M  V30 3 C 2.820312 -3.494358 -3.594919 0
M  V30 4 C 3.690648 -3.701306 -2.543133 0
M  V30 5 C 3.318844 -3.439230 -1.153966 0
M  V30 6 N 3.565182 -4.251070 -0.102531 0
M  V30 7 N 3.097787 -3.719920 1.020832 0
M  V30 8 C 2.537636 -2.540846 0.690856 0
M  V30 9 C 1.912501 -1.603506 1.492246 0
M  V30 10 C 1.419659 -0.463270 0.884246 0
M  V30 11 N 0.744651 0.621254 1.526048 0
M  V30 12 C -0.673577 0.541685 1.634260 0
M  V30 13 O -1.286513 -0.460028 1.172317 0
M  V30 14 N -1.429449 1.562312 2.250977 0
M  V30 15 C -2.877793 1.566333 2.406352 0 CFG=2
M  V30 16 C -3.415845 2.673010 1.529337 0
M  V30 17 C -3.630472 3.941995 2.350664 0
M  V30 18 O -4.452965 3.693744 3.479961 0
M  V30 19 C -4.078451 2.706261 4.383885 0
M  V30 20 C -4.395242 2.667382 5.723043 0
M  V30 21 C -3.967950 1.633888 6.530191 0
M  V30 22 F -4.336639 1.689567 7.845853 0
M  V30 23 C -3.210704 0.627149 5.975601 0
M  V30 24 C -2.883423 0.649231 4.635618 0
M  V30 25 C -3.311362 1.691536 3.809812 0
M  V30 26 N 1.545824 -0.269350 -0.461147 0
M  V30 27 C 2.154264 -1.176035 -1.258495 0
M  V30 28 C 2.655988 -2.324520 -0.677574 0
M  V30 29 C 4.957422 -4.179717 -2.888603 0
M  V30 30 C 5.250583 -4.410143 -4.236192 0
M  V30 31 N 4.349523 -4.185567 -5.215828 0
M  V30 32 H 2.149040 -4.385509 -6.697141 0
M  V30 33 H 1.104120 -3.435543 -5.644482 0
M  V30 34 H 2.414668 -2.625583 -6.665556 0
M  V30 35 H 1.819789 -3.125110 -3.412751 0
M  V30 36 H 3.137611 -4.112408 1.998017 0
M  V30 37 H 1.768490 -1.668718 2.545521 0
M  V30 38 H 1.241272 1.466987 1.918279 0
M  V30 39 H -0.869730 2.373662 2.618425 0
M  V30 40 H -3.258994 0.609491 1.943621 0
M  V30 41 H -2.684440 2.929426 0.744935 0
M  V30 42 H -4.398643 2.410665 1.083864 0
M  V30 43 H -2.678031 4.422752 2.639441 0
M  V30 44 H -4.149631 4.676276 1.681597 0
M  V30 45 H -4.995868 3.515463 6.043611 0
M  V30 46 H -2.903144 -0.160303 6.661394 0
M  V30 47 H -2.285565 -0.205415 4.341717 0
M  V30 48 H 2.259153 -1.031392 -2.325553 0
M  V30 49 H 5.659520 -4.351077 -2.086865 0
M  V30 50 H 6.238423 -4.781700 -4.489672 0
M  V30 END ATOM
M  V30 BEGIN BOND
M  V30 1 1 1 2
M  V30 2 2 2 3
M  V30 3 1 3 4
M  V30 4 1 4 5
M  V30 5 2 5 6
M  V30 6 1 6 7
M  V30 7 1 7 8
M  V30 8 2 8 9
M  V30 9 1 9 10
M  V30 10 1 10 11
M  V30 11 1 11 12
M  V30 12 2 12 13
M  V30 13 1 12 14
M  V30 14 1 14 15
M  V30 15 1 15 16
M  V30 16 1 16 17
M  V30 17 1 17 18
M  V30 18 1 18 19
M  V30 19 2 19 20
M  V30 20 1 20 21
M  V30 21 1 21 22
M  V30 22 2 21 23
M  V30 23 1 23 24
M  V30 24 2 24 25
M  V30 25 2 10 26
M  V30 26 1 26 27
M  V30 27 2 27 28
M  V30 28 2 4 29
M  V30 29 1 29 30
M  V30 30 2 30 31
M  V30 31 1 31 2
M  V30 32 1 28 5
M  V30 33 1 28 8
M  V30 34 1 25 15
M  V30 35 1 25 19
M  V30 36 1 1 32
M  V30 37 1 1 33
M  V30 38 1 1 34
M  V30 39 1 3 35
M  V30 40 1 7 36
M  V30 41 1 9 37
M  V30 42 1 11 38
M  V30 43 1 14 39
M  V30 44 1 15 40 CFG=3
M  V30 45 1 16 41
M  V30 46 1 16 42
M  V30 47 1 17 43
M  V30 48 1 17 44
M  V30 49 1 20 45
M  V30 50 1 23 46
M  V30 51 1 24 47
M  V30 52 1 27 48
M  V30 53 1 29 49
M  V30 54 1 30 50
M  V30 END BOND
M  V30 END CTAB
M  END
>  <Dataset>  (23) 
ChEMBL_Kinases

>  <Ligand_Instance>  (23) 
nan

>  <PDB_ID>  (23) 
nan

>  <Standardized_SMILES>  (23) 
Cc1cc(-c2n[nH]c3cc(NC(=O)N[C@@H]4CCOc5cc(F)ccc54)ncc23)ccn1

>  <Name>  (23) 
nan

>  <Pocket>  (23) 
nan

>  <ATP_Site>  (23) 
nan

>  <Peripheral>  (23) 
nan

>  <Num_H_Atoms_ProtBoundConf>  (23) 
nan

>  <Num_Resolved_Atoms>  (23) 
nan

>  <Num_Not_Resolved_Atoms>  (23) 
nan

$$$$
CHEMBL3658638
     RDKit          3D

  0  0  0  0  0  0  0  0  0  0999 V3000
M  V30 BEGIN CTAB
M  V30 COUNTS 56 60 0 0 0
M  V30 BEGIN ATOM
M  V30 1 C 6.785491 -5.593573 1.233209 0
M  V30 2 C 5.892245 -4.643623 1.954010 0
M  V30 3 C 5.603826 -3.354370 1.519877 0
M  V30 4 C 4.765081 -2.521355 2.236537 0
M  V30 5 C 4.556563 -1.196909 1.655625 0
M  V30 6 N 5.507483 -0.366454 1.139320 0
M  V30 7 N 4.932745 0.756859 0.701930 0
M  V30 8 C 3.614450 0.631537 0.944616 0
M  V30 9 C 2.611315 1.543276 0.664793 0
M  V30 10 C 1.308002 1.216586 0.998126 0
M  V30 11 N 0.122796 1.983473 0.809438 0
M  V30 12 C -0.663136 1.881569 -0.394884 0
M  V30 13 O -0.189632 1.055623 -1.237651 0
M  V30 14 N -1.856779 2.600985 -0.678645 0
M  V30 15 C -2.577350 2.443548 -1.895165 0
M  V30 16 C -3.091486 1.092821 -2.218607 0
M  V30 17 C -4.047404 0.509987 -1.241001 0
M  V30 18 C -4.515096 1.134750 -0.109457 0
M  V30 19 C -5.398409 0.576370 0.785761 0
M  V30 20 C -5.867801 -0.687573 0.570436 0
M  V30 21 O -6.757472 -1.378375 1.379851 0
M  V30 22 C -6.426076 -2.208633 2.449908 0
M  V30 23 F -5.634226 -3.237259 1.956234 0
M  V30 24 F -5.766622 -1.581997 3.481314 0
M  V30 25 F -7.568176 -2.786167 2.945008 0
M  V30 26 C -5.433426 -1.383497 -0.563179 0
M  V30 27 C -4.534762 -0.783267 -1.451050 0
M  V30 28 C -3.648048 1.005300 -3.658109 0
M  V30 29 C -2.459732 0.235762 -3.249670 0
M  V30 30 N 1.059657 0.027941 1.581089 0
M  V30 31 C 2.014216 -0.884042 1.867842 0
M  V30 32 C 3.325193 -0.579953 1.543804 0
M  V30 33 C 4.202835 -2.985266 3.410907 0
M  V30 34 C 4.528991 -4.273372 3.786637 0
M  V30 35 N 5.332547 -5.071158 3.099771 0
M  V30 36 H 7.301464 -5.120810 0.386665 0
M  V30 37 H 6.127957 -6.430144 0.885869 0
M  V30 38 H 7.465720 -6.036648 1.990987 0
M  V30 39 H 6.102903 -3.109084 0.590715 0
M  V30 40 H 5.445444 1.558175 0.260426 0
M  V30 41 H 2.708793 2.516031 0.202594 0
M  V30 42 H -0.221067 2.640617 1.522859 0
M  V30 43 H -2.068211 3.232506 0.150981 0
M  V30 44 H -1.917053 2.827358 -2.724979 0
M  V30 45 H -3.443783 3.145444 -1.855849 0
M  V30 46 H -4.171342 2.136886 0.096693 0
M  V30 47 H -5.743623 1.090081 1.658565 0
M  V30 48 H -5.794612 -2.404822 -0.763637 0
M  V30 49 H -4.255285 -1.394682 -2.298127 0
M  V30 50 H -4.609800 0.511408 -3.834770 0
M  V30 51 H -3.479233 1.853896 -4.342955 0
M  V30 52 H -1.464629 0.603575 -3.621460 0
M  V30 53 H -2.516604 -0.849755 -3.201460 0
M  V30 54 H 1.808128 -1.837314 2.336342 0
M  V30 55 H 3.552205 -2.301341 3.941106 0
M  V30 56 H 4.068332 -4.616783 4.723655 0
M  V30 END ATOM
M  V30 BEGIN BOND
M  V30 1 1 1 2
M  V30 2 2 2 3
M  V30 3 1 3 4
M  V30 4 1 4 5
M  V30 5 2 5 6
M  V30 6 1 6 7
M  V30 7 1 7 8
M  V30 8 2 8 9
M  V30 9 1 9 10
M  V30 10 1 10 11
M  V30 11 1 11 12
M  V30 12 2 12 13
M  V30 13 1 12 14
M  V30 14 1 14 15
M  V30 15 1 15 16
M  V30 16 1 16 17
M  V30 17 2 17 18
M  V30 18 1 18 19
M  V30 19 2 19 20
M  V30 20 1 20 21
M  V30 21 1 21 22
M  V30 22 1 22 23
M  V30 23 1 22 24
M  V30 24 1 22 25
M  V30 25 1 20 26
M  V30 26 2 26 27
M  V30 27 1 16 28
M  V30 28 1 28 29
M  V30 29 2 10 30
M  V30 30 1 30 31
M  V30 31 2 31 32
M  V30 32 2 4 33
M  V30 33 1 33 34
M  V30 34 2 34 35
M  V30 35 1 35 2
M  V30 36 1 32 5
M  V30 37 1 32 8
M  V30 38 1 29 16
M  V30 39 1 27 17
M  V30 40 1 1 36
M  V30 41 1 1 37
M  V30 42 1 1 38
M  V30 43 1 3 39
M  V30 44 1 7 40
M  V30 45 1 9 41
M  V30 46 1 11 42
M  V30 47 1 14 43
M  V30 48 1 15 44
M  V30 49 1 15 45
M  V30 50 1 18 46
M  V30 51 1 19 47
M  V30 52 1 26 48
M  V30 53 1 27 49
M  V30 54 1 28 50
M  V30 55 1 28 51
M  V30 56 1 29 52
M  V30 57 1 29 53
M  V30 58 1 31 54
M  V30 59 1 33 55
M  V30 60 1 34 56
M  V30 END BOND
M  V30 END CTAB
M  END
>  <Dataset>  (24) 
ChEMBL_Kinases

>  <Ligand_Instance>  (24) 
nan

>  <PDB_ID>  (24) 
nan

>  <Standardized_SMILES>  (24) 
Cc1cc(-c2n[nH]c3cc(NC(=O)NCC4(c5ccc(OC(F)(F)F)cc5)CC4)ncc23)ccn1

>  <Name>  (24) 
nan

>  <Pocket>  (24) 
nan

>  <ATP_Site>  (24) 
nan

>  <Peripheral>  (24) 
nan

>  <Num_H_Atoms_ProtBoundConf>  (24) 
nan

>  <Num_Resolved_Atoms>  (24) 
nan

>  <Num_Not_Resolved_Atoms>  (24) 
nan

$$$$
CHEMBL3658639
     RDKit          3D

  0  0  0  0  0  0  0  0  0  0999 V3000
M  V30 BEGIN CTAB
M  V30 COUNTS 52 56 0 0 0
M  V30 BEGIN ATOM
M  V30 1 C 1.536976 -6.107409 -3.420854 0
M  V30 2 C 2.730824 -5.220152 -3.369182 0
M  V30 3 C 2.937500 -4.399287 -2.274975 0
M  V30 4 C 4.047281 -3.578508 -2.233556 0
M  V30 5 C 4.366102 -2.672453 -1.131721 0
M  V30 6 N 5.566323 -2.498139 -0.546563 0
M  V30 7 N 5.491763 -1.593442 0.424911 0
M  V30 8 C 4.223322 -1.126999 0.522761 0
M  V30 9 C 3.626430 -0.193181 1.355189 0
M  V30 10 C 2.279409 0.015608 1.143691 0
M  V30 11 N 1.590518 0.959647 1.957548 0
M  V30 12 C 0.213150 1.230192 1.803727 0
M  V30 13 O -0.341873 0.566861 0.890636 0
M  V30 14 N -0.552135 2.151513 2.567919 0
M  V30 15 C -1.933359 2.451481 2.484676 0
M  V30 16 C -2.919994 1.390522 2.801732 0
M  V30 17 C -4.383277 1.816300 2.649468 0
M  V30 18 C -4.920946 1.608256 1.412684 0
M  V30 19 C -6.222331 1.927033 1.082669 0
M  V30 20 C -7.001842 2.490121 2.090354 0
M  V30 21 F -8.279988 2.820482 1.822196 0
M  V30 22 C -6.458355 2.699101 3.336251 0
M  V30 23 C -5.155021 2.373890 3.647482 0
M  V30 24 C -2.660645 0.783277 4.211276 0
M  V30 25 C -2.706654 -0.032763 2.973334 0
M  V30 26 N 1.592051 -0.642124 0.194410 0
M  V30 27 C 2.180567 -1.560167 -0.623393 0
M  V30 28 C 3.522929 -1.810685 -0.459348 0
M  V30 29 C 4.936408 -3.588881 -3.286748 0
M  V30 30 C 4.701743 -4.421485 -4.367408 0
M  V30 31 N 3.612038 -5.213767 -4.385909 0
M  V30 32 H 0.707807 -5.660255 -4.014014 0
M  V30 33 H 1.783670 -7.119457 -3.848691 0
M  V30 34 H 1.127860 -6.297191 -2.419395 0
M  V30 35 H 2.259083 -4.370760 -1.437723 0
M  V30 36 H 6.270236 -1.261837 1.045023 0
M  V30 37 H 4.206135 0.323484 2.113887 0
M  V30 38 H 2.100869 1.489788 2.709173 0
M  V30 39 H 0.091944 2.628730 3.269538 0
M  V30 40 H -2.133232 2.936489 1.484486 0
M  V30 41 H -2.115954 3.309221 3.200522 0
M  V30 42 H -4.349117 1.170880 0.594757 0
M  V30 43 H -6.684354 1.780716 0.125173 0
M  V30 44 H -7.056050 3.136260 4.126380 0
M  V30 45 H -4.666296 2.510789 4.602156 0
M  V30 46 H -1.666127 0.934166 4.661460 0
M  V30 47 H -3.480684 0.881665 4.915430 0
M  V30 48 H -1.799611 -0.612733 2.731932 0
M  V30 49 H -3.612769 -0.714055 2.870568 0
M  V30 50 H 1.589582 -2.067117 -1.375146 0
M  V30 51 H 5.840881 -3.012307 -3.403142 0
M  V30 52 H 5.331552 -4.507861 -5.241940 0
M  V30 END ATOM
M  V30 BEGIN BOND
M  V30 1 1 1 2
M  V30 2 2 2 3
M  V30 3 1 3 4
M  V30 4 1 4 5
M  V30 5 2 5 6
M  V30 6 1 6 7
M  V30 7 1 7 8
M  V30 8 2 8 9
M  V30 9 1 9 10
M  V30 10 1 10 11
M  V30 11 1 11 12
M  V30 12 2 12 13
M  V30 13 1 12 14
M  V30 14 1 14 15
M  V30 15 1 15 16
M  V30 16 1 16 17
M  V30 17 2 17 18
M  V30 18 1 18 19
M  V30 19 2 19 20
M  V30 20 1 20 21
M  V30 21 1 20 22
M  V30 22 2 22 23
M  V30 23 1 16 24
M  V30 24 1 24 25
M  V30 25 2 10 26
M  V30 26 1 26 27
M  V30 27 2 27 28
M  V30 28 2 4 29
M  V30 29 1 29 30
M  V30 30 2 30 31
M  V30 31 1 31 2
M  V30 32 1 28 5
M  V30 33 1 28 8
M  V30 34 1 25 16
M  V30 35 1 23 17
M  V30 36 1 1 32
M  V30 37 1 1 33
M  V30 38 1 1 34
M  V30 39 1 3 35
M  V30 40 1 7 36
M  V30 41 1 9 37
M  V30 42 1 11 38
M  V30 43 1 14 39
M  V30 44 1 15 40
M  V30 45 1 15 41
M  V30 46 1 18 42
M  V30 47 1 19 43
M  V30 48 1 22 44
M  V30 49 1 23 45
M  V30 50 1 24 46
M  V30 51 1 24 47
M  V30 52 1 25 48
M  V30 53 1 25 49
M  V30 54 1 27 50
M  V30 55 1 29 51
M  V30 56 1 30 52
M  V30 END BOND
M  V30 END CTAB
M  END
>  <Dataset>  (25) 
ChEMBL_Kinases

>  <Ligand_Instance>  (25) 
nan

>  <PDB_ID>  (25) 
nan

>  <Standardized_SMILES>  (25) 
Cc1cc(-c2n[nH]c3cc(NC(=O)NCC4(c5ccc(F)cc5)CC4)ncc23)ccn1

>  <Name>  (25) 
nan

>  <Pocket>  (25) 
nan

>  <ATP_Site>  (25) 
nan

>  <Peripheral>  (25) 
nan

>  <Num_H_Atoms_ProtBoundConf>  (25) 
nan

>  <Num_Resolved_Atoms>  (25) 
nan

>  <Num_Not_Resolved_Atoms>  (25) 
nan

$$$$
CHEMBL3658640
     RDKit          3D

  0  0  0  0  0  0  0  0  0  0999 V3000
M  V30 BEGIN CTAB
M  V30 COUNTS 49 53 0 0 0
M  V30 BEGIN ATOM
M  V30 1 C -3.842012 -6.958882 -0.237704 0
M  V30 2 C -2.504276 -7.187918 0.360876 0
M  V30 3 C -1.757189 -6.133686 0.779246 0
M  V30 4 C -0.502804 -6.212940 1.350183 0
M  V30 5 C 0.278113 -5.060118 1.791126 0
M  V30 6 N 0.971031 -4.886381 2.940108 0
M  V30 7 N 1.548036 -3.685918 2.954789 0
M  V30 8 C 1.260178 -3.009154 1.809177 0
M  V30 9 C 1.619944 -1.751124 1.363657 0
M  V30 10 C 1.157213 -1.334080 0.120693 0
M  V30 11 N 1.526918 -0.035396 -0.342360 0
M  V30 12 C 0.623875 1.007770 0.026108 0
M  V30 13 O -0.420929 0.808239 0.706829 0
M  V30 14 N 0.862882 2.346731 -0.363552 0
M  V30 15 C -0.034452 3.434794 -0.006722 0 CFG=2
M  V30 16 C -0.547431 4.199404 -1.187595 0
M  V30 17 C -0.834666 5.579148 -0.643034 0
M  V30 18 C 0.183967 5.722743 0.455380 0
M  V30 19 C 0.635876 6.879876 1.052448 0
M  V30 20 C 1.586947 6.834415 2.059969 0
M  V30 21 C 2.057472 5.591896 2.435941 0
M  V30 22 F 2.988419 5.535117 3.420908 0
M  V30 23 C 1.601765 4.436352 1.834989 0
M  V30 24 C 0.653266 4.466533 0.828671 0
M  V30 25 N 0.372754 -2.174683 -0.605502 0
M  V30 26 C 0.040936 -3.403691 -0.133281 0
M  V30 27 C 0.462692 -3.884630 1.089580 0
M  V30 28 C -0.015246 -7.514835 1.481699 0
M  V30 29 C -0.775707 -8.596548 1.055228 0
M  V30 30 N -2.002593 -8.421853 0.503720 0
M  V30 31 H -3.931250 -5.938284 -0.677247 0
M  V30 32 H -4.673472 -7.119694 0.499401 0
M  V30 33 H -4.030750 -7.672559 -1.065876 0
M  V30 34 H -2.177426 -5.135643 0.657068 0
M  V30 35 H 2.147956 -3.269090 3.711846 0
M  V30 36 H 2.246785 -1.101028 1.963222 0
M  V30 37 H 2.378530 0.178281 -0.906445 0
M  V30 38 H 1.697895 2.627334 -0.929495 0
M  V30 39 H -0.865766 2.973797 0.589769 0
M  V30 40 H -1.442790 3.720667 -1.636122 0
M  V30 41 H 0.236504 4.217569 -1.970808 0
M  V30 42 H -1.855126 5.683710 -0.262129 0
M  V30 43 H -0.581082 6.356380 -1.409028 0
M  V30 44 H 0.246945 7.860661 0.737035 0
M  V30 45 H 1.967488 7.716565 2.553482 0
M  V30 46 H 1.967053 3.449278 2.124612 0
M  V30 47 H -0.586124 -4.027321 -0.756894 0
M  V30 48 H 0.962555 -7.657602 1.920986 0
M  V30 49 H -0.310007 -9.561652 1.200647 0
M  V30 END ATOM
M  V30 BEGIN BOND
M  V30 1 1 1 2
M  V30 2 2 2 3
M  V30 3 1 3 4
M  V30 4 1 4 5
M  V30 5 2 5 6
M  V30 6 1 6 7
M  V30 7 1 7 8
M  V30 8 2 8 9
M  V30 9 1 9 10
M  V30 10 1 10 11
M  V30 11 1 11 12
M  V30 12 2 12 13
M  V30 13 1 12 14
M  V30 14 1 14 15
M  V30 15 1 15 16
M  V30 16 1 16 17
M  V30 17 1 17 18
M  V30 18 2 18 19
M  V30 19 1 19 20
M  V30 20 2 20 21
M  V30 21 1 21 22
M  V30 22 1 21 23
M  V30 23 2 23 24
M  V30 24 2 10 25
M  V30 25 1 25 26
M  V30 26 2 26 27
M  V30 27 2 4 28
M  V30 28 1 28 29
M  V30 29 2 29 30
M  V30 30 1 30 2
M  V30 31 1 27 5
M  V30 32 1 27 8
M  V30 33 1 24 15
M  V30 34 1 24 18
M  V30 35 1 1 31
M  V30 36 1 1 32
M  V30 37 1 1 33
M  V30 38 1 3 34
M  V30 39 1 7 35
M  V30 40 1 9 36
M  V30 41 1 11 37
M  V30 42 1 14 38
M  V30 43 1 15 39 CFG=1
M  V30 44 1 16 40
M  V30 45 1 16 41
M  V30 46 1 17 42
M  V30 47 1 17 43
M  V30 48 1 19 44
M  V30 49 1 20 45
M  V30 50 1 23 46
M  V30 51 1 26 47
M  V30 52 1 28 48
M  V30 53 1 29 49
M  V30 END BOND
M  V30 END CTAB
M  END
>  <Dataset>  (26) 
ChEMBL_Kinases

>  <Ligand_Instance>  (26) 
nan

>  <PDB_ID>  (26) 
nan

>  <Standardized_SMILES>  (26) 
Cc1cc(-c2n[nH]c3cc(NC(=O)N[C@@H]4CCc5ccc(F)cc54)ncc23)ccn1

>  <Name>  (26) 
nan

>  <Pocket>  (26) 
nan

>  <ATP_Site>  (26) 
nan

>  <Peripheral>  (26) 
nan

>  <Num_H_Atoms_ProtBoundConf>  (26) 
nan

>  <Num_Resolved_Atoms>  (26) 
nan

>  <Num_Not_Resolved_Atoms>  (26) 
nan

$$$$
CHEMBL3658641
     RDKit          3D

  0  0  0  0  0  0  0  0  0  0999 V3000
M  V30 BEGIN CTAB
M  V30 COUNTS 56 60 0 0 0
M  V30 BEGIN ATOM
M  V30 1 C 4.625018 -7.091381 -0.731661 0
M  V30 2 C 5.416822 -6.019893 -0.044642 0
M  V30 3 C 4.700895 -4.968702 0.523202 0
M  V30 4 C 5.384474 -3.952446 1.170220 0
M  V30 5 C 4.741849 -2.803723 1.800637 0
M  V30 6 N 5.001934 -2.258176 3.019970 0
M  V30 7 N 4.222149 -1.225504 3.257613 0
M  V30 8 C 3.439274 -1.097590 2.170161 0
M  V30 9 C 2.455331 -0.150395 1.950695 0
M  V30 10 C 1.771980 -0.208278 0.753813 0
M  V30 11 N 0.722597 0.651529 0.300114 0
M  V30 12 C -0.630518 0.321315 0.593418 0
M  V30 13 O -0.886282 -0.727982 1.251304 0
M  V30 14 N -1.643149 1.214853 0.116595 0
M  V30 15 C -3.067137 1.086225 0.291900 0
M  V30 16 C -3.560022 2.298056 1.064185 0
M  V30 17 C -5.034439 2.313297 1.285815 0
M  V30 18 C -5.534886 3.738348 1.141698 0
M  V30 19 C -5.337943 1.758142 2.660339 0
M  V30 20 O -5.775709 1.536249 0.368632 0
M  V30 21 C -5.187531 1.267862 -0.859988 0
M  V30 22 C -5.907230 1.215538 -2.059881 0
M  V30 23 C -5.277922 0.943558 -3.266826 0
M  V30 24 C -3.916478 0.720979 -3.280070 0
M  V30 25 C -3.141054 0.756242 -2.137185 0
M  V30 26 C -3.833003 1.033730 -0.963478 0
M  V30 27 N 2.064955 -1.169377 -0.171836 0
M  V30 28 C 3.013660 -2.087951 0.032037 0
M  V30 29 C 3.723366 -2.062537 1.224470 0
M  V30 30 C 6.764467 -4.003494 1.238515 0
M  V30 31 C 7.391782 -5.092223 0.642241 0
M  V30 32 N 6.774376 -6.094082 0.008423 0
M  V30 33 H 3.770757 -7.424646 -0.112541 0
M  V30 34 H 5.287001 -7.959142 -0.869906 0
M  V30 35 H 4.205002 -6.732750 -1.691180 0
M  V30 36 H 3.623753 -4.913845 0.478840 0
M  V30 37 H 4.240109 -0.646921 4.131092 0
M  V30 38 H 2.142021 0.647825 2.605448 0
M  V30 39 H 1.044813 1.492145 -0.234889 0
M  V30 40 H -1.348146 2.076740 -0.429799 0
M  V30 41 H -3.291958 0.169570 0.866753 0
M  V30 42 H -3.255950 3.223494 0.513267 0
M  V30 43 H -3.050609 2.244464 2.046107 0
M  V30 44 H -5.019335 4.371429 1.862454 0
M  V30 45 H -5.186953 4.062190 0.118521 0
M  V30 46 H -6.631959 3.772469 1.214548 0
M  V30 47 H -5.428303 0.652652 2.645139 0
M  V30 48 H -6.254694 2.239181 3.057605 0
M  V30 49 H -4.526162 1.988304 3.398158 0
M  V30 50 H -6.977681 1.392488 -2.033915 0
M  V30 51 H -5.859102 0.909373 -4.178884 0
M  V30 52 H -3.425079 0.511086 -4.204383 0
M  V30 53 H -2.073497 0.589079 -2.095902 0
M  V30 54 H 3.254021 -2.853355 -0.693786 0
M  V30 55 H 7.427338 -3.279532 1.712050 0
M  V30 56 H 8.476492 -5.180350 0.667615 0
M  V30 END ATOM
M  V30 BEGIN BOND
M  V30 1 1 1 2
M  V30 2 2 2 3
M  V30 3 1 3 4
M  V30 4 1 4 5
M  V30 5 2 5 6
M  V30 6 1 6 7
M  V30 7 1 7 8
M  V30 8 2 8 9
M  V30 9 1 9 10
M  V30 10 1 10 11
M  V30 11 1 11 12
M  V30 12 2 12 13
M  V30 13 1 12 14
M  V30 14 1 14 15
M  V30 15 1 15 16
M  V30 16 1 16 17
M  V30 17 1 17 18
M  V30 18 1 17 19
M  V30 19 1 17 20
M  V30 20 1 20 21
M  V30 21 2 21 22
M  V30 22 1 22 23
M  V30 23 2 23 24
M  V30 24 1 24 25
M  V30 25 2 25 26
M  V30 26 2 10 27
M  V30 27 1 27 28
M  V30 28 2 28 29
M  V30 29 2 4 30
M  V30 30 1 30 31
M  V30 31 2 31 32
M  V30 32 1 32 2
M  V30 33 1 29 5
M  V30 34 1 29 8
M  V30 35 1 26 15
M  V30 36 1 26 21
M  V30 37 1 1 33
M  V30 38 1 1 34
M  V30 39 1 1 35
M  V30 40 1 3 36
M  V30 41 1 7 37
M  V30 42 1 9 38
M  V30 43 1 11 39
M  V30 44 1 14 40
M  V30 45 1 15 41
M  V30 46 1 16 42
M  V30 47 1 16 43
M  V30 48 1 18 44
M  V30 49 1 18 45
M  V30 50 1 18 46
M  V30 51 1 19 47
M  V30 52 1 19 48
M  V30 53 1 19 49
M  V30 54 1 22 50
M  V30 55 1 23 51
M  V30 56 1 24 52
M  V30 57 1 25 53
M  V30 58 1 28 54
M  V30 59 1 30 55
M  V30 60 1 31 56
M  V30 END BOND
M  V30 END CTAB
M  END
>  <Dataset>  (27) 
ChEMBL_Kinases

>  <Ligand_Instance>  (27) 
nan

>  <PDB_ID>  (27) 
nan

>  <Standardized_SMILES>  (27) 
Cc1cc(-c2n[nH]c3cc(NC(=O)NC4CC(C)(C)Oc5ccccc54)ncc23)ccn1

>  <Name>  (27) 
nan

>  <Pocket>  (27) 
nan

>  <ATP_Site>  (27) 
nan

>  <Peripheral>  (27) 
nan

>  <Num_H_Atoms_ProtBoundConf>  (27) 
nan

>  <Num_Resolved_Atoms>  (27) 
nan

>  <Num_Not_Resolved_Atoms>  (27) 
nan

$$$$
CHEMBL3658642
     RDKit          3D

  0  0  0  0  0  0  0  0  0  0999 V3000
M  V30 BEGIN CTAB
M  V30 COUNTS 53 57 0 0 0
M  V30 BEGIN ATOM
M  V30 1 C -0.147757 -7.913669 1.375455 0
M  V30 2 C 1.227945 -7.416476 1.666187 0
M  V30 3 C 1.421381 -6.098640 2.086148 0
M  V30 4 C 2.664685 -5.568506 2.373448 0
M  V30 5 C 2.820604 -4.181022 2.810775 0
M  V30 6 N 3.607494 -3.798784 3.837870 0
M  V30 7 N 3.536245 -2.468778 3.988107 0
M  V30 8 C 2.698498 -1.981380 3.054035 0
M  V30 9 C 2.227268 -0.710417 2.706315 0
M  V30 10 C 1.343404 -0.527656 1.661757 0
M  V30 11 N 0.855113 0.760238 1.296266 0
M  V30 12 C -0.053871 0.922816 0.217918 0
M  V30 13 O -0.390130 -0.149687 -0.382705 0
M  V30 14 N -0.582837 2.176287 -0.203212 0
M  V30 15 C -1.492242 2.225709 -1.302066 0 CFG=2
M  V30 16 C -1.040103 3.007806 -2.484904 0
M  V30 17 C -0.357889 4.303767 -2.192498 0
M  V30 18 C -1.110409 5.268360 -1.347762 0
M  V30 19 O -2.520921 5.159449 -1.433468 0
M  V30 20 C -3.265471 4.058025 -1.003487 0
M  V30 21 C -4.569450 4.395540 -0.619551 0
M  V30 22 C -5.369124 3.338261 -0.178186 0
M  V30 23 C -4.947346 2.028346 -0.106811 0
M  V30 24 C -3.664109 1.713135 -0.487404 0
M  V30 25 C -2.855228 2.741003 -0.927073 0
M  V30 26 N 0.931422 -1.605075 0.967642 0
M  V30 27 C 1.351984 -2.857336 1.256950 0
M  V30 28 C 2.233582 -3.040644 2.298643 0
M  V30 29 C 3.768587 -6.412231 2.229250 0
M  V30 30 C 3.548823 -7.728162 1.807196 0
M  V30 31 N 2.310718 -8.192050 1.540551 0
M  V30 32 H -0.224387 -8.935959 1.772704 0
M  V30 33 H -0.296618 -7.898592 0.276621 0
M  V30 34 H -0.902465 -7.273841 1.876787 0
M  V30 35 H 0.523293 -5.503777 2.175634 0
M  V30 36 H 4.011841 -1.849167 4.678160 0
M  V30 37 H 2.573224 0.117087 3.275436 0
M  V30 38 H 1.155126 1.602513 1.811741 0
M  V30 39 H -0.250781 2.997510 0.347435 0
M  V30 40 H -1.629603 1.163120 -1.658242 0
M  V30 41 H -0.356868 2.403034 -3.093866 0
M  V30 42 H -1.938676 3.209196 -3.118943 0
M  V30 43 H 0.636255 4.141140 -1.721589 0
M  V30 44 H -0.152782 4.782859 -3.174251 0
M  V30 45 H -0.866387 6.316039 -1.683571 0
M  V30 46 H -0.775737 5.256195 -0.270270 0
M  V30 47 H -4.902484 5.410555 -0.672774 0
M  V30 48 H -6.371056 3.674641 0.104275 0
M  V30 49 H -5.658667 1.310158 0.249582 0
M  V30 50 H -3.336946 0.697324 -0.432078 0
M  V30 51 H 0.992501 -3.692057 0.670091 0
M  V30 52 H 4.738979 -6.018767 2.447323 0
M  V30 53 H 4.437439 -8.371421 1.702015 0
M  V30 END ATOM
M  V30 BEGIN BOND
M  V30 1 1 1 2
M  V30 2 2 2 3
M  V30 3 1 3 4
M  V30 4 1 4 5
M  V30 5 2 5 6
M  V30 6 1 6 7
M  V30 7 1 7 8
M  V30 8 2 8 9
M  V30 9 1 9 10
M  V30 10 1 10 11
M  V30 11 1 11 12
M  V30 12 2 12 13
M  V30 13 1 12 14
M  V30 14 1 14 15
M  V30 15 1 15 16
M  V30 16 1 16 17
M  V30 17 1 17 18
M  V30 18 1 18 19
M  V30 19 1 19 20
M  V30 20 2 20 21
M  V30 21 1 21 22
M  V30 22 2 22 23
M  V30 23 1 23 24
M  V30 24 2 24 25
M  V30 25 2 10 26
M  V30 26 1 26 27
M  V30 27 2 27 28
M  V30 28 2 4 29
M  V30 29 1 29 30
M  V30 30 2 30 31
M  V30 31 1 31 2
M  V30 32 1 28 5
M  V30 33 1 28 8
M  V30 34 1 25 15
M  V30 35 1 25 20
M  V30 36 1 1 32
M  V30 37 1 1 33
M  V30 38 1 1 34
M  V30 39 1 3 35
M  V30 40 1 7 36
M  V30 41 1 9 37
M  V30 42 1 11 38
M  V30 43 1 14 39
M  V30 44 1 15 40 CFG=3
M  V30 45 1 16 41
M  V30 46 1 16 42
M  V30 47 1 17 43
M  V30 48 1 17 44
M  V30 49 1 18 45
M  V30 50 1 18 46
M  V30 51 1 21 47
M  V30 52 1 22 48
M  V30 53 1 23 49
M  V30 54 1 24 50
M  V30 55 1 27 51
M  V30 56 1 29 52
M  V30 57 1 30 53
M  V30 END BOND
M  V30 END CTAB
M  END
>  <Dataset>  (28) 
ChEMBL_Kinases

>  <Ligand_Instance>  (28) 
nan

>  <PDB_ID>  (28) 
nan

>  <Standardized_SMILES>  (28) 
Cc1cc(-c2n[nH]c3cc(NC(=O)N[C@@H]4CCCOc5ccccc54)ncc23)ccn1

>  <Name>  (28) 
nan

>  <Pocket>  (28) 
nan

>  <ATP_Site>  (28) 
nan

>  <Peripheral>  (28) 
nan

>  <Num_H_Atoms_ProtBoundConf>  (28) 
nan

>  <Num_Resolved_Atoms>  (28) 
nan

>  <Num_Not_Resolved_Atoms>  (28) 
nan

$$$$
CHEMBL3658652
     RDKit          3D

  0  0  0  0  0  0  0  0  0  0999 V3000
M  V30 BEGIN CTAB
M  V30 COUNTS 46 49 0 0 0
M  V30 BEGIN ATOM
M  V30 1 C -3.605505 -4.010870 1.999285 0
M  V30 2 C -2.275077 -3.938169 1.278109 0 CFG=1
M  V30 3 N -1.328586 -3.094729 1.961090 0
M  V30 4 C -0.717861 -1.954878 1.382147 0
M  V30 5 O -1.014325 -1.641279 0.179146 0
M  V30 6 N 0.215624 -1.135309 2.076715 0
M  V30 7 C 0.829565 0.010575 1.494898 0
M  V30 8 C 2.019599 -0.003924 0.794392 0
M  V30 9 C 2.499907 1.187975 0.282850 0
M  V30 10 N 3.608537 1.483692 -0.428797 0
M  V30 11 N 3.601572 2.777857 -0.671891 0
M  V30 12 C 2.508176 3.380196 -0.140797 0
M  V30 13 C 2.165243 4.801221 -0.209518 0
M  V30 14 C 1.715639 5.541413 0.870836 0
M  V30 15 C 1.414694 6.893533 0.701366 0
M  V30 16 C 1.576733 7.455403 -0.551404 0
M  V30 17 O 1.314747 8.680499 -0.748932 0
M  V30 18 N 2.017941 6.729739 -1.612348 0
M  V30 19 C 2.316565 5.406789 -1.463727 0
M  V30 20 C 1.798398 2.364403 0.472681 0
M  V30 21 C 0.610289 2.344969 1.178524 0
M  V30 22 N 0.164445 1.169811 1.666505 0
M  V30 23 C -1.763807 -5.327847 1.158075 0
M  V30 24 C -0.450652 -5.448290 0.760549 0
M  V30 25 C 0.141125 -6.695401 0.612259 0
M  V30 26 C -0.594845 -7.842658 0.866486 0
M  V30 27 F -0.051982 -9.082483 0.732940 0
M  V30 28 C -1.906955 -7.684344 1.262713 0
M  V30 29 C -2.522833 -6.455953 1.418837 0
M  V30 30 H -4.363932 -4.435936 1.309822 0
M  V30 31 H -4.000355 -3.003056 2.269653 0
M  V30 32 H -3.564857 -4.639454 2.889236 0
M  V30 33 H -2.417541 -3.530696 0.260333 0
M  V30 34 H -1.081227 -3.345060 2.945488 0
M  V30 35 H 0.427350 -1.430858 3.058354 0
M  V30 36 H 2.521219 -0.933633 0.675549 0
M  V30 37 H 4.322254 0.778910 -0.715957 0
M  V30 38 H 1.609059 5.048074 1.823766 0
M  V30 39 H 1.059979 7.491741 1.538906 0
M  V30 40 H 2.126510 7.197119 -2.546456 0
M  V30 41 H 2.665698 4.863899 -2.335944 0
M  V30 42 H 0.053587 3.258696 1.332949 0
M  V30 43 H 0.170364 -4.588514 0.548838 0
M  V30 44 H 1.173380 -6.836295 0.300946 0
M  V30 45 H -2.551846 -8.526529 1.481260 0
M  V30 46 H -3.547716 -6.326817 1.728169 0
M  V30 END ATOM
M  V30 BEGIN BOND
M  V30 1 1 1 2
M  V30 2 1 2 3
M  V30 3 1 3 4
M  V30 4 2 4 5
M  V30 5 1 4 6
M  V30 6 1 6 7
M  V30 7 2 7 8
M  V30 8 1 8 9
M  V30 9 1 9 10
M  V30 10 1 10 11
M  V30 11 2 11 12
M  V30 12 1 12 13
M  V30 13 1 13 14
M  V30 14 2 14 15
M  V30 15 1 15 16
M  V30 16 2 16 17
M  V30 17 1 16 18
M  V30 18 1 18 19
M  V30 19 1 12 20
M  V30 20 1 20 21
M  V30 21 2 21 22
M  V30 22 1 2 23
M  V30 23 2 23 24
M  V30 24 1 24 25
M  V30 25 2 25 26
M  V30 26 1 26 27
M  V30 27 1 26 28
M  V30 28 2 28 29
M  V30 29 1 22 7
M  V30 30 1 29 23
M  V30 31 2 20 9
M  V30 32 2 19 13
M  V30 33 1 1 30
M  V30 34 1 1 31
M  V30 35 1 1 32
M  V30 36 1 2 33 CFG=3
M  V30 37 1 3 34
M  V30 38 1 6 35
M  V30 39 1 8 36
M  V30 40 1 10 37
M  V30 41 1 14 38
M  V30 42 1 15 39
M  V30 43 1 18 40
M  V30 44 1 19 41
M  V30 45 1 21 42
M  V30 46 1 24 43
M  V30 47 1 25 44
M  V30 48 1 28 45
M  V30 49 1 29 46
M  V30 END BOND
M  V30 END CTAB
M  END
>  <Dataset>  (29) 
ChEMBL_Kinases

>  <Ligand_Instance>  (29) 
nan

>  <PDB_ID>  (29) 
nan

>  <Standardized_SMILES>  (29) 
C[C@@H](NC(=O)Nc1cc2[nH]nc(-c3ccc(=O)[nH]c3)c2cn1)c1ccc(F)cc1

>  <Name>  (29) 
nan

>  <Pocket>  (29) 
nan

>  <ATP_Site>  (29) 
nan

>  <Peripheral>  (29) 
nan

>  <Num_H_Atoms_ProtBoundConf>  (29) 
nan

>  <Num_Resolved_Atoms>  (29) 
nan

>  <Num_Not_Resolved_Atoms>  (29) 
nan

$$$$
CHEMBL3658644
     RDKit          3D

  0  0  0  0  0  0  0  0  0  0999 V3000
M  V30 BEGIN CTAB
M  V30 COUNTS 53 57 0 0 0
M  V30 BEGIN ATOM
M  V30 1 C 3.996672 -0.286130 8.147253 0
M  V30 2 C 3.361592 -1.492213 7.548375 0
M  V30 3 C 3.295838 -1.574703 6.174509 0
M  V30 4 C 2.727393 -2.658465 5.564195 0
M  V30 5 C 2.565844 -2.929505 4.143380 0
M  V30 6 N 2.828131 -4.121670 3.532794 0
M  V30 7 N 2.571431 -4.016595 2.238759 0
M  V30 8 C 2.135083 -2.785732 1.914569 0
M  V30 9 C 1.733678 -2.129559 0.768433 0
M  V30 10 C 1.330074 -0.809046 0.793088 0
M  V30 11 N 0.957210 -0.330827 -0.495507 0
M  V30 12 C -0.389710 -0.410942 -1.007029 0
M  V30 13 O -1.243301 -0.938638 -0.220439 0
M  V30 14 N -0.715210 0.070291 -2.297068 0
M  V30 15 C -2.105187 -0.056387 -2.720593 0
M  V30 16 C -2.195200 -1.080232 -3.855666 0
M  V30 17 C -3.614918 -1.247496 -4.321300 0
M  V30 18 C -3.865251 -0.492683 -5.608642 0
M  V30 19 O -3.521513 0.871331 -5.496419 0
M  V30 20 C -3.287435 1.604355 -4.359727 0
M  V30 21 C -3.743652 2.919957 -4.475395 0
M  V30 22 C -3.593948 3.819008 -3.418403 0
M  V30 23 C -2.983368 3.399571 -2.236247 0
M  V30 24 C -2.541507 2.073673 -2.164066 0
M  V30 25 C -2.692571 1.188807 -3.213598 0
M  V30 26 N 1.339692 -0.163169 1.999147 0
M  V30 27 C 1.729283 -0.794669 3.121545 0
M  V30 28 C 2.134577 -2.102497 3.128623 0
M  V30 29 C 2.221533 -3.668012 6.389445 0
M  V30 30 C 2.306964 -3.547076 7.753159 0
M  V30 31 N 2.867447 -2.478349 8.355890 0
M  V30 32 H 5.082617 -0.310133 7.891010 0
M  V30 33 H 3.500877 0.646847 7.827256 0
M  V30 34 H 3.904619 -0.317049 9.266855 0
M  V30 35 H 3.668253 -0.828016 5.495534 0
M  V30 36 H 2.692640 -4.800171 1.541610 0
M  V30 37 H 1.779885 -2.773370 -0.114380 0
M  V30 38 H 1.655747 0.099132 -1.132022 0
M  V30 39 H -0.001601 0.496674 -2.924209 0
M  V30 40 H -2.682104 -0.517247 -1.868960 0
M  V30 41 H -1.815847 -2.047439 -3.454241 0
M  V30 42 H -1.597213 -0.740863 -4.731239 0
M  V30 43 H -3.769074 -2.323052 -4.545456 0
M  V30 44 H -4.376732 -0.946924 -3.568690 0
M  V30 45 H -4.955598 -0.542774 -5.807756 0
M  V30 46 H -3.358765 -0.987917 -6.458393 0
M  V30 47 H -4.224709 3.266184 -5.395146 0
M  V30 48 H -3.946635 4.839113 -3.508475 0
M  V30 49 H -2.896582 4.132401 -1.461657 0
M  V30 50 H -2.088275 1.878777 -1.197758 0
M  V30 51 H 1.711642 -0.224127 4.039121 0
M  V30 52 H 1.752193 -4.567858 6.039890 0
M  V30 53 H 1.941054 -4.278568 8.451643 0
M  V30 END ATOM
M  V30 BEGIN BOND
M  V30 1 1 1 2
M  V30 2 2 2 3
M  V30 3 1 3 4
M  V30 4 1 4 5
M  V30 5 2 5 6
M  V30 6 1 6 7
M  V30 7 1 7 8
M  V30 8 2 8 9
M  V30 9 1 9 10
M  V30 10 1 10 11
M  V30 11 1 11 12
M  V30 12 2 12 13
M  V30 13 1 12 14
M  V30 14 1 14 15
M  V30 15 1 15 16
M  V30 16 1 16 17
M  V30 17 1 17 18
M  V30 18 1 18 19
M  V30 19 1 19 20
M  V30 20 2 20 21
M  V30 21 1 21 22
M  V30 22 2 22 23
M  V30 23 1 23 24
M  V30 24 2 24 25
M  V30 25 2 10 26
M  V30 26 1 26 27
M  V30 27 2 27 28
M  V30 28 2 4 29
M  V30 29 1 29 30
M  V30 30 2 30 31
M  V30 31 1 31 2
M  V30 32 1 28 5
M  V30 33 1 28 8
M  V30 34 1 25 15
M  V30 35 1 25 20
M  V30 36 1 1 32
M  V30 37 1 1 33
M  V30 38 1 1 34
M  V30 39 1 3 35
M  V30 40 1 7 36
M  V30 41 1 9 37
M  V30 42 1 11 38
M  V30 43 1 14 39
M  V30 44 1 15 40
M  V30 45 1 16 41
M  V30 46 1 16 42
M  V30 47 1 17 43
M  V30 48 1 17 44
M  V30 49 1 18 45
M  V30 50 1 18 46
M  V30 51 1 21 47
M  V30 52 1 22 48
M  V30 53 1 23 49
M  V30 54 1 24 50
M  V30 55 1 27 51
M  V30 56 1 29 52
M  V30 57 1 30 53
M  V30 END BOND
M  V30 END CTAB
M  END
>  <Dataset>  (30) 
ChEMBL_Kinases

>  <Ligand_Instance>  (30) 
nan

>  <PDB_ID>  (30) 
nan

>  <Standardized_SMILES>  (30) 
Cc1cc(-c2n[nH]c3cc(NC(=O)NC4CCCOc5ccccc54)ncc23)ccn1

>  <Name>  (30) 
nan

>  <Pocket>  (30) 
nan

>  <ATP_Site>  (30) 
nan

>  <Peripheral>  (30) 
nan

>  <Num_H_Atoms_ProtBoundConf>  (30) 
nan

>  <Num_Resolved_Atoms>  (30) 
nan

>  <Num_Not_Resolved_Atoms>  (30) 
nan

$$$$
CHEMBL3658645
     RDKit          3D

  0  0  0  0  0  0  0  0  0  0999 V3000
M  V30 BEGIN CTAB
M  V30 COUNTS 52 56 0 0 0
M  V30 BEGIN ATOM
M  V30 1 C 3.642061 -7.418168 1.722414 0
M  V30 2 C 4.475784 -6.225262 1.998811 0
M  V30 3 C 3.933312 -4.959112 2.108948 0
M  V30 4 C 4.697241 -3.836625 2.366380 0
M  V30 5 C 4.132351 -2.489917 2.485048 0
M  V30 6 N 4.408269 -1.549585 3.426396 0
M  V30 7 N 3.701816 -0.448035 3.210438 0
M  V30 8 C 2.949490 -0.660297 2.114209 0
M  V30 9 C 2.054089 0.200551 1.505738 0
M  V30 10 C 1.396606 -0.255523 0.378499 0
M  V30 11 N 0.436931 0.437195 -0.417435 0
M  V30 12 C -0.936154 0.274296 -0.020467 0
M  V30 13 O -1.294432 -0.418090 0.947989 0
M  V30 14 N -1.899566 0.959110 -0.805420 0
M  V30 15 C -3.295657 0.917263 -0.566559 0 CFG=2
M  V30 16 C -4.149621 0.326042 -1.626880 0
M  V30 17 C -4.334446 1.197488 -2.846681 0
M  V30 18 S -5.511698 2.458991 -2.331262 0
M  V30 19 O -6.875314 1.885747 -2.113022 0
M  V30 20 O -5.497160 3.634529 -3.248856 0
M  V30 21 C -4.818028 3.010615 -0.796686 0
M  V30 22 C -5.207904 4.194863 -0.240069 0
M  V30 23 C -4.693183 4.661173 0.952777 0
M  V30 24 C -3.746241 3.911715 1.620768 0
M  V30 25 C -3.354515 2.702722 1.043345 0
M  V30 26 C -3.870622 2.224882 -0.162471 0
M  V30 27 N 1.647330 -1.515269 -0.088113 0
M  V30 28 C 2.521544 -2.354932 0.506469 0
M  V30 29 C 3.196248 -1.932354 1.634822 0
M  V30 30 C 6.073849 -4.038519 2.514421 0
M  V30 31 C 6.581398 -5.332522 2.395846 0
M  V30 32 N 5.792058 -6.394281 2.143772 0
M  V30 33 H 3.790935 -7.726342 0.660437 0
M  V30 34 H 3.949391 -8.255140 2.372052 0
M  V30 35 H 2.546857 -7.190065 1.801686 0
M  V30 36 H 2.863795 -4.854267 1.986593 0
M  V30 37 H 3.736735 0.429055 3.803593 0
M  V30 38 H 1.799188 1.190054 1.798015 0
M  V30 39 H 0.696257 1.020335 -1.227519 0
M  V30 40 H -1.670902 1.567638 -1.645248 0
M  V30 41 H -3.438282 0.254488 0.334087 0
M  V30 42 H -3.876488 -0.717094 -1.893706 0
M  V30 43 H -5.165645 0.201682 -1.183175 0
M  V30 44 H -3.433682 1.736323 -3.157773 0
M  V30 45 H -4.786801 0.550790 -3.635000 0
M  V30 46 H -5.956128 4.781983 -0.772685 0
M  V30 47 H -5.004669 5.615419 1.405183 0
M  V30 48 H -3.343621 4.265012 2.542943 0
M  V30 49 H -2.599297 2.169007 1.636882 0
M  V30 50 H 2.708221 -3.350000 0.123275 0
M  V30 51 H 6.748590 -3.204156 2.719497 0
M  V30 52 H 7.644053 -5.549955 2.501383 0
M  V30 END ATOM
M  V30 BEGIN BOND
M  V30 1 1 1 2
M  V30 2 2 2 3
M  V30 3 1 3 4
M  V30 4 1 4 5
M  V30 5 2 5 6
M  V30 6 1 6 7
M  V30 7 1 7 8
M  V30 8 2 8 9
M  V30 9 1 9 10
M  V30 10 1 10 11
M  V30 11 1 11 12
M  V30 12 2 12 13
M  V30 13 1 12 14
M  V30 14 1 14 15
M  V30 15 1 15 16
M  V30 16 1 16 17
M  V30 17 1 17 18
M  V30 18 2 18 19
M  V30 19 2 18 20
M  V30 20 1 18 21
M  V30 21 2 21 22
M  V30 22 1 22 23
M  V30 23 2 23 24
M  V30 24 1 24 25
M  V30 25 2 25 26
M  V30 26 2 10 27
M  V30 27 1 27 28
M  V30 28 2 28 29
M  V30 29 2 4 30
M  V30 30 1 30 31
M  V30 31 2 31 32
M  V30 32 1 32 2
M  V30 33 1 29 5
M  V30 34 1 29 8
M  V30 35 1 26 15
M  V30 36 1 26 21
M  V30 37 1 1 33
M  V30 38 1 1 34
M  V30 39 1 1 35
M  V30 40 1 3 36
M  V30 41 1 7 37
M  V30 42 1 9 38
M  V30 43 1 11 39
M  V30 44 1 14 40
M  V30 45 1 15 41 CFG=1
M  V30 46 1 16 42
M  V30 47 1 16 43
M  V30 48 1 17 44
M  V30 49 1 17 45
M  V30 50 1 22 46
M  V30 51 1 23 47
M  V30 52 1 24 48
M  V30 53 1 25 49
M  V30 54 1 28 50
M  V30 55 1 30 51
M  V30 56 1 31 52
M  V30 END BOND
M  V30 END CTAB
M  END
>  <Dataset>  (31) 
ChEMBL_Kinases

>  <Ligand_Instance>  (31) 
nan

>  <PDB_ID>  (31) 
nan

>  <Standardized_SMILES>  (31) 
Cc1cc(-c2n[nH]c3cc(NC(=O)N[C@@H]4CCS(=O)(=O)c5ccccc54)ncc23)ccn1

>  <Name>  (31) 
nan

>  <Pocket>  (31) 
nan

>  <ATP_Site>  (31) 
nan

>  <Peripheral>  (31) 
nan

>  <Num_H_Atoms_ProtBoundConf>  (31) 
nan

>  <Num_Resolved_Atoms>  (31) 
nan

>  <Num_Not_Resolved_Atoms>  (31) 
nan

$$$$
CHEMBL3658646
     RDKit          3D

  0  0  0  0  0  0  0  0  0  0999 V3000
M  V30 BEGIN CTAB
M  V30 COUNTS 50 54 0 0 0
M  V30 BEGIN ATOM
M  V30 1 C -0.993019 -7.158125 -2.652534 0
M  V30 2 C 0.212931 -6.446163 -3.182003 0
M  V30 3 C 0.706581 -5.426126 -2.379554 0
M  V30 4 C 1.821276 -4.738304 -2.827363 0
M  V30 5 C 2.488920 -3.639659 -2.135058 0
M  V30 6 N 3.832244 -3.496895 -1.971967 0
M  V30 7 N 4.079484 -2.376595 -1.291272 0
M  V30 8 C 2.884372 -1.807800 -1.022534 0
M  V30 9 C 2.631348 -0.634506 -0.339448 0
M  V30 10 C 1.312773 -0.250041 -0.187535 0
M  V30 11 N 0.813985 0.913039 0.475153 0
M  V30 12 C 0.475828 0.967334 1.851912 0
M  V30 13 O 0.620378 -0.071556 2.546425 0
M  V30 14 N -0.004017 2.222152 2.317742 0
M  V30 15 C -0.387445 2.407084 3.722987 0 CFG=1
M  V30 16 C 0.468143 3.441494 4.380939 0
M  V30 17 C 0.067660 4.852662 4.117910 0
M  V30 18 O -1.172726 5.004935 3.467173 0
M  V30 19 C -2.206361 4.101762 3.675133 0
M  V30 20 C -3.530905 4.482534 3.747800 0
M  V30 21 C -4.514392 3.510002 3.959933 0
M  V30 22 F -5.822943 3.855452 4.035599 0
M  V30 23 C -4.100084 2.195920 4.087784 0
M  V30 24 C -2.788323 1.781569 4.020512 0
M  V30 25 C -1.835566 2.779386 3.807992 0
M  V30 26 N 0.330800 -1.015037 -0.699669 0
M  V30 27 C 0.548630 -2.161551 -1.368878 0
M  V30 28 C 1.852504 -2.569603 -1.535675 0
M  V30 29 C 2.358861 -5.114443 -4.033494 0
M  V30 30 C 1.871889 -6.131394 -4.840073 0
M  V30 31 N 0.774368 -6.781036 -4.360580 0
M  V30 32 H -1.492279 -7.683739 -3.488121 0
M  V30 33 H -0.792913 -7.759011 -1.764377 0
M  V30 34 H -1.691909 -6.333097 -2.342643 0
M  V30 35 H 0.303555 -5.118774 -1.439847 0
M  V30 36 H 5.026797 -2.000081 -1.012202 0
M  V30 37 H 3.348352 0.036696 0.101481 0
M  V30 38 H 0.752715 1.682133 -0.234509 0
M  V30 39 H -0.099271 3.046673 1.683318 0
M  V30 40 H -0.232679 1.449923 4.270687 0
M  V30 41 H 1.503167 3.315787 3.951467 0
M  V30 42 H 0.579603 3.192343 5.460566 0
M  V30 43 H 0.809505 5.430496 3.503123 0
M  V30 44 H -0.032695 5.428174 5.083997 0
M  V30 45 H -3.804864 5.519026 3.642138 0
M  V30 46 H -4.895154 1.490869 4.249048 0
M  V30 47 H -2.488581 0.751693 4.122986 0
M  V30 48 H -0.248091 -2.776957 -1.781258 0
M  V30 49 H 3.232824 -4.613535 -4.438272 0
M  V30 50 H 2.326241 -6.396547 -5.785674 0
M  V30 END ATOM
M  V30 BEGIN BOND
M  V30 1 1 1 2
M  V30 2 2 2 3
M  V30 3 1 3 4
M  V30 4 1 4 5
M  V30 5 2 5 6
M  V30 6 1 6 7
M  V30 7 1 7 8
M  V30 8 2 8 9
M  V30 9 1 9 10
M  V30 10 1 10 11
M  V30 11 1 11 12
M  V30 12 2 12 13
M  V30 13 1 12 14
M  V30 14 1 14 15
M  V30 15 1 15 16
M  V30 16 1 16 17
M  V30 17 1 17 18
M  V30 18 1 18 19
M  V30 19 2 19 20
M  V30 20 1 20 21
M  V30 21 1 21 22
M  V30 22 2 21 23
M  V30 23 1 23 24
M  V30 24 2 24 25
M  V30 25 2 10 26
M  V30 26 1 26 27
M  V30 27 2 27 28
M  V30 28 2 4 29
M  V30 29 1 29 30
M  V30 30 2 30 31
M  V30 31 1 31 2
M  V30 32 1 28 5
M  V30 33 1 28 8
M  V30 34 1 25 15
M  V30 35 1 25 19
M  V30 36 1 1 32
M  V30 37 1 1 33
M  V30 38 1 1 34
M  V30 39 1 3 35
M  V30 40 1 7 36
M  V30 41 1 9 37
M  V30 42 1 11 38
M  V30 43 1 14 39
M  V30 44 1 15 40 CFG=1
M  V30 45 1 16 41
M  V30 46 1 16 42
M  V30 47 1 17 43
M  V30 48 1 17 44
M  V30 49 1 20 45
M  V30 50 1 23 46
M  V30 51 1 24 47
M  V30 52 1 27 48
M  V30 53 1 29 49
M  V30 54 1 30 50
M  V30 END BOND
M  V30 END CTAB
M  END
>  <Dataset>  (32) 
ChEMBL_Kinases

>  <Ligand_Instance>  (32) 
nan

>  <PDB_ID>  (32) 
nan

>  <Standardized_SMILES>  (32) 
Cc1cc(-c2n[nH]c3cc(NC(=O)N[C@H]4CCOc5cc(F)ccc54)ncc23)ccn1

>  <Name>  (32) 
nan

>  <Pocket>  (32) 
nan

>  <ATP_Site>  (32) 
nan

>  <Peripheral>  (32) 
nan

>  <Num_H_Atoms_ProtBoundConf>  (32) 
nan

>  <Num_Resolved_Atoms>  (32) 
nan

>  <Num_Not_Resolved_Atoms>  (32) 
nan

$$$$
CHEMBL3658647
     RDKit          3D

  0  0  0  0  0  0  0  0  0  0999 V3000
M  V30 BEGIN CTAB
M  V30 COUNTS 57 61 0 0 0
M  V30 BEGIN ATOM
M  V30 1 C 9.124210 -2.019374 2.827348 0
M  V30 2 C 7.728377 -2.522787 2.647409 0
M  V30 3 C 7.074688 -2.104229 1.496381 0
M  V30 4 C 5.772904 -2.533736 1.264249 0
M  V30 5 C 4.983140 -2.164174 0.093263 0
M  V30 6 N 5.433325 -2.170319 -1.184017 0
M  V30 7 N 4.453654 -1.777852 -2.001287 0
M  V30 8 C 3.334226 -1.499631 -1.320233 0
M  V30 9 C 2.069100 -1.066379 -1.674051 0
M  V30 10 C 1.158270 -0.889355 -0.647189 0
M  V30 11 N -0.166309 -0.446444 -0.919651 0
M  V30 12 C -1.121225 -0.257317 0.141727 0
M  V30 13 O -0.680988 -0.514683 1.301157 0
M  V30 14 N -2.465866 0.184964 -0.068558 0
M  V30 15 C -3.319411 0.336288 1.055885 0
M  V30 16 C -3.670390 1.793767 1.219889 0
M  V30 17 C -4.428254 2.267400 0.008516 0
M  V30 18 N -5.195892 1.136563 -0.497208 0
M  V30 19 S -5.750288 1.362581 -2.114049 0
M  V30 20 C -4.313855 1.551456 -3.159323 0
M  V30 21 O -6.503239 2.664612 -2.194741 0
M  V30 22 O -6.641913 0.292820 -2.618580 0
M  V30 23 C -5.479419 -0.037095 0.245973 0
M  V30 24 C -6.733029 -0.596479 0.041585 0
M  V30 25 C -6.964535 -1.751528 0.790641 0
M  V30 26 C -6.025747 -2.279113 1.652067 0
M  V30 27 C -4.797511 -1.670187 1.807200 0
M  V30 28 C -4.510580 -0.527505 1.095060 0
M  V30 29 N 1.521014 -1.136655 0.623709 0
M  V30 30 C 2.733146 -1.555470 0.997550 0
M  V30 31 C 3.669610 -1.743785 0.001298 0
M  V30 32 C 5.187826 -3.373764 2.215075 0
M  V30 33 C 5.888566 -3.758220 3.344126 0
M  V30 34 N 7.150008 -3.332226 3.553173 0
M  V30 35 H 9.127755 -0.907063 2.883456 0
M  V30 36 H 9.714850 -2.410117 1.980376 0
M  V30 37 H 9.522892 -2.451019 3.777027 0
M  V30 38 H 7.510151 -1.453099 0.746433 0
M  V30 39 H 4.557760 -1.701564 -3.034230 0
M  V30 40 H 1.815834 -0.878027 -2.709871 0
M  V30 41 H -0.476748 -0.248498 -1.895904 0
M  V30 42 H -2.651411 0.346118 -1.068176 0
M  V30 43 H -2.710372 0.055002 1.964830 0
M  V30 44 H -2.675539 2.320489 1.311537 0
M  V30 45 H -4.250368 1.881760 2.162889 0
M  V30 46 H -3.768870 2.712956 -0.758258 0
M  V30 47 H -5.203947 3.013745 0.354013 0
M  V30 48 H -4.642953 1.823120 -4.186972 0
M  V30 49 H -3.731824 0.630833 -3.182668 0
M  V30 50 H -3.712502 2.385979 -2.762745 0
M  V30 51 H -7.468130 -0.177457 -0.630545 0
M  V30 52 H -7.924316 -2.268903 0.700623 0
M  V30 53 H -6.173549 -3.170407 2.245068 0
M  V30 54 H -3.961077 -1.970629 2.448005 0
M  V30 55 H 2.945314 -1.731206 2.040002 0
M  V30 56 H 4.193940 -3.774027 2.154707 0
M  V30 57 H 5.511509 -4.403879 4.127099 0
M  V30 END ATOM
M  V30 BEGIN BOND
M  V30 1 1 1 2
M  V30 2 2 2 3
M  V30 3 1 3 4
M  V30 4 1 4 5
M  V30 5 2 5 6
M  V30 6 1 6 7
M  V30 7 1 7 8
M  V30 8 2 8 9
M  V30 9 1 9 10
M  V30 10 1 10 11
M  V30 11 1 11 12
M  V30 12 2 12 13
M  V30 13 1 12 14
M  V30 14 1 14 15
M  V30 15 1 15 16
M  V30 16 1 16 17
M  V30 17 1 17 18
M  V30 18 1 18 19
M  V30 19 1 19 20
M  V30 20 2 19 21
M  V30 21 2 19 22
M  V30 22 1 18 23
M  V30 23 2 23 24
M  V30 24 1 24 25
M  V30 25 2 25 26
M  V30 26 1 26 27
M  V30 27 2 27 28
M  V30 28 2 10 29
M  V30 29 1 29 30
M  V30 30 2 30 31
M  V30 31 2 4 32
M  V30 32 1 32 33
M  V30 33 2 33 34
M  V30 34 1 34 2
M  V30 35 1 31 5
M  V30 36 1 31 8
M  V30 37 1 28 15
M  V30 38 1 28 23
M  V30 39 1 1 35
M  V30 40 1 1 36
M  V30 41 1 1 37
M  V30 42 1 3 38
M  V30 43 1 7 39
M  V30 44 1 9 40
M  V30 45 1 11 41
M  V30 46 1 14 42
M  V30 47 1 15 43
M  V30 48 1 16 44
M  V30 49 1 16 45
M  V30 50 1 17 46
M  V30 51 1 17 47
M  V30 52 1 20 48
M  V30 53 1 20 49
M  V30 54 1 20 50
M  V30 55 1 24 51
M  V30 56 1 25 52
M  V30 57 1 26 53
M  V30 58 1 27 54
M  V30 59 1 30 55
M  V30 60 1 32 56
M  V30 61 1 33 57
M  V30 END BOND
M  V30 END CTAB
M  END
>  <Dataset>  (33) 
ChEMBL_Kinases

>  <Ligand_Instance>  (33) 
nan

>  <PDB_ID>  (33) 
nan

>  <Standardized_SMILES>  (33) 
Cc1cc(-c2n[nH]c3cc(NC(=O)NC4CCN(S(C)(=O)=O)c5ccccc54)ncc23)ccn1

>  <Name>  (33) 
nan

>  <Pocket>  (33) 
nan

>  <ATP_Site>  (33) 
nan

>  <Peripheral>  (33) 
nan

>  <Num_H_Atoms_ProtBoundConf>  (33) 
nan

>  <Num_Resolved_Atoms>  (33) 
nan

>  <Num_Not_Resolved_Atoms>  (33) 
nan

$$$$
CHEMBL3658648
     RDKit          3D

  0  0  0  0  0  0  0  0  0  0999 V3000
M  V30 BEGIN CTAB
M  V30 COUNTS 49 53 0 0 0
M  V30 BEGIN ATOM
M  V30 1 C -0.586422 -7.841111 0.428385 0
M  V30 2 C 0.843609 -7.466755 0.370839 0
M  V30 3 C 1.265545 -6.180692 0.700647 0
M  V30 4 C 2.595175 -5.815820 0.652093 0
M  V30 5 C 3.015383 -4.462984 1.001788 0
M  V30 6 N 4.077392 -4.137603 1.794617 0
M  V30 7 N 4.165131 -2.802365 1.898580 0
M  V30 8 C 3.170358 -2.247653 1.181210 0
M  V30 9 C 2.841809 -0.921878 0.977860 0
M  V30 10 C 1.762412 -0.642024 0.189985 0
M  V30 11 N 1.251323 0.667285 -0.148455 0
M  V30 12 C 0.299994 1.041841 0.821036 0
M  V30 13 O 0.163486 0.131041 1.708081 0
M  V30 14 N -0.406703 2.299898 0.781435 0
M  V30 15 C -0.665732 3.594170 0.120944 0
M  V30 16 C -2.124895 3.281629 0.477100 0
M  V30 17 C -2.997129 4.435108 0.650105 0
M  V30 18 C -4.250836 4.524706 0.054882 0
M  V30 19 C -5.036821 5.624066 0.243013 0
M  V30 20 C -4.568217 6.665387 1.043803 0
M  V30 21 C -3.334629 6.592769 1.637838 0
M  V30 22 F -2.923551 7.626903 2.405247 0
M  V30 23 C -2.523268 5.471192 1.450776 0
M  V30 24 C -1.407371 2.776847 1.736531 0
M  V30 25 N 1.043026 -1.659214 -0.370488 0
M  V30 26 C 1.353914 -2.960526 -0.179442 0
M  V30 27 C 2.439893 -3.270975 0.612385 0
M  V30 28 C 3.484610 -6.784668 0.261815 0
M  V30 29 C 3.068498 -8.077844 -0.070776 0
M  V30 30 N 1.749225 -8.373421 -0.002995 0
M  V30 31 H -0.759713 -8.793434 0.982980 0
M  V30 32 H -1.011940 -8.016739 -0.594595 0
M  V30 33 H -1.210673 -7.084599 0.916082 0
M  V30 34 H 0.487259 -5.490256 0.995747 0
M  V30 35 H 4.887651 -2.284687 2.446680 0
M  V30 36 H 3.354647 -0.086957 1.380645 0
M  V30 37 H 1.467455 1.331189 -0.949598 0
M  V30 38 H -0.233031 4.443049 0.663149 0
M  V30 39 H -0.443339 3.528261 -0.971320 0
M  V30 40 H -2.473884 2.454970 -0.146567 0
M  V30 41 H -4.593573 3.699754 -0.564883 0
M  V30 42 H -6.011321 5.625362 -0.256440 0
M  V30 43 H -5.244634 7.510421 1.151319 0
M  V30 44 H -1.582633 5.506581 1.952563 0
M  V30 45 H -1.952294 2.028342 2.303888 0
M  V30 46 H -0.946541 3.601714 2.315892 0
M  V30 47 H 0.777207 -3.746862 -0.627898 0
M  V30 48 H 4.551757 -6.569190 0.200016 0
M  V30 49 H 3.765291 -8.851679 -0.380900 0
M  V30 END ATOM
M  V30 BEGIN BOND
M  V30 1 1 1 2
M  V30 2 2 2 3
M  V30 3 1 3 4
M  V30 4 1 4 5
M  V30 5 2 5 6
M  V30 6 1 6 7
M  V30 7 1 7 8
M  V30 8 2 8 9
M  V30 9 1 9 10
M  V30 10 1 10 11
M  V30 11 1 11 12
M  V30 12 2 12 13
M  V30 13 1 12 14
M  V30 14 1 14 15
M  V30 15 1 15 16
M  V30 16 1 16 17
M  V30 17 2 17 18
M  V30 18 1 18 19
M  V30 19 2 19 20
M  V30 20 1 20 21
M  V30 21 1 21 22
M  V30 22 2 21 23
M  V30 23 1 16 24
M  V30 24 2 10 25
M  V30 25 1 25 26
M  V30 26 2 26 27
M  V30 27 2 4 28
M  V30 28 1 28 29
M  V30 29 2 29 30
M  V30 30 1 30 2
M  V30 31 1 27 5
M  V30 32 1 27 8
M  V30 33 1 24 14
M  V30 34 1 23 17
M  V30 35 1 1 31
M  V30 36 1 1 32
M  V30 37 1 1 33
M  V30 38 1 3 34
M  V30 39 1 7 35
M  V30 40 1 9 36
M  V30 41 1 11 37
M  V30 42 1 15 38
M  V30 43 1 15 39
M  V30 44 1 16 40
M  V30 45 1 18 41
M  V30 46 1 19 42
M  V30 47 1 20 43
M  V30 48 1 23 44
M  V30 49 1 24 45
M  V30 50 1 24 46
M  V30 51 1 26 47
M  V30 52 1 28 48
M  V30 53 1 29 49
M  V30 END BOND
M  V30 END CTAB
M  END
>  <Dataset>  (34) 
ChEMBL_Kinases

>  <Ligand_Instance>  (34) 
nan

>  <PDB_ID>  (34) 
nan

>  <Standardized_SMILES>  (34) 
Cc1cc(-c2n[nH]c3cc(NC(=O)N4CC(c5cccc(F)c5)C4)ncc23)ccn1

>  <Name>  (34) 
nan

>  <Pocket>  (34) 
nan

>  <ATP_Site>  (34) 
nan

>  <Peripheral>  (34) 
nan

>  <Num_H_Atoms_ProtBoundConf>  (34) 
nan

>  <Num_Resolved_Atoms>  (34) 
nan

>  <Num_Not_Resolved_Atoms>  (34) 
nan

$$$$
CHEMBL3658649
     RDKit          3D

  0  0  0  0  0  0  0  0  0  0999 V3000
M  V30 BEGIN CTAB
M  V30 COUNTS 48 51 0 0 0
M  V30 BEGIN ATOM
M  V30 1 C -2.471355 -6.611385 3.983850 0
M  V30 2 C -1.334164 -5.837157 4.571497 0
M  V30 3 C -0.431980 -5.144923 3.763169 0
M  V30 4 C 0.625235 -4.421252 4.245707 0
M  V30 5 C 1.543806 -3.713510 3.374472 0
M  V30 6 N 2.879095 -3.694910 3.454635 0
M  V30 7 N 3.410143 -2.947833 2.500481 0
M  V30 8 C 2.380789 -2.470495 1.783250 0
M  V30 9 C 2.442528 -1.641936 0.683581 0
M  V30 10 C 1.241600 -1.278224 0.104327 0
M  V30 11 N 1.018987 -0.442051 -1.027846 0
M  V30 12 C 0.861764 0.941186 -0.758253 0
M  V30 13 O 0.915119 1.398973 0.400864 0
M  V30 14 N 0.637303 1.818580 -1.853498 0
M  V30 15 C 0.468891 3.218811 -1.674447 0 CFG=2
M  V30 16 C -0.774916 3.806506 -2.162103 0
M  V30 17 C -1.258238 3.462593 -3.408763 0
M  V30 18 C -2.435920 3.997344 -3.910575 0
M  V30 19 C -3.155168 4.895722 -3.160789 0
M  V30 20 F -4.323688 5.496989 -3.528144 0
M  V30 21 C -2.680592 5.254053 -1.898555 0
M  V30 22 C -1.508544 4.721138 -1.400480 0
M  V30 23 C 1.700196 3.917280 -2.259455 0
M  V30 24 F 2.847697 3.498718 -1.614651 0
M  V30 25 F 1.852821 3.665718 -3.598930 0
M  V30 26 F 1.631690 5.281146 -2.115949 0
M  V30 27 N 0.084281 -1.736980 0.624908 0
M  V30 28 C 0.020099 -2.546645 1.699199 0
M  V30 29 C 1.204612 -2.924014 2.295366 0
M  V30 30 C 0.775005 -4.399132 5.627561 0
M  V30 31 C -0.122943 -5.089198 6.449790 0
M  V30 32 N -1.137278 -5.778921 5.911734 0
M  V30 33 H -2.666800 -7.539113 4.541234 0
M  V30 34 H -3.340125 -5.934550 3.936183 0
M  V30 35 H -2.179655 -6.825481 2.925398 0
M  V30 36 H -0.624560 -5.217560 2.708283 0
M  V30 37 H 4.430510 -2.776463 2.352243 0
M  V30 38 H 3.304172 -1.224402 0.194708 0
M  V30 39 H 0.967156 -0.785343 -2.017071 0
M  V30 40 H 0.575688 1.530957 -2.867013 0
M  V30 41 H 0.556604 3.385354 -0.559801 0
M  V30 42 H -0.719437 2.751951 -4.039977 0
M  V30 43 H -2.847640 3.747372 -4.893138 0
M  V30 44 H -3.136515 5.947638 -1.193991 0
M  V30 45 H -1.083279 4.954632 -0.431230 0
M  V30 46 H -0.913025 -2.909292 2.109274 0
M  V30 47 H 1.579046 -3.855003 6.096530 0
M  V30 48 H -0.064991 -5.114101 7.531139 0
M  V30 END ATOM
M  V30 BEGIN BOND
M  V30 1 1 1 2
M  V30 2 2 2 3
M  V30 3 1 3 4
M  V30 4 1 4 5
M  V30 5 2 5 6
M  V30 6 1 6 7
M  V30 7 1 7 8
M  V30 8 2 8 9
M  V30 9 1 9 10
M  V30 10 1 10 11
M  V30 11 1 11 12
M  V30 12 2 12 13
M  V30 13 1 12 14
M  V30 14 1 14 15
M  V30 15 1 15 16
M  V30 16 2 16 17
M  V30 17 1 17 18
M  V30 18 2 18 19
M  V30 19 1 19 20
M  V30 20 1 19 21
M  V30 21 2 21 22
M  V30 22 1 15 23
M  V30 23 1 23 24
M  V30 24 1 23 25
M  V30 25 1 23 26
M  V30 26 2 10 27
M  V30 27 1 27 28
M  V30 28 2 28 29
M  V30 29 2 4 30
M  V30 30 1 30 31
M  V30 31 2 31 32
M  V30 32 1 32 2
M  V30 33 1 29 5
M  V30 34 1 29 8
M  V30 35 1 22 16
M  V30 36 1 1 33
M  V30 37 1 1 34
M  V30 38 1 1 35
M  V30 39 1 3 36
M  V30 40 1 7 37
M  V30 41 1 9 38
M  V30 42 1 11 39
M  V30 43 1 14 40
M  V30 44 1 15 41 CFG=1
M  V30 45 1 17 42
M  V30 46 1 18 43
M  V30 47 1 21 44
M  V30 48 1 22 45
M  V30 49 1 28 46
M  V30 50 1 30 47
M  V30 51 1 31 48
M  V30 END BOND
M  V30 END CTAB
M  END
>  <Dataset>  (35) 
ChEMBL_Kinases

>  <Ligand_Instance>  (35) 
nan

>  <PDB_ID>  (35) 
nan

>  <Standardized_SMILES>  (35) 
Cc1cc(-c2n[nH]c3cc(NC(=O)N[C@H](c4ccc(F)cc4)C(F)(F)F)ncc23)ccn1

>  <Name>  (35) 
nan

>  <Pocket>  (35) 
nan

>  <ATP_Site>  (35) 
nan

>  <Peripheral>  (35) 
nan

>  <Num_H_Atoms_ProtBoundConf>  (35) 
nan

>  <Num_Resolved_Atoms>  (35) 
nan

>  <Num_Not_Resolved_Atoms>  (35) 
nan

$$$$
CHEMBL3658650
     RDKit          3D

  0  0  0  0  0  0  0  0  0  0999 V3000
M  V30 BEGIN CTAB
M  V30 COUNTS 48 51 0 0 0
M  V30 BEGIN ATOM
M  V30 1 C -2.729939 0.458079 8.756849 0
M  V30 2 C -2.158180 -0.448812 7.724120 0
M  V30 3 C -1.125656 0.075848 6.946481 0
M  V30 4 C -0.537569 -0.716943 5.954648 0
M  V30 5 C 0.543321 -0.181618 5.133634 0
M  V30 6 N 1.633893 0.532313 5.529150 0
M  V30 7 N 2.378345 0.828889 4.455611 0
M  V30 8 C 1.821489 0.333913 3.335032 0
M  V30 9 C 2.181090 0.361018 1.998296 0
M  V30 10 C 1.393323 -0.249773 1.042771 0
M  V30 11 N 1.722422 -0.247994 -0.342888 0
M  V30 12 C 0.895908 -0.882170 -1.298566 0
M  V30 13 O -0.163849 -1.475026 -0.972120 0
M  V30 14 N 1.200239 -0.895946 -2.688703 0
M  V30 15 C 0.350252 -1.546020 -3.656634 0 CFG=1
M  V30 16 C -0.041373 -0.685637 -4.779779 0
M  V30 17 C -1.319834 -0.575367 -5.306369 0
M  V30 18 C -1.606263 0.259894 -6.367493 0
M  V30 19 C -0.618452 1.027568 -6.953004 0
M  V30 20 F -0.862457 1.858422 -7.995785 0
M  V30 21 C 0.682292 0.958173 -6.467033 0
M  V30 22 C 0.932063 0.102659 -5.393765 0
M  V30 23 C 1.154847 -2.718424 -4.232192 0
M  V30 24 F 2.307594 -2.270953 -4.835985 0
M  V30 25 F 1.466677 -3.640556 -3.251777 0
M  V30 26 F 0.413449 -3.388279 -5.203352 0
M  V30 27 N 0.267391 -0.869685 1.459596 0
M  V30 28 C -0.099463 -0.905313 2.767120 0
M  V30 29 C 0.657264 -0.309560 3.748584 0
M  V30 30 C -1.031532 -2.001076 5.807165 0
M  V30 31 C -2.056755 -2.518453 6.581102 0
M  V30 32 N -2.572158 -1.708882 7.508058 0
M  V30 33 H -3.525940 -0.078528 9.337050 0
M  V30 34 H -1.996811 0.809881 9.493700 0
M  V30 35 H -3.234458 1.278489 8.198093 0
M  V30 36 H -0.778833 1.106178 7.114755 0
M  V30 37 H 3.278957 1.375370 4.478751 0
M  V30 38 H 3.093163 0.869668 1.706333 0
M  V30 39 H 2.593034 0.232511 -0.657079 0
M  V30 40 H 2.060036 -0.428657 -3.050096 0
M  V30 41 H -0.536968 -2.014887 -3.189857 0
M  V30 42 H -2.092955 -1.185002 -4.837862 0
M  V30 43 H -2.615416 0.298360 -6.726633 0
M  V30 44 H 1.508409 1.535501 -6.881435 0
M  V30 45 H 1.962927 0.069369 -5.033877 0
M  V30 46 H -1.013054 -1.417856 3.038016 0
M  V30 47 H -0.612034 -2.652808 5.056342 0
M  V30 48 H -2.424411 -3.525086 6.445753 0
M  V30 END ATOM
M  V30 BEGIN BOND
M  V30 1 1 1 2
M  V30 2 2 2 3
M  V30 3 1 3 4
M  V30 4 1 4 5
M  V30 5 2 5 6
M  V30 6 1 6 7
M  V30 7 1 7 8
M  V30 8 2 8 9
M  V30 9 1 9 10
M  V30 10 1 10 11
M  V30 11 1 11 12
M  V30 12 2 12 13
M  V30 13 1 12 14
M  V30 14 1 14 15
M  V30 15 1 15 16
M  V30 16 2 16 17
M  V30 17 1 17 18
M  V30 18 2 18 19
M  V30 19 1 19 20
M  V30 20 1 19 21
M  V30 21 2 21 22
M  V30 22 1 15 23
M  V30 23 1 23 24
M  V30 24 1 23 25
M  V30 25 1 23 26
M  V30 26 2 10 27
M  V30 27 1 27 28
M  V30 28 2 28 29
M  V30 29 2 4 30
M  V30 30 1 30 31
M  V30 31 2 31 32
M  V30 32 1 32 2
M  V30 33 1 29 5
M  V30 34 1 29 8
M  V30 35 1 22 16
M  V30 36 1 1 33
M  V30 37 1 1 34
M  V30 38 1 1 35
M  V30 39 1 3 36
M  V30 40 1 7 37
M  V30 41 1 9 38
M  V30 42 1 11 39
M  V30 43 1 14 40
M  V30 44 1 15 41 CFG=1
M  V30 45 1 17 42
M  V30 46 1 18 43
M  V30 47 1 21 44
M  V30 48 1 22 45
M  V30 49 1 28 46
M  V30 50 1 30 47
M  V30 51 1 31 48
M  V30 END BOND
M  V30 END CTAB
M  END
>  <Dataset>  (36) 
ChEMBL_Kinases

>  <Ligand_Instance>  (36) 
nan

>  <PDB_ID>  (36) 
nan

>  <Standardized_SMILES>  (36) 
Cc1cc(-c2n[nH]c3cc(NC(=O)N[C@@H](c4ccc(F)cc4)C(F)(F)F)ncc23)ccn1

>  <Name>  (36) 
nan

>  <Pocket>  (36) 
nan

>  <ATP_Site>  (36) 
nan

>  <Peripheral>  (36) 
nan

>  <Num_H_Atoms_ProtBoundConf>  (36) 
nan

>  <Num_Resolved_Atoms>  (36) 
nan

>  <Num_Not_Resolved_Atoms>  (36) 
nan

$$$$
CHEMBL3658651
     RDKit          3D

  0  0  0  0  0  0  0  0  0  0999 V3000
M  V30 BEGIN CTAB
M  V30 COUNTS 58 62 0 0 0
M  V30 BEGIN ATOM
M  V30 1 C 5.112954 0.798605 5.098176 0
M  V30 2 C 3.805969 1.130452 4.420366 0 CFG=1
M  V30 3 N 3.206201 -0.116498 3.979361 0
M  V30 4 C 2.885100 -0.265896 2.608185 0
M  V30 5 O 3.126594 0.670262 1.835647 0
M  V30 6 N 2.299260 -1.467776 2.141657 0
M  V30 7 C 1.955138 -1.671679 0.771370 0
M  V30 8 C 2.724809 -2.199539 -0.245283 0
M  V30 9 C 2.189606 -2.308820 -1.512096 0
M  V30 10 N 2.748362 -2.784306 -2.632402 0
M  V30 11 N 1.858834 -2.692718 -3.605737 0
M  V30 12 C 0.696017 -2.157524 -3.156607 0
M  V30 13 C -0.543409 -1.875006 -3.871237 0
M  V30 14 C -0.545487 -1.256526 -5.128039 0
M  V30 15 C -1.736456 -1.007298 -5.770434 0
M  V30 16 N -2.947141 -1.339329 -5.234206 0
M  V30 17 C -2.927091 -1.931992 -4.027888 0
M  V30 18 N -4.209943 -2.258705 -3.510977 0
M  V30 19 C -5.412492 -1.953224 -4.263673 0
M  V30 20 C -6.407352 -1.372931 -3.251698 0
M  V30 21 O -5.712887 -0.819875 -2.163174 0
M  V30 22 C -5.215201 -1.856357 -1.382867 0
M  V30 23 C -4.550432 -2.898701 -2.255845 0
M  V30 24 C -1.774446 -2.196004 -3.359804 0
M  V30 25 C 0.902380 -1.909494 -1.815147 0
M  V30 26 C 0.184999 -1.394910 -0.774137 0
M  V30 27 N 0.685345 -1.278086 0.470931 0
M  V30 28 C 2.908975 1.720870 5.471314 0
M  V30 29 C 2.414546 0.899362 6.463596 0
M  V30 30 C 1.576139 1.424732 7.453849 0
M  V30 31 C 1.290712 2.770825 7.369751 0
M  V30 32 F 0.470250 3.254066 8.349882 0
M  V30 33 C 1.775502 3.608841 6.385165 0
M  V30 34 C 2.610343 3.068367 5.405352 0
M  V30 35 H 5.814090 1.650402 5.002300 0
M  V30 36 H 5.004156 0.601900 6.185535 0
M  V30 37 H 5.582819 -0.116319 4.672885 0
M  V30 38 H 3.944278 1.835591 3.577333 0
M  V30 39 H 3.029200 -0.864384 4.679324 0
M  V30 40 H 2.123481 -2.221780 2.862261 0
M  V30 41 H 3.708828 -2.485826 0.064974 0
M  V30 42 H 3.727099 -3.172436 -2.752040 0
M  V30 43 H 0.398528 -0.982292 -5.577143 0
M  V30 44 H -1.747717 -0.525524 -6.750516 0
M  V30 45 H -5.899503 -2.844969 -4.691614 0
M  V30 46 H -5.243094 -1.143681 -5.013391 0
M  V30 47 H -7.117732 -2.118823 -2.877438 0
M  V30 48 H -6.985027 -0.538692 -3.699955 0
M  V30 49 H -4.512555 -1.477920 -0.617668 0
M  V30 50 H -6.107930 -2.272944 -0.842685 0
M  V30 51 H -3.677834 -3.279974 -1.694488 0
M  V30 52 H -5.303008 -3.704322 -2.407031 0
M  V30 53 H -1.866908 -2.670173 -2.407452 0
M  V30 54 H -0.829087 -1.066444 -0.956728 0
M  V30 55 H 2.627634 -0.157431 6.545604 0
M  V30 56 H 1.172805 0.802427 8.245949 0
M  V30 57 H 1.484297 4.650785 6.419016 0
M  V30 58 H 2.972090 3.731786 4.656879 0
M  V30 END ATOM
M  V30 BEGIN BOND
M  V30 1 1 1 2
M  V30 2 1 2 3
M  V30 3 1 3 4
M  V30 4 2 4 5
M  V30 5 1 4 6
M  V30 6 1 6 7
M  V30 7 2 7 8
M  V30 8 1 8 9
M  V30 9 1 9 10
M  V30 10 1 10 11
M  V30 11 2 11 12
M  V30 12 1 12 13
M  V30 13 2 13 14
M  V30 14 1 14 15
M  V30 15 2 15 16
M  V30 16 1 16 17
M  V30 17 1 17 18
M  V30 18 1 18 19
M  V30 19 1 19 20
M  V30 20 1 20 21
M  V30 21 1 21 22
M  V30 22 1 22 23
M  V30 23 2 17 24
M  V30 24 1 12 25
M  V30 25 1 25 26
M  V30 26 2 26 27
M  V30 27 1 2 28
M  V30 28 2 28 29
M  V30 29 1 29 30
M  V30 30 2 30 31
M  V30 31 1 31 32
M  V30 32 1 31 33
M  V30 33 2 33 34
M  V30 34 1 27 7
M  V30 35 1 34 28
M  V30 36 2 25 9
M  V30 37 1 24 13
M  V30 38 1 23 18
M  V30 39 1 1 35
M  V30 40 1 1 36
M  V30 41 1 1 37
M  V30 42 1 2 38 CFG=3
M  V30 43 1 3 39
M  V30 44 1 6 40
M  V30 45 1 8 41
M  V30 46 1 10 42
M  V30 47 1 14 43
M  V30 48 1 15 44
M  V30 49 1 19 45
M  V30 50 1 19 46
M  V30 51 1 20 47
M  V30 52 1 20 48
M  V30 53 1 22 49
M  V30 54 1 22 50
M  V30 55 1 23 51
M  V30 56 1 23 52
M  V30 57 1 24 53
M  V30 58 1 26 54
M  V30 59 1 29 55
M  V30 60 1 30 56
M  V30 61 1 33 57
M  V30 62 1 34 58
M  V30 END BOND
M  V30 END CTAB
M  END
>  <Dataset>  (37) 
ChEMBL_Kinases

>  <Ligand_Instance>  (37) 
nan

>  <PDB_ID>  (37) 
nan

>  <Standardized_SMILES>  (37) 
C[C@@H](NC(=O)Nc1cc2[nH]nc(-c3ccnc(N4CCOCC4)c3)c2cn1)c1ccc(F)cc1

>  <Name>  (37) 
nan

>  <Pocket>  (37) 
nan

>  <ATP_Site>  (37) 
nan

>  <Peripheral>  (37) 
nan

>  <Num_H_Atoms_ProtBoundConf>  (37) 
nan

>  <Num_Resolved_Atoms>  (37) 
nan

>  <Num_Not_Resolved_Atoms>  (37) 
nan

$$$$
CHEMBL3658643
     RDKit          3D

  0  0  0  0  0  0  0  0  0  0999 V3000
M  V30 BEGIN CTAB
M  V30 COUNTS 45 48 0 0 0
M  V30 BEGIN ATOM
M  V30 1 C -1.646666 -6.333434 1.597261 0
M  V30 2 C -1.073245 -6.100574 0.229618 0
M  V30 3 C -0.767618 -4.816391 -0.165405 0
M  V30 4 C -0.235273 -4.504395 -1.407507 0
M  V30 5 C 0.076070 -3.111375 -1.785406 0
M  V30 6 N -0.216133 -2.498505 -2.969334 0
M  V30 7 N 0.209147 -1.254066 -2.958034 0
M  V30 8 C 0.797577 -0.974604 -1.786695 0
M  V30 9 C 1.402941 0.152011 -1.254003 0
M  V30 10 C 1.934408 0.109829 0.039944 0
M  V30 11 N 2.568386 1.240576 0.637214 0
M  V30 12 C 1.796662 2.167591 1.391043 0
M  V30 13 O 0.570247 2.048461 1.565301 0
M  V30 14 N 2.572252 3.236726 1.919753 0
M  V30 15 C 2.110741 4.355160 2.733190 0
M  V30 16 C 0.643248 4.239211 2.958219 0
M  V30 17 C -0.358403 4.764594 2.166119 0
M  V30 18 C -1.676625 4.587010 2.483137 0
M  V30 19 C -2.086879 3.876203 3.607308 0
M  V30 20 F -3.372676 3.677317 3.956737 0
M  V30 21 C -1.117950 3.327297 4.437181 0
M  V30 22 C 0.195327 3.532106 4.077720 0
M  V30 23 N 1.825105 -1.063035 0.720504 0
M  V30 24 C 1.243189 -2.144022 0.206858 0
M  V30 25 C 0.713650 -2.141768 -1.050515 0
M  V30 26 C -0.010574 -5.560452 -2.273675 0
M  V30 27 C -0.321171 -6.863225 -1.871565 0
M  V30 28 N -0.843530 -7.117550 -0.637846 0
M  V30 29 H -1.445828 -7.328653 1.992411 0
M  V30 30 H -1.277984 -5.497968 2.247493 0
M  V30 31 H -2.748654 -6.150533 1.496249 0
M  V30 32 H -0.956678 -4.034469 0.532574 0
M  V30 33 H 0.117053 -0.559408 -3.732981 0
M  V30 34 H 1.471690 1.076732 -1.831879 0
M  V30 35 H 3.569650 1.206048 0.410224 0
M  V30 36 H 3.611494 3.349069 1.779413 0
M  V30 37 H 2.590218 4.339775 3.736443 0
M  V30 38 H 2.371505 5.328690 2.267777 0
M  V30 39 H -0.022802 5.314461 1.295949 0
M  V30 40 H -2.451961 5.005877 1.850939 0
M  V30 41 H -1.341564 2.760136 5.331080 0
M  V30 42 H 0.959624 3.098433 4.733433 0
M  V30 43 H 1.203995 -3.032338 0.825589 0
M  V30 44 H 0.397174 -5.363778 -3.237221 0
M  V30 45 H -0.150304 -7.715772 -2.544469 0
M  V30 END ATOM
M  V30 BEGIN BOND
M  V30 1 1 1 2
M  V30 2 2 2 3
M  V30 3 1 3 4
M  V30 4 1 4 5
M  V30 5 2 5 6
M  V30 6 1 6 7
M  V30 7 1 7 8
M  V30 8 2 8 9
M  V30 9 1 9 10
M  V30 10 1 10 11
M  V30 11 1 11 12
M  V30 12 2 12 13
M  V30 13 1 12 14
M  V30 14 1 14 15
M  V30 15 1 15 16
M  V30 16 2 16 17
M  V30 17 1 17 18
M  V30 18 2 18 19
M  V30 19 1 19 20
M  V30 20 1 19 21
M  V30 21 2 21 22
M  V30 22 2 10 23
M  V30 23 1 23 24
M  V30 24 2 24 25
M  V30 25 2 4 26
M  V30 26 1 26 27
M  V30 27 2 27 28
M  V30 28 1 28 2
M  V30 29 1 25 5
M  V30 30 1 25 8
M  V30 31 1 22 16
M  V30 32 1 1 29
M  V30 33 1 1 30
M  V30 34 1 1 31
M  V30 35 1 3 32
M  V30 36 1 7 33
M  V30 37 1 9 34
M  V30 38 1 11 35
M  V30 39 1 14 36
M  V30 40 1 15 37
M  V30 41 1 15 38
M  V30 42 1 17 39
M  V30 43 1 18 40
M  V30 44 1 21 41
M  V30 45 1 22 42
M  V30 46 1 24 43
M  V30 47 1 26 44
M  V30 48 1 27 45
M  V30 END BOND
M  V30 END CTAB
M  END
>  <Dataset>  (38) 
ChEMBL_Kinases

>  <Ligand_Instance>  (38) 
nan

>  <PDB_ID>  (38) 
nan

>  <Standardized_SMILES>  (38) 
Cc1cc(-c2n[nH]c3cc(NC(=O)NCc4ccc(F)cc4)ncc23)ccn1

>  <Name>  (38) 
nan

>  <Pocket>  (38) 
nan

>  <ATP_Site>  (38) 
nan

>  <Peripheral>  (38) 
nan

>  <Num_H_Atoms_ProtBoundConf>  (38) 
nan

>  <Num_Resolved_Atoms>  (38) 
nan

>  <Num_Not_Resolved_Atoms>  (38) 
nan

$$$$
CHEMBL3658831
     RDKit          3D

  0  0  0  0  0  0  0  0  0  0999 V3000
M  V30 BEGIN CTAB
M  V30 COUNTS 49 52 0 0 0
M  V30 BEGIN ATOM
M  V30 1 C -3.400627 -6.111004 -0.910129 0
M  V30 2 C -2.490203 -5.779211 -2.036951 0
M  V30 3 C -1.565649 -4.785545 -1.791730 0
M  V30 4 C -0.695438 -4.440252 -2.809545 0
M  V30 5 C 0.332253 -3.401167 -2.675673 0
M  V30 6 N 1.607734 -3.504333 -3.079825 0
M  V30 7 N 2.243780 -2.377429 -2.798909 0
M  V30 8 C 1.385260 -1.521052 -2.204675 0
M  V30 9 C 1.567133 -0.220992 -1.723991 0
M  V30 10 C 0.448032 0.396976 -1.153443 0
M  V30 11 N 0.523982 1.720813 -0.632897 0
M  V30 12 C 0.870203 1.950840 0.717974 0
M  V30 13 O 1.101130 0.929271 1.411707 0
M  V30 14 N 0.967235 3.213145 1.307931 0
M  V30 15 C 1.305042 3.569480 2.668561 0
M  V30 16 C 0.369294 3.027285 3.704573 0
M  V30 17 C 0.636717 3.668444 5.040287 0
M  V30 18 C 1.548228 2.822879 5.903497 0
M  V30 19 C 0.880904 1.465042 6.092961 0
M  V30 20 C -0.119224 1.181128 4.990904 0
M  V30 21 O 0.267168 1.664895 3.760902 0
M  V30 22 N -0.723357 -0.248311 -1.085293 0
M  V30 23 C -0.914670 -1.501168 -1.543969 0
M  V30 24 C 0.152425 -2.146653 -2.111015 0
M  V30 25 C -0.774702 -5.089028 -4.023362 0
M  V30 26 C -1.705910 -6.083421 -4.256749 0
M  V30 27 N -2.541117 -6.395863 -3.239732 0
M  V30 28 H -3.001728 -6.904532 -0.248275 0
M  V30 29 H -4.389134 -6.430282 -1.290033 0
M  V30 30 H -3.556008 -5.227100 -0.258864 0
M  V30 31 H -1.500026 -4.280505 -0.854650 0
M  V30 32 H 3.242058 -2.171191 -2.997726 0
M  V30 33 H 2.518935 0.299699 -1.780884 0
M  V30 34 H 0.326085 2.528260 -1.239393 0
M  V30 35 H 0.752239 3.993444 0.616097 0
M  V30 36 H 2.332840 3.166968 2.930722 0
M  V30 37 H 1.434249 4.667261 2.738412 0
M  V30 38 H -0.654668 3.399021 3.400530 0
M  V30 39 H 1.087546 4.658374 4.869142 0
M  V30 40 H -0.322009 3.739580 5.608049 0
M  V30 41 H 1.630534 3.338009 6.882264 0
M  V30 42 H 2.576721 2.729148 5.505132 0
M  V30 43 H 0.299915 1.511388 7.055167 0
M  V30 44 H 1.634255 0.645089 6.161169 0
M  V30 45 H -1.108483 1.586492 5.295915 0
M  V30 46 H -0.231337 0.068765 4.873659 0
M  V30 47 H -1.885135 -1.990438 -1.468931 0
M  V30 48 H -0.112282 -4.853279 -4.855404 0
M  V30 49 H -1.757290 -6.586392 -5.217906 0
M  V30 END ATOM
M  V30 BEGIN BOND
M  V30 1 1 1 2
M  V30 2 2 2 3
M  V30 3 1 3 4
M  V30 4 1 4 5
M  V30 5 2 5 6
M  V30 6 1 6 7
M  V30 7 1 7 8
M  V30 8 2 8 9
M  V30 9 1 9 10
M  V30 10 1 10 11
M  V30 11 1 11 12
M  V30 12 2 12 13
M  V30 13 1 12 14
M  V30 14 1 14 15
M  V30 15 1 15 16
M  V30 16 1 16 17
M  V30 17 1 17 18
M  V30 18 1 18 19
M  V30 19 1 19 20
M  V30 20 1 20 21
M  V30 21 2 10 22
M  V30 22 1 22 23
M  V30 23 2 23 24
M  V30 24 2 4 25
M  V30 25 1 25 26
M  V30 26 2 26 27
M  V30 27 1 27 2
M  V30 28 1 24 5
M  V30 29 1 24 8
M  V30 30 1 21 16
M  V30 31 1 1 28
M  V30 32 1 1 29
M  V30 33 1 1 30
M  V30 34 1 3 31
M  V30 35 1 7 32
M  V30 36 1 9 33
M  V30 37 1 11 34
M  V30 38 1 14 35
M  V30 39 1 15 36
M  V30 40 1 15 37
M  V30 41 1 16 38
M  V30 42 1 17 39
M  V30 43 1 17 40
M  V30 44 1 18 41
M  V30 45 1 18 42
M  V30 46 1 19 43
M  V30 47 1 19 44
M  V30 48 1 20 45
M  V30 49 1 20 46
M  V30 50 1 23 47
M  V30 51 1 25 48
M  V30 52 1 26 49
M  V30 END BOND
M  V30 END CTAB
M  END
>  <Dataset>  (39) 
ChEMBL_Kinases

>  <Ligand_Instance>  (39) 
nan

>  <PDB_ID>  (39) 
nan

>  <Standardized_SMILES>  (39) 
Cc1cc(-c2n[nH]c3cc(NC(=O)NCC4CCCCO4)ncc23)ccn1

>  <Name>  (39) 
nan

>  <Pocket>  (39) 
nan

>  <ATP_Site>  (39) 
nan

>  <Peripheral>  (39) 
nan

>  <Num_H_Atoms_ProtBoundConf>  (39) 
nan

>  <Num_Resolved_Atoms>  (39) 
nan

>  <Num_Not_Resolved_Atoms>  (39) 
nan

$$$$
CHEMBL3658830
     RDKit          3D

  0  0  0  0  0  0  0  0  0  0999 V3000
M  V30 BEGIN CTAB
M  V30 COUNTS 46 49 0 0 0
M  V30 BEGIN ATOM
M  V30 1 C -2.699610 -6.634316 0.415827 0
M  V30 2 C -2.981939 -5.794605 -0.789326 0
M  V30 3 C -2.278943 -4.646839 -0.967164 0
M  V30 4 C -2.454297 -3.795365 -2.039573 0
M  V30 5 C -1.729888 -2.551499 -2.282952 0
M  V30 6 N -1.196535 -2.135719 -3.445935 0
M  V30 7 N -0.611870 -0.958310 -3.300862 0
M  V30 8 C -0.781169 -0.620978 -2.008241 0
M  V30 9 C -0.344782 0.525296 -1.373622 0
M  V30 10 C -0.624158 0.681481 -0.028533 0
M  V30 11 N -0.285962 1.760895 0.839186 0
M  V30 12 C 0.968901 1.673337 1.533199 0
M  V30 13 O 1.725261 0.697800 1.382088 0
M  V30 14 N 1.415547 2.677511 2.419112 0
M  V30 15 C 2.671110 2.631343 3.139077 0
M  V30 16 C 3.598285 3.763009 2.840659 0
M  V30 17 C 4.782268 3.616820 3.778923 0
M  V30 18 C 4.754758 2.308070 4.510311 0
M  V30 19 O 3.603448 2.120497 5.252337 0
M  V30 20 C 2.459211 2.563032 4.634193 0
M  V30 21 N -1.312234 -0.289053 0.617575 0
M  V30 22 C -1.747309 -1.415970 0.016180 0
M  V30 23 C -1.481095 -1.593288 -1.321611 0
M  V30 24 C -3.422768 -4.175670 -2.973299 0
M  V30 25 C -4.121114 -5.352842 -2.760322 0
M  V30 26 N -3.910375 -6.145223 -1.698166 0
M  V30 27 H -1.672490 -7.044608 0.423474 0
M  V30 28 H -3.412293 -7.492332 0.386734 0
M  V30 29 H -2.949816 -6.080323 1.358083 0
M  V30 30 H -1.525007 -4.348636 -0.242346 0
M  V30 31 H -0.128332 -0.425494 -4.048513 0
M  V30 32 H 0.205493 1.352218 -1.790430 0
M  V30 33 H -0.824292 2.636992 1.058906 0
M  V30 34 H 0.802262 3.528606 2.578717 0
M  V30 35 H 3.170986 1.682927 2.851652 0
M  V30 36 H 3.102149 4.752235 3.029365 0
M  V30 37 H 3.997531 3.677084 1.819392 0
M  V30 38 H 4.759346 4.430470 4.529763 0
M  V30 39 H 5.761501 3.699169 3.269095 0
M  V30 40 H 4.935675 1.435135 3.882822 0
M  V30 41 H 5.602220 2.348391 5.243626 0
M  V30 42 H 2.198795 3.553920 5.060467 0
M  V30 43 H 1.669777 1.788001 4.846947 0
M  V30 44 H -2.296776 -2.190298 0.533536 0
M  V30 45 H -3.625029 -3.581265 -3.829690 0
M  V30 46 H -4.878145 -5.678076 -3.462761 0
M  V30 END ATOM
M  V30 BEGIN BOND
M  V30 1 1 1 2
M  V30 2 2 2 3
M  V30 3 1 3 4
M  V30 4 1 4 5
M  V30 5 2 5 6
M  V30 6 1 6 7
M  V30 7 1 7 8
M  V30 8 2 8 9
M  V30 9 1 9 10
M  V30 10 1 10 11
M  V30 11 1 11 12
M  V30 12 2 12 13
M  V30 13 1 12 14
M  V30 14 1 14 15
M  V30 15 1 15 16
M  V30 16 1 16 17
M  V30 17 1 17 18
M  V30 18 1 18 19
M  V30 19 1 19 20
M  V30 20 2 10 21
M  V30 21 1 21 22
M  V30 22 2 22 23
M  V30 23 2 4 24
M  V30 24 1 24 25
M  V30 25 2 25 26
M  V30 26 1 26 2
M  V30 27 1 23 5
M  V30 28 1 23 8
M  V30 29 1 20 15
M  V30 30 1 1 27
M  V30 31 1 1 28
M  V30 32 1 1 29
M  V30 33 1 3 30
M  V30 34 1 7 31
M  V30 35 1 9 32
M  V30 36 1 11 33
M  V30 37 1 14 34
M  V30 38 1 15 35
M  V30 39 1 16 36
M  V30 40 1 16 37
M  V30 41 1 17 38
M  V30 42 1 17 39
M  V30 43 1 18 40
M  V30 44 1 18 41
M  V30 45 1 20 42
M  V30 46 1 20 43
M  V30 47 1 22 44
M  V30 48 1 24 45
M  V30 49 1 25 46
M  V30 END BOND
M  V30 END CTAB
M  END
>  <Dataset>  (40) 
ChEMBL_Kinases

>  <Ligand_Instance>  (40) 
nan

>  <PDB_ID>  (40) 
nan

>  <Standardized_SMILES>  (40) 
Cc1cc(-c2n[nH]c3cc(NC(=O)NC4CCCOC4)ncc23)ccn1

>  <Name>  (40) 
nan

>  <Pocket>  (40) 
nan

>  <ATP_Site>  (40) 
nan

>  <Peripheral>  (40) 
nan

>  <Num_H_Atoms_ProtBoundConf>  (40) 
nan

>  <Num_Resolved_Atoms>  (40) 
nan

>  <Num_Not_Resolved_Atoms>  (40) 
nan

$$$$
CHEMBL3658829
     RDKit          3D

  0  0  0  0  0  0  0  0  0  0999 V3000
M  V30 BEGIN CTAB
M  V30 COUNTS 50 54 0 0 0
M  V30 BEGIN ATOM
M  V30 1 C -0.284353 -7.930842 -2.158449 0
M  V30 2 C 1.062018 -7.337686 -1.907926 0
M  V30 3 C 1.242632 -5.969675 -1.888885 0
M  V30 4 C 2.477996 -5.396745 -1.659244 0
M  V30 5 C 2.703347 -3.948827 -1.632105 0
M  V30 6 N 3.702867 -3.236823 -2.214851 0
M  V30 7 N 3.558737 -1.942632 -1.958518 0
M  V30 8 C 2.455833 -1.799054 -1.200870 0
M  V30 9 C 1.894544 -0.646159 -0.682018 0
M  V30 10 C 0.745174 -0.744467 0.077044 0
M  V30 11 N 0.016329 0.307928 0.696013 0
M  V30 12 C 0.160152 0.864898 1.996139 0
M  V30 13 O 1.061085 0.336740 2.668947 0
M  V30 14 N -0.718701 1.905468 2.316909 0
M  V30 15 C -0.655251 2.542952 3.619039 0
M  V30 16 C -2.027765 2.390203 4.251682 0
M  V30 17 O -2.977966 2.709622 3.265961 0
M  V30 18 C -2.903053 3.962387 2.671706 0
M  V30 19 C -3.941120 4.596317 2.018761 0
M  V30 20 C -3.729656 5.851133 1.468201 0
M  V30 21 C -2.498215 6.492600 1.554512 0
M  V30 22 C -1.480023 5.810717 2.224638 0
M  V30 23 C -1.667805 4.567358 2.777290 0
M  V30 24 C -0.448973 4.037559 3.438090 0
M  V30 25 N 0.213420 -1.964592 0.283299 0
M  V30 26 C 0.745064 -3.096627 -0.213073 0
M  V30 27 C 1.892904 -3.040285 -0.976303 0
M  V30 28 C 3.544966 -6.248601 -1.445682 0
M  V30 29 C 3.332757 -7.611062 -1.470840 0
M  V30 30 N 2.116750 -8.178061 -1.696836 0
M  V30 31 H -0.802634 -8.002120 -1.162638 0
M  V30 32 H -0.210281 -8.918883 -2.614415 0
M  V30 33 H -0.909462 -7.280971 -2.785402 0
M  V30 34 H 0.389466 -5.331834 -2.059359 0
M  V30 35 H 4.191406 -1.159411 -2.286368 0
M  V30 36 H 2.267357 0.361024 -0.807878 0
M  V30 37 H -0.695336 0.627575 -0.016806 0
M  V30 38 H -1.439998 2.260506 1.652134 0
M  V30 39 H 0.138625 2.102067 4.254581 0
M  V30 40 H -2.181143 1.411465 4.713879 0
M  V30 41 H -2.146665 3.146678 5.068237 0
M  V30 42 H -4.883991 4.065505 1.972246 0
M  V30 43 H -4.576681 6.325171 0.956763 0
M  V30 44 H -2.349027 7.477174 1.117025 0
M  V30 45 H -0.540452 6.378449 2.251819 0
M  V30 46 H -0.394099 4.532769 4.423210 0
M  V30 47 H 0.470421 4.259802 2.865116 0
M  V30 48 H 0.292363 -4.059344 -0.027953 0
M  V30 49 H 4.519388 -5.815313 -1.264364 0
M  V30 50 H 4.168569 -8.305492 -1.303192 0
M  V30 END ATOM
M  V30 BEGIN BOND
M  V30 1 1 1 2
M  V30 2 2 2 3
M  V30 3 1 3 4
M  V30 4 1 4 5
M  V30 5 2 5 6
M  V30 6 1 6 7
M  V30 7 1 7 8
M  V30 8 2 8 9
M  V30 9 1 9 10
M  V30 10 1 10 11
M  V30 11 1 11 12
M  V30 12 2 12 13
M  V30 13 1 12 14
M  V30 14 1 14 15
M  V30 15 1 15 16
M  V30 16 1 16 17
M  V30 17 1 17 18
M  V30 18 2 18 19
M  V30 19 1 19 20
M  V30 20 2 20 21
M  V30 21 1 21 22
M  V30 22 2 22 23
M  V30 23 1 23 24
M  V30 24 2 10 25
M  V30 25 1 25 26
M  V30 26 2 26 27
M  V30 27 2 4 28
M  V30 28 1 28 29
M  V30 29 2 29 30
M  V30 30 1 30 2
M  V30 31 1 27 5
M  V30 32 1 27 8
M  V30 33 1 24 15
M  V30 34 1 23 18
M  V30 35 1 1 31
M  V30 36 1 1 32
M  V30 37 1 1 33
M  V30 38 1 3 34
M  V30 39 1 7 35
M  V30 40 1 9 36
M  V30 41 1 11 37
M  V30 42 1 14 38
M  V30 43 1 15 39
M  V30 44 1 16 40
M  V30 45 1 16 41
M  V30 46 1 19 42
M  V30 47 1 20 43
M  V30 48 1 21 44
M  V30 49 1 22 45
M  V30 50 1 24 46
M  V30 51 1 24 47
M  V30 52 1 26 48
M  V30 53 1 28 49
M  V30 54 1 29 50
M  V30 END BOND
M  V30 END CTAB
M  END
>  <Dataset>  (41) 
ChEMBL_Kinases

>  <Ligand_Instance>  (41) 
nan

>  <PDB_ID>  (41) 
nan

>  <Standardized_SMILES>  (41) 
Cc1cc(-c2n[nH]c3cc(NC(=O)NC4COc5ccccc5C4)ncc23)ccn1

>  <Name>  (41) 
nan

>  <Pocket>  (41) 
nan

>  <ATP_Site>  (41) 
nan

>  <Peripheral>  (41) 
nan

>  <Num_H_Atoms_ProtBoundConf>  (41) 
nan

>  <Num_Resolved_Atoms>  (41) 
nan

>  <Num_Not_Resolved_Atoms>  (41) 
nan

$$$$
CHEMBL3658828
     RDKit          3D

  0  0  0  0  0  0  0  0  0  0999 V3000
M  V30 BEGIN CTAB
M  V30 COUNTS 44 47 0 0 0
M  V30 BEGIN ATOM
M  V30 1 C -0.631834 -7.832895 0.336235 0
M  V30 2 C -0.793565 -6.605247 -0.463043 0
M  V30 3 C 0.094174 -5.554987 -0.466878 0
M  V30 4 C -0.043264 -4.400429 -1.208869 0
M  V30 5 C 0.993384 -3.352109 -1.112927 0
M  V30 6 N 2.323414 -3.574727 -1.141775 0
M  V30 7 N 3.004680 -2.444868 -1.036004 0
M  V30 8 C 2.094132 -1.458160 -0.935400 0
M  V30 9 C 2.252810 -0.084717 -0.803175 0
M  V30 10 C 1.097637 0.671377 -0.723594 0
M  V30 11 N 1.115625 2.091890 -0.586060 0
M  V30 12 C 1.131179 2.675619 0.710259 0
M  V30 13 O 1.128229 1.898013 1.686018 0
M  V30 14 N 1.149163 4.049505 0.929294 0
M  V30 15 C 1.162582 4.785214 2.177160 0
M  V30 16 C -0.012217 4.549144 3.060004 0
M  V30 17 C 0.253920 5.309033 4.359488 0
M  V30 18 N -0.320575 4.429447 5.376837 0
M  V30 19 C -0.680926 3.176435 4.802016 0
M  V30 20 O -1.288275 2.194526 5.309054 0
M  V30 21 O -0.204408 3.239575 3.480444 0
M  V30 22 N -0.161303 0.142262 -0.767984 0
M  V30 23 C -0.336339 -1.206595 -0.897737 0
M  V30 24 C 0.811400 -1.969788 -0.977968 0
M  V30 25 C -1.143738 -4.267796 -2.012895 0
M  V30 26 C -2.042493 -5.318473 -2.016124 0
M  V30 27 N -1.855052 -6.414363 -1.274073 0
M  V30 28 H -0.143051 -8.617885 -0.286621 0
M  V30 29 H -1.619849 -8.262105 0.637807 0
M  V30 30 H 0.031975 -7.671845 1.200727 0
M  V30 31 H 0.983743 -5.629522 0.164634 0
M  V30 32 H 4.040581 -2.356721 -1.033125 0
M  V30 33 H 3.214631 0.407671 -0.760716 0
M  V30 34 H 1.117644 2.722609 -1.433817 0
M  V30 35 H 1.153302 4.625689 0.034103 0
M  V30 36 H 2.066913 4.447314 2.770436 0
M  V30 37 H 1.289117 5.856338 2.016302 0
M  V30 38 H -0.943532 5.000619 2.647255 0
M  V30 39 H 1.341759 5.423959 4.536414 0
M  V30 40 H -0.231932 6.298910 4.377485 0
M  V30 41 H -0.451919 4.675710 6.383188 0
M  V30 42 H -1.320353 -1.658581 -0.936161 0
M  V30 43 H -1.287626 -3.379158 -2.609233 0
M  V30 44 H -2.941858 -5.280707 -2.633393 0
M  V30 END ATOM
M  V30 BEGIN BOND
M  V30 1 1 1 2
M  V30 2 2 2 3
M  V30 3 1 3 4
M  V30 4 1 4 5
M  V30 5 2 5 6
M  V30 6 1 6 7
M  V30 7 1 7 8
M  V30 8 2 8 9
M  V30 9 1 9 10
M  V30 10 1 10 11
M  V30 11 1 11 12
M  V30 12 2 12 13
M  V30 13 1 12 14
M  V30 14 1 14 15
M  V30 15 1 15 16
M  V30 16 1 16 17
M  V30 17 1 17 18
M  V30 18 1 18 19
M  V30 19 2 19 20
M  V30 20 1 19 21
M  V30 21 2 10 22
M  V30 22 1 22 23
M  V30 23 2 23 24
M  V30 24 2 4 25
M  V30 25 1 25 26
M  V30 26 2 26 27
M  V30 27 1 27 2
M  V30 28 1 24 5
M  V30 29 1 24 8
M  V30 30 1 21 16
M  V30 31 1 1 28
M  V30 32 1 1 29
M  V30 33 1 1 30
M  V30 34 1 3 31
M  V30 35 1 7 32
M  V30 36 1 9 33
M  V30 37 1 11 34
M  V30 38 1 14 35
M  V30 39 1 15 36
M  V30 40 1 15 37
M  V30 41 1 16 38
M  V30 42 1 17 39
M  V30 43 1 17 40
M  V30 44 1 18 41
M  V30 45 1 23 42
M  V30 46 1 25 43
M  V30 47 1 26 44
M  V30 END BOND
M  V30 END CTAB
M  END
>  <Dataset>  (42) 
ChEMBL_Kinases

>  <Ligand_Instance>  (42) 
nan

>  <PDB_ID>  (42) 
nan

>  <Standardized_SMILES>  (42) 
Cc1cc(-c2n[nH]c3cc(NC(=O)NCC4CNC(=O)O4)ncc23)ccn1

>  <Name>  (42) 
nan

>  <Pocket>  (42) 
nan

>  <ATP_Site>  (42) 
nan

>  <Peripheral>  (42) 
nan

>  <Num_H_Atoms_ProtBoundConf>  (42) 
nan

>  <Num_Resolved_Atoms>  (42) 
nan

>  <Num_Not_Resolved_Atoms>  (42) 
nan

$$$$
CHEMBL3658827
     RDKit          3D

  0  0  0  0  0  0  0  0  0  0999 V3000
M  V30 BEGIN CTAB
M  V30 COUNTS 40 43 0 0 0
M  V30 BEGIN ATOM
M  V30 1 C -3.371624 -6.371450 3.595220 0
M  V30 2 C -2.132530 -5.597483 3.233726 0
M  V30 3 C -2.230843 -4.239289 3.082858 0
M  V30 4 C -1.117261 -3.471190 2.748815 0
M  V30 5 C -1.264808 -2.034196 2.598434 0
M  V30 6 N -1.944252 -1.211840 3.443225 0
M  V30 7 N -1.866854 0.048174 2.987918 0
M  V30 8 C -1.138304 0.033129 1.852164 0
M  V30 9 C -0.802812 1.100075 1.044344 0
M  V30 10 C -0.041588 0.794287 -0.065367 0
M  V30 11 N 0.435847 1.702566 -1.053111 0
M  V30 12 C 1.708181 2.323611 -0.873360 0
M  V30 13 O 2.442650 2.110771 0.123288 0
M  V30 14 N 2.094503 3.205151 -1.901750 0
M  V30 15 C 3.364429 3.898964 -1.837988 0
M  V30 16 C 3.369781 5.316633 -2.349831 0
M  V30 17 O 4.635224 5.085678 -2.909080 0
M  V30 18 C 4.216009 3.753481 -3.078872 0
M  V30 19 N 0.356302 -0.476781 -0.350676 0
M  V30 20 C 0.020846 -1.525043 0.452131 0
M  V30 21 C -0.744919 -1.260942 1.580008 0
M  V30 22 C 0.070462 -4.161878 2.583506 0
M  V30 23 C 0.179496 -5.528495 2.733161 0
M  V30 24 N -0.950566 -6.182368 3.056261 0
M  V30 25 H -3.556614 -6.099260 4.675626 0
M  V30 26 H -4.204521 -5.901799 3.030559 0
M  V30 27 H -3.260003 -7.447078 3.459800 0
M  V30 28 H -3.203560 -3.762126 3.229439 0
M  V30 29 H -2.311844 0.880148 3.463378 0
M  V30 30 H -1.055078 2.125194 1.167072 0
M  V30 31 H -0.213016 1.849081 -1.868706 0
M  V30 32 H 1.545555 3.445370 -2.773405 0
M  V30 33 H 3.964522 3.680268 -0.953972 0
M  V30 34 H 3.405130 6.024488 -1.519080 0
M  V30 35 H 2.605685 5.470172 -3.117999 0
M  V30 36 H 3.676221 3.634471 -4.023276 0
M  V30 37 H 5.105293 3.086205 -2.916436 0
M  V30 38 H 0.326223 -2.541354 0.243967 0
M  V30 39 H 0.955055 -3.591674 2.323208 0
M  V30 40 H 1.137061 -6.012117 2.590630 0
M  V30 END ATOM
M  V30 BEGIN BOND
M  V30 1 1 1 2
M  V30 2 2 2 3
M  V30 3 1 3 4
M  V30 4 1 4 5
M  V30 5 2 5 6
M  V30 6 1 6 7
M  V30 7 1 7 8
M  V30 8 2 8 9
M  V30 9 1 9 10
M  V30 10 1 10 11
M  V30 11 1 11 12
M  V30 12 2 12 13
M  V30 13 1 12 14
M  V30 14 1 14 15
M  V30 15 1 15 16
M  V30 16 1 16 17
M  V30 17 1 17 18
M  V30 18 2 10 19
M  V30 19 1 19 20
M  V30 20 2 20 21
M  V30 21 2 4 22
M  V30 22 1 22 23
M  V30 23 2 23 24
M  V30 24 1 24 2
M  V30 25 1 21 5
M  V30 26 1 21 8
M  V30 27 1 18 15
M  V30 28 1 1 25
M  V30 29 1 1 26
M  V30 30 1 1 27
M  V30 31 1 3 28
M  V30 32 1 7 29
M  V30 33 1 9 30
M  V30 34 1 11 31
M  V30 35 1 14 32
M  V30 36 1 15 33
M  V30 37 1 16 34
M  V30 38 1 16 35
M  V30 39 1 18 36
M  V30 40 1 18 37
M  V30 41 1 20 38
M  V30 42 1 22 39
M  V30 43 1 23 40
M  V30 END BOND
M  V30 END CTAB
M  END
>  <Dataset>  (43) 
ChEMBL_Kinases

>  <Ligand_Instance>  (43) 
nan

>  <PDB_ID>  (43) 
nan

>  <Standardized_SMILES>  (43) 
Cc1cc(-c2n[nH]c3cc(NC(=O)NC4COC4)ncc23)ccn1

>  <Name>  (43) 
nan

>  <Pocket>  (43) 
nan

>  <ATP_Site>  (43) 
nan

>  <Peripheral>  (43) 
nan

>  <Num_H_Atoms_ProtBoundConf>  (43) 
nan

>  <Num_Resolved_Atoms>  (43) 
nan

>  <Num_Not_Resolved_Atoms>  (43) 
nan

$$$$
CHEMBL3658826
     RDKit          3D

  0  0  0  0  0  0  0  0  0  0999 V3000
M  V30 BEGIN CTAB
M  V30 COUNTS 47 50 0 0 0
M  V30 BEGIN ATOM
M  V30 1 C -1.698733 -8.012416 0.361187 0
M  V30 2 C -1.778643 -6.759851 -0.447496 0
M  V30 3 C -0.778297 -5.791818 -0.535676 0
M  V30 4 C -1.006024 -4.674532 -1.336095 0
M  V30 5 C 0.135786 -3.745823 -1.328647 0
M  V30 6 N 1.452769 -4.072454 -1.448514 0
M  V30 7 N 2.190772 -2.972493 -1.397775 0
M  V30 8 C 1.411352 -1.871709 -1.243438 0
M  V30 9 C 1.665842 -0.516076 -1.136216 0
M  V30 10 C 0.595718 0.352023 -0.983431 0
M  V30 11 N 0.874498 1.747188 -0.874211 0
M  V30 12 C 1.099491 2.347475 0.395542 0
M  V30 13 O 1.036261 1.578556 1.387893 0
M  V30 14 N 1.377975 3.700526 0.595849 0
M  V30 15 C 1.615800 4.399247 1.825351 0
M  V30 16 C 0.505501 4.374547 2.815343 0
M  V30 17 C 0.989349 5.151019 4.038362 0
M  V30 18 O 1.778758 4.365576 4.853952 0
M  V30 19 C 1.104261 3.306612 5.430113 0
M  V30 20 C -0.169623 3.115150 4.631046 0
M  V30 21 O 0.112606 3.143962 3.266598 0
M  V30 22 N -0.676545 -0.137872 -0.941657 0
M  V30 23 C -0.919782 -1.465736 -1.047094 0
M  V30 24 C 0.110068 -2.369199 -1.200381 0
M  V30 25 C -2.173135 -4.518962 -2.021398 0
M  V30 26 C -3.115746 -5.514327 -1.887273 0
M  V30 27 N -2.944341 -6.615376 -1.125279 0
M  V30 28 H -1.656127 -8.899948 -0.308268 0
M  V30 29 H -2.621631 -8.154397 0.968628 0
M  V30 30 H -0.859779 -7.967246 1.074089 0
M  V30 31 H 0.096794 -6.029417 0.052349 0
M  V30 32 H 3.247290 -2.895900 -1.462813 0
M  V30 33 H 2.701163 -0.150554 -1.173257 0
M  V30 34 H 0.922188 2.372253 -1.724103 0
M  V30 35 H 1.406581 4.243705 -0.319647 0
M  V30 36 H 2.524930 3.998001 2.363627 0
M  V30 37 H 1.864328 5.454984 1.628523 0
M  V30 38 H -0.396238 4.926664 2.470648 0
M  V30 39 H 1.630332 5.976017 3.663097 0
M  V30 40 H 0.140425 5.636972 4.559866 0
M  V30 41 H 0.830208 3.521128 6.477181 0
M  V30 42 H 1.722103 2.382566 5.446911 0
M  V30 43 H -0.898631 3.860159 4.958613 0
M  V30 44 H -0.591572 2.103564 4.842049 0
M  V30 45 H -1.948180 -1.816703 -1.009190 0
M  V30 46 H -2.269247 -3.637997 -2.610344 0
M  V30 47 H -4.050791 -5.411359 -2.423019 0
M  V30 END ATOM
M  V30 BEGIN BOND
M  V30 1 1 1 2
M  V30 2 2 2 3
M  V30 3 1 3 4
M  V30 4 1 4 5
M  V30 5 2 5 6
M  V30 6 1 6 7
M  V30 7 1 7 8
M  V30 8 2 8 9
M  V30 9 1 9 10
M  V30 10 1 10 11
M  V30 11 1 11 12
M  V30 12 2 12 13
M  V30 13 1 12 14
M  V30 14 1 14 15
M  V30 15 1 15 16
M  V30 16 1 16 17
M  V30 17 1 17 18
M  V30 18 1 18 19
M  V30 19 1 19 20
M  V30 20 1 20 21
M  V30 21 2 10 22
M  V30 22 1 22 23
M  V30 23 2 23 24
M  V30 24 2 4 25
M  V30 25 1 25 26
M  V30 26 2 26 27
M  V30 27 1 27 2
M  V30 28 1 24 5
M  V30 29 1 24 8
M  V30 30 1 21 16
M  V30 31 1 1 28
M  V30 32 1 1 29
M  V30 33 1 1 30
M  V30 34 1 3 31
M  V30 35 1 7 32
M  V30 36 1 9 33
M  V30 37 1 11 34
M  V30 38 1 14 35
M  V30 39 1 15 36
M  V30 40 1 15 37
M  V30 41 1 16 38
M  V30 42 1 17 39
M  V30 43 1 17 40
M  V30 44 1 19 41
M  V30 45 1 19 42
M  V30 46 1 20 43
M  V30 47 1 20 44
M  V30 48 1 23 45
M  V30 49 1 25 46
M  V30 50 1 26 47
M  V30 END BOND
M  V30 END CTAB
M  END
>  <Dataset>  (44) 
ChEMBL_Kinases

>  <Ligand_Instance>  (44) 
nan

>  <PDB_ID>  (44) 
nan

>  <Standardized_SMILES>  (44) 
Cc1cc(-c2n[nH]c3cc(NC(=O)NCC4COCCO4)ncc23)ccn1

>  <Name>  (44) 
nan

>  <Pocket>  (44) 
nan

>  <ATP_Site>  (44) 
nan

>  <Peripheral>  (44) 
nan

>  <Num_H_Atoms_ProtBoundConf>  (44) 
nan

>  <Num_Resolved_Atoms>  (44) 
nan

>  <Num_Not_Resolved_Atoms>  (44) 
nan

$$$$
CHEMBL3658825
     RDKit          3D

  0  0  0  0  0  0  0  0  0  0999 V3000
M  V30 BEGIN CTAB
M  V30 COUNTS 49 52 0 0 0
M  V30 BEGIN ATOM
M  V30 1 C -7.257145 -4.539321 0.294514 0
M  V30 2 C -6.082424 -4.287707 -0.569272 0
M  V30 3 C -4.808083 -4.237610 -0.035021 0
M  V30 4 C -3.765787 -3.999450 -0.905013 0
M  V30 5 C -2.430084 -3.954497 -0.272291 0
M  V30 6 N -1.880824 -4.798750 0.634982 0
M  V30 7 N -0.658759 -4.391743 0.946656 0
M  V30 8 C -0.408404 -3.275186 0.238896 0
M  V30 9 C 0.741689 -2.510917 0.249280 0
M  V30 10 C 0.786828 -1.393225 -0.560844 0
M  V30 11 N 1.808834 -0.423571 -0.765700 0
M  V30 12 C 1.818637 0.733668 0.053431 0
M  V30 13 O 0.921754 0.838651 0.923670 0
M  V30 14 N 2.756094 1.786399 -0.025395 0
M  V30 15 C 3.024754 3.010957 0.630928 0
M  V30 16 C 3.374491 2.996776 2.069171 0
M  V30 17 C 2.346610 2.458388 3.004994 0
M  V30 18 C 4.728363 2.395386 2.360481 0
M  V30 19 C 4.997168 2.960633 3.744462 0
M  V30 20 C 4.300539 4.293988 3.639936 0
M  V30 21 O 3.614560 4.330179 2.454789 0
M  V30 22 N -0.284106 -1.094627 -1.323074 0
M  V30 23 C -1.418367 -1.827258 -1.348983 0
M  V30 24 C -1.498661 -2.958569 -0.546732 0
M  V30 25 C -3.875344 -3.806783 -2.260494 0
M  V30 26 C -5.184919 -3.871656 -2.719775 0
M  V30 27 N -6.204702 -4.100198 -1.894939 0
M  V30 28 H -7.168558 -5.459556 0.912032 0
M  V30 29 H -8.143636 -4.678127 -0.363657 0
M  V30 30 H -7.451401 -3.717059 1.008217 0
M  V30 31 H -4.648687 -4.381717 1.031344 0
M  V30 32 H -0.006638 -4.861878 1.626512 0
M  V30 33 H 1.645850 -2.646643 0.806465 0
M  V30 34 H 2.540171 -0.523409 -1.483649 0
M  V30 35 H 3.447647 1.567773 -0.810994 0
M  V30 36 H 3.703870 3.645811 0.026184 0
M  V30 37 H 2.041243 3.602474 0.571107 0
M  V30 38 H 2.398822 1.357360 3.114643 0
M  V30 39 H 2.554854 2.824095 4.066846 0
M  V30 40 H 1.346844 2.816511 2.695859 0
M  V30 41 H 5.488013 2.726829 1.624869 0
M  V30 42 H 4.731138 1.301372 2.455504 0
M  V30 43 H 6.068297 3.071768 3.960240 0
M  V30 44 H 4.490537 2.288475 4.496122 0
M  V30 45 H 5.091756 5.083444 3.632973 0
M  V30 46 H 3.683067 4.479272 4.523820 0
M  V30 47 H -2.276554 -1.584138 -1.959852 0
M  V30 48 H -3.047496 -3.626020 -2.915618 0
M  V30 49 H -5.358949 -3.728044 -3.792025 0
M  V30 END ATOM
M  V30 BEGIN BOND
M  V30 1 1 1 2
M  V30 2 2 2 3
M  V30 3 1 3 4
M  V30 4 1 4 5
M  V30 5 2 5 6
M  V30 6 1 6 7
M  V30 7 1 7 8
M  V30 8 2 8 9
M  V30 9 1 9 10
M  V30 10 1 10 11
M  V30 11 1 11 12
M  V30 12 2 12 13
M  V30 13 1 12 14
M  V30 14 1 14 15
M  V30 15 1 15 16
M  V30 16 1 16 17
M  V30 17 1 16 18
M  V30 18 1 18 19
M  V30 19 1 19 20
M  V30 20 1 20 21
M  V30 21 2 10 22
M  V30 22 1 22 23
M  V30 23 2 23 24
M  V30 24 2 4 25
M  V30 25 1 25 26
M  V30 26 2 26 27
M  V30 27 1 27 2
M  V30 28 1 24 5
M  V30 29 1 24 8
M  V30 30 1 21 16
M  V30 31 1 1 28
M  V30 32 1 1 29
M  V30 33 1 1 30
M  V30 34 1 3 31
M  V30 35 1 7 32
M  V30 36 1 9 33
M  V30 37 1 11 34
M  V30 38 1 14 35
M  V30 39 1 15 36
M  V30 40 1 15 37
M  V30 41 1 17 38
M  V30 42 1 17 39
M  V30 43 1 17 40
M  V30 44 1 18 41
M  V30 45 1 18 42
M  V30 46 1 19 43
M  V30 47 1 19 44
M  V30 48 1 20 45
M  V30 49 1 20 46
M  V30 50 1 23 47
M  V30 51 1 25 48
M  V30 52 1 26 49
M  V30 END BOND
M  V30 END CTAB
M  END
>  <Dataset>  (45) 
ChEMBL_Kinases

>  <Ligand_Instance>  (45) 
nan

>  <PDB_ID>  (45) 
nan

>  <Standardized_SMILES>  (45) 
Cc1cc(-c2n[nH]c3cc(NC(=O)NCC4(C)CCCO4)ncc23)ccn1

>  <Name>  (45) 
nan

>  <Pocket>  (45) 
nan

>  <ATP_Site>  (45) 
nan

>  <Peripheral>  (45) 
nan

>  <Num_H_Atoms_ProtBoundConf>  (45) 
nan

>  <Num_Resolved_Atoms>  (45) 
nan

>  <Num_Not_Resolved_Atoms>  (45) 
nan

$$$$
CHEMBL3658824
     RDKit          3D

  0  0  0  0  0  0  0  0  0  0999 V3000
M  V30 BEGIN CTAB
M  V30 COUNTS 38 40 0 0 0
M  V30 BEGIN ATOM
M  V30 1 C -0.269996 -6.417751 0.581171 0
M  V30 2 C 0.730164 -5.597629 1.327941 0
M  V30 3 C 1.062442 -4.353984 0.855151 0
M  V30 4 C 1.972621 -3.511086 1.463071 0
M  V30 5 C 2.320815 -2.186939 0.952122 0
M  V30 6 N 3.524352 -1.607920 0.811590 0
M  V30 7 N 3.425259 -0.390697 0.308869 0
M  V30 8 C 2.114233 -0.077760 0.078268 0
M  V30 9 C 1.425605 1.014610 -0.420161 0
M  V30 10 C 0.044296 1.005205 -0.525234 0
M  V30 11 N -0.597291 2.168889 -1.048948 0
M  V30 12 C -1.027111 3.237311 -0.233809 0
M  V30 13 O -0.792765 3.073519 1.012197 0
M  V30 14 N -1.668825 4.411279 -0.717108 0
M  V30 15 C -2.051939 5.423648 0.251841 0
M  V30 16 C -3.003984 4.896842 1.259787 0
M  V30 17 O -3.504625 5.553320 2.219291 0
M  V30 18 O -3.857108 4.128959 2.026911 0
M  V30 19 N -0.600584 -0.108610 -0.123216 0
M  V30 20 C 0.068784 -1.176046 0.363556 0
M  V30 21 C 1.453213 -1.218844 0.490102 0
M  V30 22 C 2.552943 -4.022276 2.629042 0
M  V30 23 C 2.236379 -5.271990 3.127636 0
M  V30 24 N 1.337232 -6.009107 2.456148 0
M  V30 25 H -0.599262 -7.297341 1.130699 0
M  V30 26 H -1.129134 -5.715151 0.395739 0
M  V30 27 H 0.159563 -6.681145 -0.409929 0
M  V30 28 H 0.581051 -4.014826 -0.049037 0
M  V30 29 H 4.201572 0.289493 0.093522 0
M  V30 30 H 2.063050 1.835969 -0.703860 0
M  V30 31 H -0.753233 2.230840 -2.068014 0
M  V30 32 H -1.839803 4.498316 -1.757304 0
M  V30 33 H -2.539198 6.239636 -0.282729 0
M  V30 34 H -1.169473 5.789349 0.806846 0
M  V30 35 H -3.838833 3.120548 1.911089 0
M  V30 36 H -0.545419 -2.016642 0.656904 0
M  V30 37 H 3.278863 -3.438576 3.179629 0
M  V30 38 H 2.710864 -5.624547 4.032410 0
M  V30 END ATOM
M  V30 BEGIN BOND
M  V30 1 1 1 2
M  V30 2 2 2 3
M  V30 3 1 3 4
M  V30 4 1 4 5
M  V30 5 2 5 6
M  V30 6 1 6 7
M  V30 7 1 7 8
M  V30 8 2 8 9
M  V30 9 1 9 10
M  V30 10 1 10 11
M  V30 11 1 11 12
M  V30 12 2 12 13
M  V30 13 1 12 14
M  V30 14 1 14 15
M  V30 15 1 15 16
M  V30 16 2 16 17
M  V30 17 1 16 18
M  V30 18 2 10 19
M  V30 19 1 19 20
M  V30 20 2 20 21
M  V30 21 2 4 22
M  V30 22 1 22 23
M  V30 23 2 23 24
M  V30 24 1 24 2
M  V30 25 1 21 5
M  V30 26 1 21 8
M  V30 27 1 1 25
M  V30 28 1 1 26
M  V30 29 1 1 27
M  V30 30 1 3 28
M  V30 31 1 7 29
M  V30 32 1 9 30
M  V30 33 1 11 31
M  V30 34 1 14 32
M  V30 35 1 15 33
M  V30 36 1 15 34
M  V30 37 1 18 35
M  V30 38 1 20 36
M  V30 39 1 22 37
M  V30 40 1 23 38
M  V30 END BOND
M  V30 END CTAB
M  END
>  <Dataset>  (46) 
ChEMBL_Kinases

>  <Ligand_Instance>  (46) 
nan

>  <PDB_ID>  (46) 
nan

>  <Standardized_SMILES>  (46) 
Cc1cc(-c2n[nH]c3cc(NC(=O)NCC(=O)O)ncc23)ccn1

>  <Name>  (46) 
nan

>  <Pocket>  (46) 
nan

>  <ATP_Site>  (46) 
nan

>  <Peripheral>  (46) 
nan

>  <Num_H_Atoms_ProtBoundConf>  (46) 
nan

>  <Num_Resolved_Atoms>  (46) 
nan

>  <Num_Not_Resolved_Atoms>  (46) 
nan

$$$$
CHEMBL3658823
     RDKit          3D

  0  0  0  0  0  0  0  0  0  0999 V3000
M  V30 BEGIN CTAB
M  V30 COUNTS 44 46 0 0 0
M  V30 BEGIN ATOM
M  V30 1 C 4.541935 -5.845442 -2.217391 0
M  V30 2 O 3.830279 -5.163879 -1.172915 0
M  V30 3 C 2.591538 -5.613109 -0.740223 0
M  V30 4 O 2.154763 -6.653873 -1.335066 0
M  V30 5 C 1.795246 -4.962910 0.333289 0 CFG=1
M  V30 6 C 1.599790 -6.034630 1.409168 0
M  V30 7 N 2.478384 -3.798658 0.870990 0
M  V30 8 C 1.782341 -2.567450 0.885968 0
M  V30 9 O 0.591874 -2.497319 0.437660 0
M  V30 10 N 2.410832 -1.406531 1.401548 0
M  V30 11 C 1.683402 -0.161891 1.407439 0
M  V30 12 C 2.247812 0.999051 1.897998 0
M  V30 13 C 1.474447 2.165954 1.867908 0
M  V30 14 N 1.708670 3.434099 2.254584 0
M  V30 15 N 0.624281 4.185359 2.006354 0
M  V30 16 C -0.352540 3.443569 1.452455 0
M  V30 17 C -1.682737 3.881998 1.035481 0
M  V30 18 C -1.907317 5.053191 0.313908 0
M  V30 19 C -3.178051 5.445327 -0.068574 0
M  V30 20 N -4.241841 4.685616 0.256957 0
M  V30 21 C -4.101928 3.540273 0.953207 0
M  V30 22 C -5.283684 2.706050 1.309067 0
M  V30 23 C -2.827303 3.165268 1.325980 0
M  V30 24 C 0.184944 2.174823 1.366775 0
M  V30 25 C -0.334906 0.998658 0.890060 0
M  V30 26 N 0.426561 -0.110562 0.928937 0
M  V30 27 H 3.907833 -5.971586 -3.098802 0
M  V30 28 H 5.481217 -5.321326 -2.424956 0
M  V30 29 H 4.806940 -6.859405 -1.826294 0
M  V30 30 H 0.771942 -4.708671 -0.007016 0
M  V30 31 H 2.323357 -6.860576 1.300392 0
M  V30 32 H 0.575461 -6.446829 1.415490 0
M  V30 33 H 1.833792 -5.544848 2.386359 0
M  V30 34 H 3.450531 -3.929983 1.219853 0
M  V30 35 H 3.365844 -1.447348 1.764781 0
M  V30 36 H 3.254814 1.006702 2.292746 0
M  V30 37 H 2.609098 3.724404 2.673545 0
M  V30 38 H -1.046502 5.668720 0.050041 0
M  V30 39 H -3.335913 6.356931 -0.628213 0
M  V30 40 H -5.761132 3.115919 2.218614 0
M  V30 41 H -4.915168 1.673596 1.577674 0
M  V30 42 H -6.044478 2.653792 0.527765 0
M  V30 43 H -2.763601 2.240129 1.882566 0
M  V30 44 H -1.332941 0.916574 0.481477 0
M  V30 END ATOM
M  V30 BEGIN BOND
M  V30 1 1 1 2
M  V30 2 1 2 3
M  V30 3 2 3 4
M  V30 4 1 3 5
M  V30 5 1 5 6
M  V30 6 1 5 7
M  V30 7 1 7 8
M  V30 8 2 8 9
M  V30 9 1 8 10
M  V30 10 1 10 11
M  V30 11 2 11 12
M  V30 12 1 12 13
M  V30 13 1 13 14
M  V30 14 1 14 15
M  V30 15 2 15 16
M  V30 16 1 16 17
M  V30 17 2 17 18
M  V30 18 1 18 19
M  V30 19 2 19 20
M  V30 20 1 20 21
M  V30 21 1 21 22
M  V30 22 2 21 23
M  V30 23 1 16 24
M  V30 24 1 24 25
M  V30 25 2 25 26
M  V30 26 1 26 11
M  V30 27 2 24 13
M  V30 28 1 23 17
M  V30 29 1 1 27
M  V30 30 1 1 28
M  V30 31 1 1 29
M  V30 32 1 5 30 CFG=3
M  V30 33 1 6 31
M  V30 34 1 6 32
M  V30 35 1 6 33
M  V30 36 1 7 34
M  V30 37 1 10 35
M  V30 38 1 12 36
M  V30 39 1 14 37
M  V30 40 1 18 38
M  V30 41 1 19 39
M  V30 42 1 22 40
M  V30 43 1 22 41
M  V30 44 1 22 42
M  V30 45 1 23 43
M  V30 46 1 25 44
M  V30 END BOND
M  V30 END CTAB
M  END
>  <Dataset>  (47) 
ChEMBL_Kinases

>  <Ligand_Instance>  (47) 
nan

>  <PDB_ID>  (47) 
nan

>  <Standardized_SMILES>  (47) 
COC(=O)[C@@H](C)NC(=O)Nc1cc2[nH]nc(-c3ccnc(C)c3)c2cn1

>  <Name>  (47) 
nan

>  <Pocket>  (47) 
nan

>  <ATP_Site>  (47) 
nan

>  <Peripheral>  (47) 
nan

>  <Num_H_Atoms_ProtBoundConf>  (47) 
nan

>  <Num_Resolved_Atoms>  (47) 
nan

>  <Num_Not_Resolved_Atoms>  (47) 
nan

$$$$
CHEMBL3658822
     RDKit          3D

  0  0  0  0  0  0  0  0  0  0999 V3000
M  V30 BEGIN CTAB
M  V30 COUNTS 50 52 0 0 0
M  V30 BEGIN ATOM
M  V30 1 C 2.562953 -6.992621 -2.238305 0
M  V30 2 O 1.419495 -6.213854 -1.854890 0
M  V30 3 C 1.282931 -4.892617 -2.180782 0
M  V30 4 O 2.312923 -4.586569 -2.831009 0
M  V30 5 C 0.075757 -4.152195 -1.751272 0 CFG=1
M  V30 6 N 0.093594 -2.772159 -2.177535 0
M  V30 7 C 0.145399 -1.752305 -1.179704 0
M  V30 8 O 0.174958 -2.060195 0.059352 0
M  V30 9 N 0.162750 -0.379184 -1.622582 0
M  V30 10 C 0.215113 0.574334 -0.558232 0
M  V30 11 C 1.464375 0.972725 -0.119213 0
M  V30 12 C 1.628127 1.890015 0.904306 0
M  V30 13 N 2.659989 2.474546 1.552266 0
M  V30 14 N 2.124518 3.295086 2.471058 0
M  V30 15 C 0.779396 3.246237 2.422759 0
M  V30 16 C -0.018416 4.070050 3.346560 0
M  V30 17 C -1.113693 4.800104 2.938028 0
M  V30 18 C -1.785418 5.538141 3.902313 0
M  V30 19 N -1.405089 5.560225 5.197485 0
M  V30 20 C -0.338702 4.855566 5.620930 0
M  V30 21 C 0.180478 4.795283 7.010793 0
M  V30 22 C 0.357554 4.107829 4.693599 0
M  V30 23 C 0.435044 2.353979 1.427956 0
M  V30 24 C -0.833625 1.989242 1.026595 0
M  V30 25 N -0.909200 1.084495 0.016677 0
M  V30 26 C -1.170482 -4.877793 -2.171028 0
M  V30 27 C -1.219560 -6.256190 -1.555434 0
M  V30 28 C -2.428207 -4.151084 -1.839876 0
M  V30 29 H 2.706194 -6.785592 -3.324524 0
M  V30 30 H 3.459448 -6.728046 -1.636821 0
M  V30 31 H 2.274435 -8.049875 -2.081251 0
M  V30 32 H 0.109062 -4.160244 -0.631823 0
M  V30 33 H 0.068029 -2.571565 -3.196782 0
M  V30 34 H 0.139077 -0.105352 -2.635385 0
M  V30 35 H 2.379200 0.567400 -0.576069 0
M  V30 36 H 3.649460 2.296069 1.348380 0
M  V30 37 H -1.414839 4.778058 1.893434 0
M  V30 38 H -2.638559 6.117412 3.628482 0
M  V30 39 H -0.578152 5.226983 7.674053 0
M  V30 40 H 1.121705 5.375394 7.138298 0
M  V30 41 H 0.425945 3.741497 7.299142 0
M  V30 42 H 1.237411 3.510922 4.978015 0
M  V30 43 H -1.709410 2.405906 1.495932 0
M  V30 44 H -1.131662 -4.993140 -3.270761 0
M  V30 45 H -2.268719 -6.530606 -1.322481 0
M  V30 46 H -0.758379 -6.964002 -2.248337 0
M  V30 47 H -0.597600 -6.263986 -0.612880 0
M  V30 48 H -2.733325 -3.430296 -2.625849 0
M  V30 49 H -2.437091 -3.678819 -0.837705 0
M  V30 50 H -3.253671 -4.920646 -1.796617 0
M  V30 END ATOM
M  V30 BEGIN BOND
M  V30 1 1 1 2
M  V30 2 1 2 3
M  V30 3 2 3 4
M  V30 4 1 3 5
M  V30 5 1 5 6
M  V30 6 1 6 7
M  V30 7 2 7 8
M  V30 8 1 7 9
M  V30 9 1 9 10
M  V30 10 2 10 11
M  V30 11 1 11 12
M  V30 12 1 12 13
M  V30 13 1 13 14
M  V30 14 2 14 15
M  V30 15 1 15 16
M  V30 16 2 16 17
M  V30 17 1 17 18
M  V30 18 2 18 19
M  V30 19 1 19 20
M  V30 20 1 20 21
M  V30 21 2 20 22
M  V30 22 1 15 23
M  V30 23 1 23 24
M  V30 24 2 24 25
M  V30 25 1 5 26
M  V30 26 1 26 27
M  V30 27 1 26 28
M  V30 28 1 25 10
M  V30 29 2 23 12
M  V30 30 1 22 16
M  V30 31 1 1 29
M  V30 32 1 1 30
M  V30 33 1 1 31
M  V30 34 1 5 32 CFG=1
M  V30 35 1 6 33
M  V30 36 1 9 34
M  V30 37 1 11 35
M  V30 38 1 13 36
M  V30 39 1 17 37
M  V30 40 1 18 38
M  V30 41 1 21 39
M  V30 42 1 21 40
M  V30 43 1 21 41
M  V30 44 1 22 42
M  V30 45 1 24 43
M  V30 46 1 26 44
M  V30 47 1 27 45
M  V30 48 1 27 46
M  V30 49 1 27 47
M  V30 50 1 28 48
M  V30 51 1 28 49
M  V30 52 1 28 50
M  V30 END BOND
M  V30 END CTAB
M  END
>  <Dataset>  (48) 
ChEMBL_Kinases

>  <Ligand_Instance>  (48) 
nan

>  <PDB_ID>  (48) 
nan

>  <Standardized_SMILES>  (48) 
COC(=O)[C@@H](NC(=O)Nc1cc2[nH]nc(-c3ccnc(C)c3)c2cn1)C(C)C

>  <Name>  (48) 
nan

>  <Pocket>  (48) 
nan

>  <ATP_Site>  (48) 
nan

>  <Peripheral>  (48) 
nan

>  <Num_H_Atoms_ProtBoundConf>  (48) 
nan

>  <Num_Resolved_Atoms>  (48) 
nan

>  <Num_Not_Resolved_Atoms>  (48) 
nan

$$$$
CHEMBL3658821
     RDKit          3D

  0  0  0  0  0  0  0  0  0  0999 V3000
M  V30 BEGIN CTAB
M  V30 COUNTS 51 55 0 0 0
M  V30 BEGIN ATOM
M  V30 1 C 4.178270 -7.375886 3.235996 0
M  V30 2 C 3.410009 -6.947423 2.045314 0
M  V30 3 C 3.598942 -5.659597 1.593601 0
M  V30 4 C 2.940472 -5.123080 0.482642 0
M  V30 5 C 3.226282 -3.741926 0.102303 0
M  V30 6 N 4.491638 -3.289720 0.063246 0
M  V30 7 N 4.540572 -2.018762 -0.302352 0
M  V30 8 C 3.267792 -1.631187 -0.507760 0
M  V30 9 C 2.631299 -0.455765 -0.895578 0
M  V30 10 C 1.243546 -0.406106 -1.011207 0
M  V30 11 N 0.707729 0.851390 -1.415540 0
M  V30 12 C 0.346314 1.840517 -0.438491 0
M  V30 13 O 0.530740 1.527436 0.765580 0
M  V30 14 N -0.181807 3.083149 -0.812022 0
M  V30 15 C -0.568489 4.127293 0.119552 0
M  V30 16 C -1.643022 3.569164 1.014717 0
M  V30 17 C -2.201386 4.624296 1.945320 0
M  V30 18 O -3.265720 4.030426 2.679740 0
M  V30 19 C -4.297619 3.351533 2.030342 0
M  V30 20 C -5.552865 3.074295 2.554999 0
M  V30 21 C -6.463691 2.390272 1.778635 0
M  V30 22 C -6.150883 1.972978 0.482359 0
M  V30 23 C -4.892514 2.268635 -0.001110 0
M  V30 24 C -3.955164 2.950270 0.744421 0
M  V30 25 O -2.719728 3.195682 0.162261 0
M  V30 26 N 0.470788 -1.489665 -0.752840 0
M  V30 27 C 1.035837 -2.669572 -0.368927 0
M  V30 28 C 2.410534 -2.685777 -0.263962 0
M  V30 29 C 2.058813 -5.959822 -0.173826 0
M  V30 30 C 1.887675 -7.248387 0.300555 0
M  V30 31 N 2.544242 -7.730102 1.379845 0
M  V30 32 H 3.569447 -7.036109 4.119247 0
M  V30 33 H 4.186306 -8.477997 3.259621 0
M  V30 34 H 5.173480 -6.908037 3.257756 0
M  V30 35 H 4.302391 -4.997842 2.120482 0
M  V30 36 H 5.345274 -1.366584 -0.433121 0
M  V30 37 H 3.252568 0.409668 -1.101639 0
M  V30 38 H 0.579771 1.046701 -2.445094 0
M  V30 39 H -0.291113 3.232684 -1.855989 0
M  V30 40 H 0.364782 4.323498 0.724547 0
M  V30 41 H -0.911104 5.012599 -0.411907 0
M  V30 42 H -1.258415 2.750233 1.631773 0
M  V30 43 H -1.453151 4.966012 2.693816 0
M  V30 44 H -2.604368 5.475252 1.370056 0
M  V30 45 H -5.722035 3.423216 3.551409 0
M  V30 46 H -7.420045 2.210720 2.254274 0
M  V30 47 H -6.918076 1.435897 -0.077967 0
M  V30 48 H -4.748471 1.900466 -1.019768 0
M  V30 49 H 0.444035 -3.545555 -0.157662 0
M  V30 50 H 1.543794 -5.565577 -1.029167 0
M  V30 51 H 1.184031 -7.840509 -0.263819 0
M  V30 END ATOM
M  V30 BEGIN BOND
M  V30 1 1 1 2
M  V30 2 2 2 3
M  V30 3 1 3 4
M  V30 4 1 4 5
M  V30 5 2 5 6
M  V30 6 1 6 7
M  V30 7 1 7 8
M  V30 8 2 8 9
M  V30 9 1 9 10
M  V30 10 1 10 11
M  V30 11 1 11 12
M  V30 12 2 12 13
M  V30 13 1 12 14
M  V30 14 1 14 15
M  V30 15 1 15 16
M  V30 16 1 16 17
M  V30 17 1 17 18
M  V30 18 1 18 19
M  V30 19 2 19 20
M  V30 20 1 20 21
M  V30 21 2 21 22
M  V30 22 1 22 23
M  V30 23 2 23 24
M  V30 24 1 24 25
M  V30 25 2 10 26
M  V30 26 1 26 27
M  V30 27 2 27 28
M  V30 28 2 4 29
M  V30 29 1 29 30
M  V30 30 2 30 31
M  V30 31 1 31 2
M  V30 32 1 28 5
M  V30 33 1 28 8
M  V30 34 1 25 16
M  V30 35 1 24 19
M  V30 36 1 1 32
M  V30 37 1 1 33
M  V30 38 1 1 34
M  V30 39 1 3 35
M  V30 40 1 7 36
M  V30 41 1 9 37
M  V30 42 1 11 38
M  V30 43 1 14 39
M  V30 44 1 15 40
M  V30 45 1 15 41
M  V30 46 1 16 42
M  V30 47 1 17 43
M  V30 48 1 17 44
M  V30 49 1 20 45
M  V30 50 1 21 46
M  V30 51 1 22 47
M  V30 52 1 23 48
M  V30 53 1 27 49
M  V30 54 1 29 50
M  V30 55 1 30 51
M  V30 END BOND
M  V30 END CTAB
M  END
>  <Dataset>  (49) 
ChEMBL_Kinases

>  <Ligand_Instance>  (49) 
nan

>  <PDB_ID>  (49) 
nan

>  <Standardized_SMILES>  (49) 
Cc1cc(-c2n[nH]c3cc(NC(=O)NCC4COc5ccccc5O4)ncc23)ccn1

>  <Name>  (49) 
nan

>  <Pocket>  (49) 
nan

>  <ATP_Site>  (49) 
nan

>  <Peripheral>  (49) 
nan

>  <Num_H_Atoms_ProtBoundConf>  (49) 
nan

>  <Num_Resolved_Atoms>  (49) 
nan

>  <Num_Not_Resolved_Atoms>  (49) 
nan

$$$$
CHEMBL3658820
     RDKit          3D

  0  0  0  0  0  0  0  0  0  0999 V3000
M  V30 BEGIN CTAB
M  V30 COUNTS 46 49 0 0 0
M  V30 BEGIN ATOM
M  V30 1 C -4.813509 -6.921342 1.010541 0
M  V30 2 C -4.749381 -5.552687 0.435619 0
M  V30 3 C -3.567830 -4.911781 0.156957 0
M  V30 4 C -3.510833 -3.632406 -0.380436 0
M  V30 5 C -2.217087 -3.015858 -0.649796 0
M  V30 6 N -1.247131 -3.738107 -1.257595 0
M  V30 7 N -0.160788 -2.960524 -1.394738 0
M  V30 8 C -0.450082 -1.737782 -0.868315 0
M  V30 9 C 0.256501 -0.572665 -0.731597 0
M  V30 10 C -0.354981 0.528241 -0.127229 0
M  V30 11 N 0.450250 1.699528 -0.025056 0
M  V30 12 C 1.321176 2.112149 1.007213 0
M  V30 13 O 1.372909 1.302317 1.968825 0
M  V30 14 N 2.026635 3.326381 0.893790 0
M  V30 15 C 2.914717 3.725184 1.970026 0
M  V30 16 C 4.013063 2.704787 2.193160 0
M  V30 17 C 4.918686 3.224783 3.281241 0
M  V30 18 C 6.256121 2.678097 2.823883 0
M  V30 19 C 6.099828 2.675220 1.339270 0
M  V30 20 O 4.770367 2.555237 1.054807 0
M  V30 21 N -1.635752 0.449213 0.321492 0
M  V30 22 C -2.362861 -0.678422 0.205242 0
M  V30 23 C -1.750327 -1.742643 -0.386948 0
M  V30 24 C -4.724860 -2.996361 -0.637416 0
M  V30 25 C -5.901222 -3.674513 -0.343165 0
M  V30 26 N -5.905002 -4.914376 0.177208 0
M  V30 27 H -3.822874 -7.440102 0.930583 0
M  V30 28 H -5.538318 -7.562243 0.465061 0
M  V30 29 H -5.104062 -6.929106 2.077186 0
M  V30 30 H -2.671288 -5.473898 0.385513 0
M  V30 31 H 0.743184 -3.259342 -1.832942 0
M  V30 32 H 1.273964 -0.556330 -1.103981 0
M  V30 33 H 0.276507 2.236372 -0.899087 0
M  V30 34 H 1.885347 3.901666 0.033377 0
M  V30 35 H 3.435164 4.653410 1.654703 0
M  V30 36 H 2.347603 3.869998 2.913789 0
M  V30 37 H 3.599703 1.738362 2.529732 0
M  V30 38 H 4.939309 4.338506 3.285305 0
M  V30 39 H 4.620511 2.857329 4.291085 0
M  V30 40 H 7.006844 3.440459 3.126579 0
M  V30 41 H 6.477872 1.690091 3.273861 0
M  V30 42 H 6.530350 3.604712 0.868823 0
M  V30 43 H 6.722549 1.854574 0.885623 0
M  V30 44 H -3.378023 -0.747848 0.558581 0
M  V30 45 H -4.667555 -2.009037 -1.052244 0
M  V30 46 H -6.837096 -3.185712 -0.540629 0
M  V30 END ATOM
M  V30 BEGIN BOND
M  V30 1 1 1 2
M  V30 2 2 2 3
M  V30 3 1 3 4
M  V30 4 1 4 5
M  V30 5 2 5 6
M  V30 6 1 6 7
M  V30 7 1 7 8
M  V30 8 2 8 9
M  V30 9 1 9 10
M  V30 10 1 10 11
M  V30 11 1 11 12
M  V30 12 2 12 13
M  V30 13 1 12 14
M  V30 14 1 14 15
M  V30 15 1 15 16
M  V30 16 1 16 17
M  V30 17 1 17 18
M  V30 18 1 18 19
M  V30 19 1 19 20
M  V30 20 2 10 21
M  V30 21 1 21 22
M  V30 22 2 22 23
M  V30 23 2 4 24
M  V30 24 1 24 25
M  V30 25 2 25 26
M  V30 26 1 26 2
M  V30 27 1 23 5
M  V30 28 1 23 8
M  V30 29 1 20 16
M  V30 30 1 1 27
M  V30 31 1 1 28
M  V30 32 1 1 29
M  V30 33 1 3 30
M  V30 34 1 7 31
M  V30 35 1 9 32
M  V30 36 1 11 33
M  V30 37 1 14 34
M  V30 38 1 15 35
M  V30 39 1 15 36
M  V30 40 1 16 37
M  V30 41 1 17 38
M  V30 42 1 17 39
M  V30 43 1 18 40
M  V30 44 1 18 41
M  V30 45 1 19 42
M  V30 46 1 19 43
M  V30 47 1 22 44
M  V30 48 1 24 45
M  V30 49 1 25 46
M  V30 END BOND
M  V30 END CTAB
M  END
>  <Dataset>  (50) 
ChEMBL_Kinases

>  <Ligand_Instance>  (50) 
nan

>  <PDB_ID>  (50) 
nan

>  <Standardized_SMILES>  (50) 
Cc1cc(-c2n[nH]c3cc(NC(=O)NCC4CCCO4)ncc23)ccn1

>  <Name>  (50) 
nan

>  <Pocket>  (50) 
nan

>  <ATP_Site>  (50) 
nan

>  <Peripheral>  (50) 
nan

>  <Num_H_Atoms_ProtBoundConf>  (50) 
nan

>  <Num_Resolved_Atoms>  (50) 
nan

>  <Num_Not_Resolved_Atoms>  (50) 
nan

$$$$
CHEMBL3658819
     RDKit          3D

  0  0  0  0  0  0  0  0  0  0999 V3000
M  V30 BEGIN CTAB
M  V30 COUNTS 44 46 0 0 0
M  V30 BEGIN ATOM
M  V30 1 C 2.328581 -7.766605 2.636336 0
M  V30 2 O 1.784905 -6.940165 1.597828 0
M  V30 3 C 2.377727 -5.732074 1.252850 0
M  V30 4 O 3.407365 -5.215390 1.761458 0
M  V30 5 C 1.624335 -5.052792 0.140115 0
M  V30 6 N 2.257656 -3.795000 -0.205281 0
M  V30 7 C 1.593903 -2.546843 -0.033329 0
M  V30 8 O 0.408987 -2.466083 0.432653 0
M  V30 9 N 2.290119 -1.347832 -0.399419 0
M  V30 10 C 1.651236 -0.071287 -0.239458 0
M  V30 11 C 2.319976 1.097845 -0.592350 0
M  V30 12 C 1.668122 2.328318 -0.423788 0
M  V30 13 N 1.993279 3.614930 -0.648512 0
M  V30 14 N 0.956875 4.353669 -0.290379 0
M  V30 15 C -0.058377 3.599750 0.169791 0
M  V30 16 C -1.339011 4.145207 0.639523 0
M  V30 17 C -2.037838 5.135803 -0.048211 0
M  V30 18 C -3.243159 5.603790 0.455762 0
M  V30 19 N -3.776359 5.128177 1.608735 0
M  V30 20 C -3.122454 4.160285 2.308081 0
M  V30 21 C -3.686893 3.610426 3.591808 0
M  V30 22 C -1.919083 3.682459 1.819362 0
M  V30 23 C 0.387445 2.275335 0.090229 0
M  V30 24 C -0.267947 1.132087 0.435887 0
M  V30 25 N 0.402456 -0.019787 0.254119 0
M  V30 26 C 1.582333 -5.980821 -1.053134 0
M  V30 27 F 0.896045 -5.377747 -2.086150 0
M  V30 28 F 2.832487 -6.412814 -1.416983 0
M  V30 29 F 0.789077 -7.067519 -0.667609 0
M  V30 30 H 3.197752 -7.236326 3.082492 0
M  V30 31 H 1.502738 -7.903859 3.368630 0
M  V30 32 H 2.619959 -8.763558 2.253647 0
M  V30 33 H 0.615989 -4.821150 0.524585 0
M  V30 34 H 3.235144 -3.823621 -0.592499 0
M  V30 35 H 3.258557 -1.377663 -0.782947 0
M  V30 36 H 3.324247 1.083211 -0.991267 0
M  V30 37 H 2.924732 3.856326 -1.037379 0
M  V30 38 H -1.619325 5.523358 -0.972588 0
M  V30 39 H -3.759314 6.377445 -0.109417 0
M  V30 40 H -2.814626 3.168140 4.151590 0
M  V30 41 H -4.375202 2.753095 3.398111 0
M  V30 42 H -4.098324 4.389747 4.240349 0
M  V30 43 H -1.444106 2.913429 2.417254 0
M  V30 44 H -1.272124 1.115285 0.837091 0
M  V30 END ATOM
M  V30 BEGIN BOND
M  V30 1 1 1 2
M  V30 2 1 2 3
M  V30 3 2 3 4
M  V30 4 1 3 5
M  V30 5 1 5 6
M  V30 6 1 6 7
M  V30 7 2 7 8
M  V30 8 1 7 9
M  V30 9 1 9 10
M  V30 10 2 10 11
M  V30 11 1 11 12
M  V30 12 1 12 13
M  V30 13 1 13 14
M  V30 14 2 14 15
M  V30 15 1 15 16
M  V30 16 2 16 17
M  V30 17 1 17 18
M  V30 18 2 18 19
M  V30 19 1 19 20
M  V30 20 1 20 21
M  V30 21 2 20 22
M  V30 22 1 15 23
M  V30 23 1 23 24
M  V30 24 2 24 25
M  V30 25 1 5 26
M  V30 26 1 26 27
M  V30 27 1 26 28
M  V30 28 1 26 29
M  V30 29 1 25 10
M  V30 30 2 23 12
M  V30 31 1 22 16
M  V30 32 1 1 30
M  V30 33 1 1 31
M  V30 34 1 1 32
M  V30 35 1 5 33
M  V30 36 1 6 34
M  V30 37 1 9 35
M  V30 38 1 11 36
M  V30 39 1 13 37
M  V30 40 1 17 38
M  V30 41 1 18 39
M  V30 42 1 21 40
M  V30 43 1 21 41
M  V30 44 1 21 42
M  V30 45 1 22 43
M  V30 46 1 24 44
M  V30 END BOND
M  V30 END CTAB
M  END
>  <Dataset>  (51) 
ChEMBL_Kinases

>  <Ligand_Instance>  (51) 
nan

>  <PDB_ID>  (51) 
nan

>  <Standardized_SMILES>  (51) 
COC(=O)C(NC(=O)Nc1cc2[nH]nc(-c3ccnc(C)c3)c2cn1)C(F)(F)F

>  <Name>  (51) 
nan

>  <Pocket>  (51) 
nan

>  <ATP_Site>  (51) 
nan

>  <Peripheral>  (51) 
nan

>  <Num_H_Atoms_ProtBoundConf>  (51) 
nan

>  <Num_Resolved_Atoms>  (51) 
nan

>  <Num_Not_Resolved_Atoms>  (51) 
nan

$$$$
CHEMBL3658818
     RDKit          3D

  0  0  0  0  0  0  0  0  0  0999 V3000
M  V30 BEGIN CTAB
M  V30 COUNTS 42 45 0 0 0
M  V30 BEGIN ATOM
M  V30 1 C 2.631966 -6.201930 2.132241 0
M  V30 2 C 2.872407 -5.743257 0.738171 0
M  V30 3 C 2.227097 -4.667359 0.205007 0
M  V30 4 C 2.398732 -4.184990 -1.077265 0
M  V30 5 C 1.685502 -3.026949 -1.608878 0
M  V30 6 N 1.083263 -2.898663 -2.815932 0
M  V30 7 N 0.535708 -1.686965 -2.936138 0
M  V30 8 C 0.787548 -1.023445 -1.791375 0
M  V30 9 C 0.425082 0.262982 -1.438752 0
M  V30 10 C 0.796891 0.740899 -0.196385 0
M  V30 11 N 0.529290 2.026190 0.363402 0
M  V30 12 C -0.706443 2.091649 1.105010 0
M  V30 13 O -1.533566 1.150906 1.292208 0
M  V30 14 N -1.050135 3.339773 1.697506 0
M  V30 15 C -2.284812 3.457174 2.454789 0 CFG=1
M  V30 16 C -1.979625 3.965452 3.865847 0
M  V30 17 C -3.353816 4.486683 4.257630 0
M  V30 18 O -3.988954 4.879139 3.049149 0
M  V30 19 C -3.161163 4.542884 1.960778 0
M  V30 20 O -3.349941 5.198222 0.903579 0
M  V30 21 N 1.503381 -0.064276 0.635368 0
M  V30 22 C 1.860240 -1.320599 0.297308 0
M  V30 23 C 1.507539 -1.833488 -0.934340 0
M  V30 24 C 3.311042 -4.889548 -1.836471 0
M  V30 25 C 3.977456 -5.991273 -1.303213 0
M  V30 26 N 3.755373 -6.409176 -0.026223 0
M  V30 27 H 2.166344 -7.212183 2.101493 0
M  V30 28 H 3.568303 -6.285440 2.709784 0
M  V30 29 H 1.921224 -5.485815 2.631956 0
M  V30 30 H 1.529051 -4.170446 0.864028 0
M  V30 31 H 0.005971 -1.333750 -3.783366 0
M  V30 32 H -0.132820 0.965298 -2.036236 0
M  V30 33 H 1.162699 2.845898 0.251225 0
M  V30 34 H -0.482489 4.198088 1.635838 0
M  V30 35 H -2.856685 2.505617 2.489521 0
M  V30 36 H -1.621578 3.155648 4.527984 0
M  V30 37 H -1.301852 4.824680 3.777678 0
M  V30 38 H -3.283248 5.350216 4.939440 0
M  V30 39 H -3.906146 3.667750 4.786207 0
M  V30 40 H 2.423410 -1.946145 0.974844 0
M  V30 41 H 3.511098 -4.583784 -2.855820 0
M  V30 42 H 4.681551 -6.488213 -1.975885 0
M  V30 END ATOM
M  V30 BEGIN BOND
M  V30 1 1 1 2
M  V30 2 2 2 3
M  V30 3 1 3 4
M  V30 4 1 4 5
M  V30 5 2 5 6
M  V30 6 1 6 7
M  V30 7 1 7 8
M  V30 8 2 8 9
M  V30 9 1 9 10
M  V30 10 1 10 11
M  V30 11 1 11 12
M  V30 12 2 12 13
M  V30 13 1 12 14
M  V30 14 1 14 15
M  V30 15 1 15 16
M  V30 16 1 16 17
M  V30 17 1 17 18
M  V30 18 1 18 19
M  V30 19 2 19 20
M  V30 20 2 10 21
M  V30 21 1 21 22
M  V30 22 2 22 23
M  V30 23 2 4 24
M  V30 24 1 24 25
M  V30 25 2 25 26
M  V30 26 1 26 2
M  V30 27 1 23 5
M  V30 28 1 23 8
M  V30 29 1 19 15
M  V30 30 1 1 27
M  V30 31 1 1 28
M  V30 32 1 1 29
M  V30 33 1 3 30
M  V30 34 1 7 31
M  V30 35 1 9 32
M  V30 36 1 11 33
M  V30 37 1 14 34
M  V30 38 1 15 35 CFG=1
M  V30 39 1 16 36
M  V30 40 1 16 37
M  V30 41 1 17 38
M  V30 42 1 17 39
M  V30 43 1 22 40
M  V30 44 1 24 41
M  V30 45 1 25 42
M  V30 END BOND
M  V30 END CTAB
M  END
>  <Dataset>  (52) 
ChEMBL_Kinases

>  <Ligand_Instance>  (52) 
nan

>  <PDB_ID>  (52) 
nan

>  <Standardized_SMILES>  (52) 
Cc1cc(-c2n[nH]c3cc(NC(=O)N[C@H]4CCOC4=O)ncc23)ccn1

>  <Name>  (52) 
nan

>  <Pocket>  (52) 
nan

>  <ATP_Site>  (52) 
nan

>  <Peripheral>  (52) 
nan

>  <Num_H_Atoms_ProtBoundConf>  (52) 
nan

>  <Num_Resolved_Atoms>  (52) 
nan

>  <Num_Not_Resolved_Atoms>  (52) 
nan

$$$$
CHEMBL3658817
     RDKit          3D

  0  0  0  0  0  0  0  0  0  0999 V3000
M  V30 BEGIN CTAB
M  V30 COUNTS 44 46 0 0 0
M  V30 BEGIN ATOM
M  V30 1 C 5.232201 -5.916687 -2.120324 0
M  V30 2 O 3.880410 -5.988975 -2.480365 0
M  V30 3 C 2.989132 -4.948776 -2.555806 0
M  V30 4 O 3.561043 -3.871626 -2.247678 0
M  V30 5 C 1.830808 -4.066960 -2.723816 0 CFG=2
M  V30 6 C 1.212529 -4.137890 -4.104984 0
M  V30 7 N 2.174287 -2.666114 -2.426195 0
M  V30 8 C 1.506735 -1.936603 -1.413091 0
M  V30 9 O 0.604428 -2.555655 -0.783769 0
M  V30 10 N 1.850163 -0.563913 -1.128348 0
M  V30 11 C 1.072731 0.013068 -0.074032 0
M  V30 12 C 1.578075 -0.119994 1.212105 0
M  V30 13 C 0.876282 0.415192 2.281263 0
M  V30 14 N 1.031779 0.490222 3.621985 0
M  V30 15 N 0.013589 1.143190 4.166749 0
M  V30 16 C -0.859113 1.525707 3.190200 0
M  V30 17 C -2.092732 2.270653 3.473937 0
M  V30 18 C -3.325651 1.969751 2.917485 0
M  V30 19 C -4.441733 2.734159 3.246836 0
M  V30 20 N -4.336501 3.773229 4.108596 0
M  V30 21 C -3.151614 4.092094 4.667220 0
M  V30 22 C -2.979058 5.233394 5.628276 0
M  V30 23 C -2.026467 3.347520 4.356120 0
M  V30 24 C -0.315438 1.067199 2.004252 0
M  V30 25 C -0.816559 1.198043 0.719836 0
M  V30 26 N -0.097774 0.658778 -0.302852 0
M  V30 27 H 5.916328 -6.211551 -2.943313 0
M  V30 28 H 5.450685 -4.906927 -1.739648 0
M  V30 29 H 5.431897 -6.616320 -1.258002 0
M  V30 30 H 1.001981 -4.348335 -2.013976 0
M  V30 31 H 0.687963 -3.153158 -4.260691 0
M  V30 32 H 0.410353 -4.900869 -4.119621 0
M  V30 33 H 1.974522 -4.313721 -4.890900 0
M  V30 34 H 2.939508 -2.208416 -2.990972 0
M  V30 35 H 2.613766 -0.125603 -1.700404 0
M  V30 36 H 2.502242 -0.620477 1.468813 0
M  V30 37 H 1.864766 0.073611 4.134402 0
M  V30 38 H -3.382070 1.132793 2.230575 0
M  V30 39 H -5.402056 2.477778 2.795728 0
M  V30 40 H -2.395721 6.044688 5.152345 0
M  V30 41 H -2.387357 4.915503 6.509556 0
M  V30 42 H -3.970631 5.623993 5.948839 0
M  V30 43 H -1.069412 3.589539 4.794853 0
M  V30 44 H -1.760433 1.717648 0.526406 0
M  V30 END ATOM
M  V30 BEGIN BOND
M  V30 1 1 1 2
M  V30 2 1 2 3
M  V30 3 2 3 4
M  V30 4 1 3 5
M  V30 5 1 5 6
M  V30 6 1 5 7
M  V30 7 1 7 8
M  V30 8 2 8 9
M  V30 9 1 8 10
M  V30 10 1 10 11
M  V30 11 2 11 12
M  V30 12 1 12 13
M  V30 13 1 13 14
M  V30 14 1 14 15
M  V30 15 2 15 16
M  V30 16 1 16 17
M  V30 17 2 17 18
M  V30 18 1 18 19
M  V30 19 2 19 20
M  V30 20 1 20 21
M  V30 21 1 21 22
M  V30 22 2 21 23
M  V30 23 1 16 24
M  V30 24 1 24 25
M  V30 25 2 25 26
M  V30 26 1 26 11
M  V30 27 2 24 13
M  V30 28 1 23 17
M  V30 29 1 1 27
M  V30 30 1 1 28
M  V30 31 1 1 29
M  V30 32 1 5 30 CFG=1
M  V30 33 1 6 31
M  V30 34 1 6 32
M  V30 35 1 6 33
M  V30 36 1 7 34
M  V30 37 1 10 35
M  V30 38 1 12 36
M  V30 39 1 14 37
M  V30 40 1 18 38
M  V30 41 1 19 39
M  V30 42 1 22 40
M  V30 43 1 22 41
M  V30 44 1 22 42
M  V30 45 1 23 43
M  V30 46 1 25 44
M  V30 END BOND
M  V30 END CTAB
M  END
>  <Dataset>  (53) 
ChEMBL_Kinases

>  <Ligand_Instance>  (53) 
nan

>  <PDB_ID>  (53) 
nan

>  <Standardized_SMILES>  (53) 
COC(=O)[C@H](C)NC(=O)Nc1cc2[nH]nc(-c3ccnc(C)c3)c2cn1

>  <Name>  (53) 
nan

>  <Pocket>  (53) 
nan

>  <ATP_Site>  (53) 
nan

>  <Peripheral>  (53) 
nan

>  <Num_H_Atoms_ProtBoundConf>  (53) 
nan

>  <Num_Resolved_Atoms>  (53) 
nan

>  <Num_Not_Resolved_Atoms>  (53) 
nan

$$$$
CHEMBL3658733
     RDKit          3D

  0  0  0  0  0  0  0  0  0  0999 V3000
M  V30 BEGIN CTAB
M  V30 COUNTS 50 54 0 0 0
M  V30 BEGIN ATOM
M  V30 1 C 3.538562 -7.579295 3.261157 0
M  V30 2 C 3.216375 -6.796349 2.053628 0
M  V30 3 C 3.619494 -5.486330 1.935878 0
M  V30 4 C 3.316488 -4.757865 0.803229 0
M  V30 5 C 3.706255 -3.365834 0.595516 0
M  V30 6 N 4.923151 -2.839587 0.839867 0
M  V30 7 N 4.958363 -1.541537 0.547422 0
M  V30 8 C 3.726167 -1.231453 0.103178 0
M  V30 9 C 3.229282 -0.016287 -0.330571 0
M  V30 10 C 1.911377 0.041388 -0.741647 0
M  V30 11 N 1.212310 1.192016 -1.221324 0
M  V30 12 C 0.520431 2.028503 -0.308691 0
M  V30 13 O 0.561115 1.702868 0.906100 0
M  V30 14 N -0.190202 3.184100 -0.731053 0
M  V30 15 C -0.931189 4.110029 0.104068 0
M  V30 16 C -2.234143 3.601798 0.552595 0
M  V30 17 C -2.357039 2.901727 1.734477 0
M  V30 18 C -3.557511 2.403420 2.197238 0
M  V30 19 C -4.699854 2.618446 1.432842 0
M  V30 20 C -4.592518 3.314781 0.252363 0
M  V30 21 C -3.376534 3.813079 -0.205161 0
M  V30 22 C -5.942063 3.416274 -0.383021 0
M  V30 23 N -6.804152 2.711249 0.553233 0
M  V30 24 C -6.082453 2.206352 1.681537 0
M  V30 25 O -6.507865 1.564356 2.657993 0
M  V30 26 N 1.122708 -1.066299 -0.720717 0
M  V30 27 C 1.600171 -2.259597 -0.297938 0
M  V30 28 C 2.909248 -2.345516 0.116803 0
M  V30 29 C 2.603338 -5.372834 -0.201981 0
M  V30 30 C 2.215336 -6.685146 -0.051946 0
M  V30 31 N 2.524592 -7.370806 1.062713 0
M  V30 32 H 3.172729 -8.621188 3.165259 0
M  V30 33 H 3.176797 -7.086412 4.185442 0
M  V30 34 H 4.640818 -7.667270 3.357837 0
M  V30 35 H 4.186266 -4.993709 2.732475 0
M  V30 36 H 5.748846 -0.866100 0.628013 0
M  V30 37 H 3.774630 0.916493 -0.384302 0
M  V30 38 H 1.214262 1.412673 -2.246905 0
M  V30 39 H -0.149853 3.350914 -1.771519 0
M  V30 40 H -1.036640 5.056743 -0.433257 0
M  V30 41 H -0.266795 4.308453 0.982865 0
M  V30 42 H -1.530053 2.692511 2.383382 0
M  V30 43 H -3.661524 1.852682 3.124688 0
M  V30 44 H -3.351199 4.355698 -1.145848 0
M  V30 45 H -5.974363 2.867649 -1.355285 0
M  V30 46 H -6.273211 4.451948 -0.502934 0
M  V30 47 H -7.831920 2.563794 0.458997 0
M  V30 48 H 0.978459 -3.138770 -0.279019 0
M  V30 49 H 2.295683 -4.946617 -1.130481 0
M  V30 50 H 1.649349 -7.246580 -0.797933 0
M  V30 END ATOM
M  V30 BEGIN BOND
M  V30 1 1 1 2
M  V30 2 2 2 3
M  V30 3 1 3 4
M  V30 4 1 4 5
M  V30 5 2 5 6
M  V30 6 1 6 7
M  V30 7 1 7 8
M  V30 8 2 8 9
M  V30 9 1 9 10
M  V30 10 1 10 11
M  V30 11 1 11 12
M  V30 12 2 12 13
M  V30 13 1 12 14
M  V30 14 1 14 15
M  V30 15 1 15 16
M  V30 16 2 16 17
M  V30 17 1 17 18
M  V30 18 2 18 19
M  V30 19 1 19 20
M  V30 20 2 20 21
M  V30 21 1 20 22
M  V30 22 1 22 23
M  V30 23 1 23 24
M  V30 24 2 24 25
M  V30 25 2 10 26
M  V30 26 1 26 27
M  V30 27 2 27 28
M  V30 28 2 4 29
M  V30 29 1 29 30
M  V30 30 2 30 31
M  V30 31 1 31 2
M  V30 32 1 28 5
M  V30 33 1 28 8
M  V30 34 1 21 16
M  V30 35 1 24 19
M  V30 36 1 1 32
M  V30 37 1 1 33
M  V30 38 1 1 34
M  V30 39 1 3 35
M  V30 40 1 7 36
M  V30 41 1 9 37
M  V30 42 1 11 38
M  V30 43 1 14 39
M  V30 44 1 15 40
M  V30 45 1 15 41
M  V30 46 1 17 42
M  V30 47 1 18 43
M  V30 48 1 21 44
M  V30 49 1 22 45
M  V30 50 1 22 46
M  V30 51 1 23 47
M  V30 52 1 27 48
M  V30 53 1 29 49
M  V30 54 1 30 50
M  V30 END BOND
M  V30 END CTAB
M  END
>  <Dataset>  (54) 
ChEMBL_Kinases

>  <Ligand_Instance>  (54) 
nan

>  <PDB_ID>  (54) 
nan

>  <Standardized_SMILES>  (54) 
Cc1cc(-c2n[nH]c3cc(NC(=O)NCc4ccc5c(c4)CNC5=O)ncc23)ccn1

>  <Name>  (54) 
nan

>  <Pocket>  (54) 
nan

>  <ATP_Site>  (54) 
nan

>  <Peripheral>  (54) 
nan

>  <Num_H_Atoms_ProtBoundConf>  (54) 
nan

>  <Num_Resolved_Atoms>  (54) 
nan

>  <Num_Not_Resolved_Atoms>  (54) 
nan

$$$$
CHEMBL3658800
     RDKit          3D

  0  0  0  0  0  0  0  0  0  0999 V3000
M  V30 BEGIN CTAB
M  V30 COUNTS 41 44 0 0 0
M  V30 BEGIN ATOM
M  V30 1 C 1.818567 -7.616844 2.682624 0
M  V30 2 C 0.966189 -6.394036 2.507297 0
M  V30 3 C 1.627851 -5.174909 2.369999 0
M  V30 4 C 0.887035 -4.013781 2.204635 0
M  V30 5 C 1.533880 -2.734379 2.058046 0
M  V30 6 N 2.552958 -2.420706 2.882079 0
M  V30 7 N 3.020745 -1.195648 2.592351 0
M  V30 8 C 2.293350 -0.709180 1.565131 0
M  V30 9 C 2.278053 0.459090 0.829055 0
M  V30 10 C 1.350399 0.588117 -0.176098 0
M  V30 11 N 1.334365 1.818323 -0.935649 0
M  V30 12 C 0.508599 2.883870 -0.480006 0
M  V30 13 O -0.163678 2.664856 0.577797 0
M  V30 14 N 0.340574 4.154747 -1.052945 0
M  V30 15 C -0.527830 5.183328 -0.520507 0
M  V30 16 C -1.927828 4.859280 -0.867956 0
M  V30 17 C -2.819007 4.099730 -0.104871 0
M  V30 18 N -4.004615 4.016751 -0.732820 0
M  V30 19 O -3.911927 4.676300 -1.839984 0
M  V30 20 C -2.730169 5.181887 -1.963518 0
M  V30 21 N 0.430642 -0.367864 -0.504059 0
M  V30 22 C 0.421987 -1.534164 0.206742 0
M  V30 23 C 1.355919 -1.652729 1.211781 0
M  V30 24 C -0.493688 -4.119809 2.183145 0
M  V30 25 C -1.134626 -5.354349 2.322863 0
M  V30 26 N -0.388084 -6.478260 2.483677 0
M  V30 27 H 2.069738 -7.728120 3.770800 0
M  V30 28 H 1.277882 -8.501255 2.298153 0
M  V30 29 H 2.791270 -7.495216 2.164092 0
M  V30 30 H 2.713875 -5.077801 2.385377 0
M  V30 31 H 3.797464 -0.663751 3.038783 0
M  V30 32 H 2.986121 1.234229 1.057631 0
M  V30 33 H 1.819729 2.134831 -1.800765 0
M  V30 34 H 0.903832 4.325643 -1.927350 0
M  V30 35 H -0.483907 5.224023 0.592494 0
M  V30 36 H -0.261256 6.170911 -0.925731 0
M  V30 37 H -2.698063 3.615187 0.839835 0
M  V30 38 H -2.319032 5.793034 -2.778072 0
M  V30 39 H -0.287984 -2.321289 -0.015163 0
M  V30 40 H -1.148256 -3.249116 2.057353 0
M  V30 41 H -2.228237 -5.376979 2.298838 0
M  V30 END ATOM
M  V30 BEGIN BOND
M  V30 1 1 1 2
M  V30 2 2 2 3
M  V30 3 1 3 4
M  V30 4 1 4 5
M  V30 5 2 5 6
M  V30 6 1 6 7
M  V30 7 1 7 8
M  V30 8 2 8 9
M  V30 9 1 9 10
M  V30 10 1 10 11
M  V30 11 1 11 12
M  V30 12 2 12 13
M  V30 13 1 12 14
M  V30 14 1 14 15
M  V30 15 1 15 16
M  V30 16 1 16 17
M  V30 17 2 17 18
M  V30 18 1 18 19
M  V30 19 1 19 20
M  V30 20 2 10 21
M  V30 21 1 21 22
M  V30 22 2 22 23
M  V30 23 2 4 24
M  V30 24 1 24 25
M  V30 25 2 25 26
M  V30 26 1 26 2
M  V30 27 1 23 5
M  V30 28 1 23 8
M  V30 29 2 20 16
M  V30 30 1 1 27
M  V30 31 1 1 28
M  V30 32 1 1 29
M  V30 33 1 3 30
M  V30 34 1 7 31
M  V30 35 1 9 32
M  V30 36 1 11 33
M  V30 37 1 14 34
M  V30 38 1 15 35
M  V30 39 1 15 36
M  V30 40 1 17 37
M  V30 41 1 20 38
M  V30 42 1 22 39
M  V30 43 1 24 40
M  V30 44 1 25 41
M  V30 END BOND
M  V30 END CTAB
M  END
>  <Dataset>  (55) 
ChEMBL_Kinases

>  <Ligand_Instance>  (55) 
nan

>  <PDB_ID>  (55) 
nan

>  <Standardized_SMILES>  (55) 
Cc1cc(-c2n[nH]c3cc(NC(=O)NCc4cnoc4)ncc23)ccn1

>  <Name>  (55) 
nan

>  <Pocket>  (55) 
nan

>  <ATP_Site>  (55) 
nan

>  <Peripheral>  (55) 
nan

>  <Num_H_Atoms_ProtBoundConf>  (55) 
nan

>  <Num_Resolved_Atoms>  (55) 
nan

>  <Num_Not_Resolved_Atoms>  (55) 
nan

$$$$
CHEMBL3658801
     RDKit          3D

  0  0  0  0  0  0  0  0  0  0999 V3000
M  V30 BEGIN CTAB
M  V30 COUNTS 40 43 0 0 0
M  V30 BEGIN ATOM
M  V30 1 C -1.422968 -4.020306 6.158125 0
M  V30 2 C -1.079482 -4.318683 4.739887 0
M  V30 3 C -0.323984 -3.389589 4.054881 0
M  V30 4 C 0.017914 -3.624414 2.738660 0
M  V30 5 C 0.804329 -2.762050 1.864772 0
M  V30 6 N 1.796689 -3.247108 1.068930 0
M  V30 7 N 2.343805 -2.262159 0.385858 0
M  V30 8 C 1.738232 -1.120373 0.706520 0
M  V30 9 C 1.833227 0.216735 0.360447 0
M  V30 10 C 1.003677 1.185418 0.915853 0
M  V30 11 N 1.223250 2.514842 0.459490 0
M  V30 12 C 0.499096 2.977064 -0.686480 0
M  V30 13 O -0.317458 2.191001 -1.263623 0
M  V30 14 N 0.587547 4.269646 -1.284408 0
M  V30 15 C -0.234638 4.551302 -2.452519 0
M  V30 16 C 0.072533 3.641873 -3.553922 0
M  V30 17 N -0.266788 2.581812 -3.986744 0
M  V30 18 N 0.165218 1.958715 -5.012368 0
M  V30 19 C 1.093158 2.455297 -5.748800 0
M  V30 20 S 1.412698 4.106611 -4.819266 0
M  V30 21 N 0.069526 0.821892 1.824997 0
M  V30 22 C -0.088018 -0.455847 2.215615 0
M  V30 23 C 0.753562 -1.393567 1.643375 0
M  V30 24 C -0.434462 -4.819151 2.168501 0
M  V30 25 C -1.188816 -5.746619 2.852807 0
M  V30 26 N -1.485373 -5.452507 4.133336 0
M  V30 27 H -0.786697 -4.611500 6.833818 0
M  V30 28 H -1.407573 -2.945588 6.367459 0
M  V30 29 H -2.465197 -4.416467 6.314085 0
M  V30 30 H 0.045755 -2.451358 4.462133 0
M  V30 31 H 3.131910 -2.279839 -0.317876 0
M  V30 32 H 2.591252 0.481433 -0.371375 0
M  V30 33 H 1.880243 3.229930 0.878656 0
M  V30 34 H 1.260445 4.933325 -0.817504 0
M  V30 35 H -1.306689 4.515783 -2.270415 0
M  V30 36 H -0.008619 5.618784 -2.740898 0
M  V30 37 H 1.270085 1.686859 -6.579054 0
M  V30 38 H -0.831783 -0.715807 2.933720 0
M  V30 39 H -0.211157 -5.091450 1.126206 0
M  V30 40 H -1.530971 -6.662386 2.402949 0
M  V30 END ATOM
M  V30 BEGIN BOND
M  V30 1 1 1 2
M  V30 2 2 2 3
M  V30 3 1 3 4
M  V30 4 1 4 5
M  V30 5 2 5 6
M  V30 6 1 6 7
M  V30 7 1 7 8
M  V30 8 2 8 9
M  V30 9 1 9 10
M  V30 10 1 10 11
M  V30 11 1 11 12
M  V30 12 2 12 13
M  V30 13 1 12 14
M  V30 14 1 14 15
M  V30 15 1 15 16
M  V30 16 2 16 17
M  V30 17 1 17 18
M  V30 18 2 18 19
M  V30 19 1 19 20
M  V30 20 2 10 21
M  V30 21 1 21 22
M  V30 22 2 22 23
M  V30 23 2 4 24
M  V30 24 1 24 25
M  V30 25 2 25 26
M  V30 26 1 26 2
M  V30 27 1 23 5
M  V30 28 1 23 8
M  V30 29 1 20 16
M  V30 30 1 1 27
M  V30 31 1 1 28
M  V30 32 1 1 29
M  V30 33 1 3 30
M  V30 34 1 7 31
M  V30 35 1 9 32
M  V30 36 1 11 33
M  V30 37 1 14 34
M  V30 38 1 15 35
M  V30 39 1 15 36
M  V30 40 1 19 37
M  V30 41 1 22 38
M  V30 42 1 24 39
M  V30 43 1 25 40
M  V30 END BOND
M  V30 END CTAB
M  END
>  <Dataset>  (56) 
ChEMBL_Kinases

>  <Ligand_Instance>  (56) 
nan

>  <PDB_ID>  (56) 
nan

>  <Standardized_SMILES>  (56) 
Cc1cc(-c2n[nH]c3cc(NC(=O)NCc4nncs4)ncc23)ccn1

>  <Name>  (56) 
nan

>  <Pocket>  (56) 
nan

>  <ATP_Site>  (56) 
nan

>  <Peripheral>  (56) 
nan

>  <Num_H_Atoms_ProtBoundConf>  (56) 
nan

>  <Num_Resolved_Atoms>  (56) 
nan

>  <Num_Not_Resolved_Atoms>  (56) 
nan

$$$$
CHEMBL3658802
     RDKit          3D

  0  0  0  0  0  0  0  0  0  0999 V3000
M  V30 BEGIN CTAB
M  V30 COUNTS 45 48 0 0 0
M  V30 BEGIN ATOM
M  V30 1 C -2.242257 -5.842637 0.808805 0
M  V30 2 C -1.229191 -5.843703 -0.304529 0
M  V30 3 C -0.756589 -4.628317 -0.750990 0
M  V30 4 C 0.185401 -4.488566 -1.772936 0
M  V30 5 C 0.671319 -3.183206 -2.218557 0
M  V30 6 N 0.835582 -2.696525 -3.463345 0
M  V30 7 N 1.307859 -1.460392 -3.438621 0
M  V30 8 C 1.453290 -1.137438 -2.148850 0
M  V30 9 C 1.915921 0.049216 -1.634361 0
M  V30 10 C 1.995636 0.193289 -0.263730 0
M  V30 11 N 2.430384 1.282523 0.542240 0
M  V30 12 C 1.450541 2.224433 0.924024 0
M  V30 13 O 0.278514 2.073866 0.548585 0
M  V30 14 N 1.650176 3.357186 1.709152 0
M  V30 15 C 1.038781 4.509862 2.317333 0
M  V30 16 C -0.016867 4.148635 3.296502 0
M  V30 17 C 0.523731 4.036547 4.575171 0
M  V30 18 C -0.230380 3.661737 5.671464 0
M  V30 19 C -1.570888 3.384274 5.511950 0
M  V30 20 C -2.115664 3.489247 4.271730 0
M  V30 21 C -1.354247 3.865024 3.183838 0
M  V30 22 Cl -2.009355 4.076546 1.577753 0
M  V30 23 N 1.614580 -0.840978 0.516051 0
M  V30 24 C 1.158954 -2.011120 0.038350 0
M  V30 25 C 1.069873 -2.179393 -1.329754 0
M  V30 26 C 0.645948 -5.658690 -2.344773 0
M  V30 27 C 0.156565 -6.864601 -1.879587 0
M  V30 28 N -0.758224 -6.961153 -0.884723 0
M  V30 29 H -1.677566 -5.619604 1.757324 0
M  V30 30 H -2.827916 -6.760894 0.858322 0
M  V30 31 H -2.902175 -4.952483 0.597728 0
M  V30 32 H -1.134222 -3.739235 -0.290396 0
M  V30 33 H 1.514700 -0.883149 -4.282211 0
M  V30 34 H 2.248063 0.941573 -2.146305 0
M  V30 35 H 3.397237 1.418098 0.858013 0
M  V30 36 H 2.693701 3.387344 1.979116 0
M  V30 37 H 1.755447 5.209227 2.750228 0
M  V30 38 H 0.553435 5.143484 1.481554 0
M  V30 39 H 1.557208 4.219767 4.874494 0
M  V30 40 H 0.134738 3.558560 6.684208 0
M  V30 41 H -2.210077 3.082929 6.345740 0
M  V30 42 H -3.131087 3.304610 4.010634 0
M  V30 43 H 0.858134 -2.833555 0.659963 0
M  V30 44 H 1.378910 -5.604332 -3.144403 0
M  V30 45 H 0.520909 -7.801013 -2.332060 0
M  V30 END ATOM
M  V30 BEGIN BOND
M  V30 1 1 1 2
M  V30 2 2 2 3
M  V30 3 1 3 4
M  V30 4 1 4 5
M  V30 5 2 5 6
M  V30 6 1 6 7
M  V30 7 1 7 8
M  V30 8 2 8 9
M  V30 9 1 9 10
M  V30 10 1 10 11
M  V30 11 1 11 12
M  V30 12 2 12 13
M  V30 13 1 12 14
M  V30 14 1 14 15
M  V30 15 1 15 16
M  V30 16 2 16 17
M  V30 17 1 17 18
M  V30 18 2 18 19
M  V30 19 1 19 20
M  V30 20 2 20 21
M  V30 21 1 21 22
M  V30 22 2 10 23
M  V30 23 1 23 24
M  V30 24 2 24 25
M  V30 25 2 4 26
M  V30 26 1 26 27
M  V30 27 2 27 28
M  V30 28 1 28 2
M  V30 29 1 25 5
M  V30 30 1 25 8
M  V30 31 1 21 16
M  V30 32 1 1 29
M  V30 33 1 1 30
M  V30 34 1 1 31
M  V30 35 1 3 32
M  V30 36 1 7 33
M  V30 37 1 9 34
M  V30 38 1 11 35
M  V30 39 1 14 36
M  V30 40 1 15 37
M  V30 41 1 15 38
M  V30 42 1 17 39
M  V30 43 1 18 40
M  V30 44 1 19 41
M  V30 45 1 20 42
M  V30 46 1 24 43
M  V30 47 1 26 44
M  V30 48 1 27 45
M  V30 END BOND
M  V30 END CTAB
M  END
>  <Dataset>  (57) 
ChEMBL_Kinases

>  <Ligand_Instance>  (57) 
nan

>  <PDB_ID>  (57) 
nan

>  <Standardized_SMILES>  (57) 
Cc1cc(-c2n[nH]c3cc(NC(=O)NCc4ccccc4Cl)ncc23)ccn1

>  <Name>  (57) 
nan

>  <Pocket>  (57) 
nan

>  <ATP_Site>  (57) 
nan

>  <Peripheral>  (57) 
nan

>  <Num_H_Atoms_ProtBoundConf>  (57) 
nan

>  <Num_Resolved_Atoms>  (57) 
nan

>  <Num_Not_Resolved_Atoms>  (57) 
nan

$$$$
CHEMBL3658803
     RDKit          3D

  0  0  0  0  0  0  0  0  0  0999 V3000
M  V30 BEGIN CTAB
M  V30 COUNTS 45 48 0 0 0
M  V30 BEGIN ATOM
M  V30 1 C -2.493887 -5.713555 0.800159 0
M  V30 2 C -1.069870 -5.960363 1.133293 0
M  V30 3 C -0.238503 -4.924105 1.502017 0
M  V30 4 C 1.115031 -5.038120 1.837091 0
M  V30 5 C 1.884184 -3.863140 2.207002 0
M  V30 6 N 2.726582 -3.734412 3.238262 0
M  V30 7 N 3.260491 -2.503416 3.268437 0
M  V30 8 C 2.737449 -1.835648 2.222838 0
M  V30 9 C 2.974481 -0.535572 1.827280 0
M  V30 10 C 2.326110 -0.044516 0.713286 0
M  V30 11 N 2.397388 1.243185 0.107519 0
M  V30 12 C 1.491732 2.226573 0.554647 0
M  V30 13 O 0.684537 1.943156 1.445683 0
M  V30 14 N 1.430953 3.530057 0.058532 0
M  V30 15 C 0.676020 4.743988 0.256779 0
M  V30 16 C -0.766914 4.636045 -0.015184 0
M  V30 17 C -1.820628 4.182355 0.727753 0
M  V30 18 F -1.522728 3.807648 1.976072 0
M  V30 19 C -3.122360 4.115352 0.295175 0
M  V30 20 C -3.442791 4.526905 -0.979563 0
M  V30 21 C -2.422979 4.995650 -1.776671 0
M  V30 22 C -1.109618 5.051898 -1.310832 0
M  V30 23 Cl 0.030824 5.686116 -2.506595 0
M  V30 24 N 1.476364 -0.862370 0.045992 0
M  V30 25 C 1.247521 -2.131845 0.435353 0
M  V30 26 C 1.871050 -2.669616 1.542388 0
M  V30 27 C 1.584867 -6.351892 1.765783 0
M  V30 28 C 0.749410 -7.384609 1.396655 0
M  V30 29 N -0.546014 -7.195729 1.087654 0
M  V30 30 H -2.814611 -4.689411 1.077841 0
M  V30 31 H -2.650552 -5.873238 -0.296515 0
M  V30 32 H -3.158010 -6.443626 1.325996 0
M  V30 33 H -0.698518 -3.949736 1.528422 0
M  V30 34 H 3.938551 -2.128911 3.951193 0
M  V30 35 H 3.623730 0.184611 2.285681 0
M  V30 36 H 3.081199 1.464508 -0.637192 0
M  V30 37 H 2.166560 3.677350 -0.701731 0
M  V30 38 H 1.104257 5.608825 -0.240570 0
M  V30 39 H 0.748682 4.920379 1.388828 0
M  V30 40 H -3.861127 3.738135 0.976873 0
M  V30 41 H -4.459703 4.472299 -1.313133 0
M  V30 42 H -2.722839 5.304654 -2.760975 0
M  V30 43 H 0.560721 -2.770291 -0.119847 0
M  V30 44 H 2.637985 -6.479166 2.020329 0
M  V30 45 H 1.223806 -8.349406 1.378142 0
M  V30 END ATOM
M  V30 BEGIN BOND
M  V30 1 1 1 2
M  V30 2 2 2 3
M  V30 3 1 3 4
M  V30 4 1 4 5
M  V30 5 2 5 6
M  V30 6 1 6 7
M  V30 7 1 7 8
M  V30 8 2 8 9
M  V30 9 1 9 10
M  V30 10 1 10 11
M  V30 11 1 11 12
M  V30 12 2 12 13
M  V30 13 1 12 14
M  V30 14 1 14 15
M  V30 15 1 15 16
M  V30 16 2 16 17
M  V30 17 1 17 18
M  V30 18 1 17 19
M  V30 19 2 19 20
M  V30 20 1 20 21
M  V30 21 2 21 22
M  V30 22 1 22 23
M  V30 23 2 10 24
M  V30 24 1 24 25
M  V30 25 2 25 26
M  V30 26 2 4 27
M  V30 27 1 27 28
M  V30 28 2 28 29
M  V30 29 1 29 2
M  V30 30 1 26 5
M  V30 31 1 26 8
M  V30 32 1 22 16
M  V30 33 1 1 30
M  V30 34 1 1 31
M  V30 35 1 1 32
M  V30 36 1 3 33
M  V30 37 1 7 34
M  V30 38 1 9 35
M  V30 39 1 11 36
M  V30 40 1 14 37
M  V30 41 1 15 38
M  V30 42 1 15 39
M  V30 43 1 19 40
M  V30 44 1 20 41
M  V30 45 1 21 42
M  V30 46 1 25 43
M  V30 47 1 27 44
M  V30 48 1 28 45
M  V30 END BOND
M  V30 END CTAB
M  END
>  <Dataset>  (58) 
ChEMBL_Kinases

>  <Ligand_Instance>  (58) 
nan

>  <PDB_ID>  (58) 
nan

>  <Standardized_SMILES>  (58) 
Cc1cc(-c2n[nH]c3cc(NC(=O)NCc4c(F)cccc4Cl)ncc23)ccn1

>  <Name>  (58) 
nan

>  <Pocket>  (58) 
nan

>  <ATP_Site>  (58) 
nan

>  <Peripheral>  (58) 
nan

>  <Num_H_Atoms_ProtBoundConf>  (58) 
nan

>  <Num_Resolved_Atoms>  (58) 
nan

>  <Num_Not_Resolved_Atoms>  (58) 
nan

$$$$
CHEMBL3658804
     RDKit          3D

  0  0  0  0  0  0  0  0  0  0999 V3000
M  V30 BEGIN CTAB
M  V30 COUNTS 49 52 0 0 0
M  V30 BEGIN ATOM
M  V30 1 C -0.298611 -6.479485 -1.781892 0
M  V30 2 C 1.090387 -5.967734 -1.916876 0
M  V30 3 C 1.340236 -4.622574 -1.767034 0
M  V30 4 C 2.621663 -4.095385 -1.884420 0
M  V30 5 C 2.904788 -2.664619 -1.725343 0
M  V30 6 N 3.683887 -1.913129 -2.523829 0
M  V30 7 N 3.726056 -0.662821 -2.094902 0
M  V30 8 C 2.964768 -0.563587 -0.989286 0
M  V30 9 C 2.698060 0.529859 -0.187020 0
M  V30 10 C 1.865723 0.288944 0.887518 0
M  V30 11 N 1.471886 1.308850 1.832403 0
M  V30 12 C 0.301531 2.068785 1.610283 0
M  V30 13 O -0.350336 1.797558 0.563900 0
M  V30 14 N -0.149244 3.075098 2.472775 0
M  V30 15 C -1.350534 3.888716 2.292576 0
M  V30 16 C -2.513605 2.932955 2.266649 0
M  V30 17 C -3.061711 2.681502 1.006959 0
M  V30 18 C -4.127859 1.829328 0.833850 0
M  V30 19 C -4.643336 1.226558 1.945970 0
M  V30 20 C -4.093580 1.483951 3.178663 0
M  V30 21 C -3.033528 2.324068 3.397505 0
M  V30 22 O -2.359813 2.700153 4.527766 0
M  V30 23 C -2.710835 2.204450 5.788764 0
M  V30 24 F -3.097204 3.238156 6.652326 0
M  V30 25 F -1.640456 1.598579 6.428614 0
M  V30 26 N 1.343244 -0.934678 1.142928 0
M  V30 27 C 1.614184 -2.002675 0.344647 0
M  V30 28 C 2.436397 -1.817418 -0.738119 0
M  V30 29 C 3.659775 -4.949864 -2.157671 0
M  V30 30 C 3.397089 -6.310172 -2.307675 0
M  V30 31 N 2.135661 -6.769743 -2.183815 0
M  V30 32 H -0.819602 -6.074729 -0.908157 0
M  V30 33 H -0.917185 -6.303524 -2.691464 0
M  V30 34 H -0.228041 -7.582620 -1.679190 0
M  V30 35 H 0.512515 -3.955832 -1.551498 0
M  V30 36 H 4.263974 0.116165 -2.544777 0
M  V30 37 H 3.076879 1.518274 -0.332360 0
M  V30 38 H 2.052941 1.496040 2.693132 0
M  V30 39 H 0.464812 3.222136 3.312031 0
M  V30 40 H -1.327692 4.491675 1.389156 0
M  V30 41 H -1.507716 4.505858 3.191796 0
M  V30 42 H -2.696075 3.133172 0.076681 0
M  V30 43 H -4.619483 1.569722 -0.083231 0
M  V30 44 H -5.477959 0.540527 1.926956 0
M  V30 45 H -4.491439 1.015914 4.061255 0
M  V30 46 H -3.548179 1.502524 5.729017 0
M  V30 47 H 1.204065 -2.990531 0.533891 0
M  V30 48 H 4.687988 -4.656679 -2.269342 0
M  V30 49 H 4.138416 -7.079172 -2.524510 0
M  V30 END ATOM
M  V30 BEGIN BOND
M  V30 1 1 1 2
M  V30 2 2 2 3
M  V30 3 1 3 4
M  V30 4 1 4 5
M  V30 5 2 5 6
M  V30 6 1 6 7
M  V30 7 1 7 8
M  V30 8 2 8 9
M  V30 9 1 9 10
M  V30 10 1 10 11
M  V30 11 1 11 12
M  V30 12 2 12 13
M  V30 13 1 12 14
M  V30 14 1 14 15
M  V30 15 1 15 16
M  V30 16 2 16 17
M  V30 17 1 17 18
M  V30 18 2 18 19
M  V30 19 1 19 20
M  V30 20 2 20 21
M  V30 21 1 21 22
M  V30 22 1 22 23
M  V30 23 1 23 24
M  V30 24 1 23 25
M  V30 25 2 10 26
M  V30 26 1 26 27
M  V30 27 2 27 28
M  V30 28 2 4 29
M  V30 29 1 29 30
M  V30 30 2 30 31
M  V30 31 1 31 2
M  V30 32 1 28 5
M  V30 33 1 28 8
M  V30 34 1 21 16
M  V30 35 1 1 32
M  V30 36 1 1 33
M  V30 37 1 1 34
M  V30 38 1 3 35
M  V30 39 1 7 36
M  V30 40 1 9 37
M  V30 41 1 11 38
M  V30 42 1 14 39
M  V30 43 1 15 40
M  V30 44 1 15 41
M  V30 45 1 17 42
M  V30 46 1 18 43
M  V30 47 1 19 44
M  V30 48 1 20 45
M  V30 49 1 23 46
M  V30 50 1 27 47
M  V30 51 1 29 48
M  V30 52 1 30 49
M  V30 END BOND
M  V30 END CTAB
M  END
>  <Dataset>  (59) 
ChEMBL_Kinases

>  <Ligand_Instance>  (59) 
nan

>  <PDB_ID>  (59) 
nan

>  <Standardized_SMILES>  (59) 
Cc1cc(-c2n[nH]c3cc(NC(=O)NCc4ccccc4OC(F)F)ncc23)ccn1

>  <Name>  (59) 
nan

>  <Pocket>  (59) 
nan

>  <ATP_Site>  (59) 
nan

>  <Peripheral>  (59) 
nan

>  <Num_H_Atoms_ProtBoundConf>  (59) 
nan

>  <Num_Resolved_Atoms>  (59) 
nan

>  <Num_Not_Resolved_Atoms>  (59) 
nan

$$$$
CHEMBL3658805
     RDKit          3D

  0  0  0  0  0  0  0  0  0  0999 V3000
M  V30 BEGIN CTAB
M  V30 COUNTS 45 48 0 0 0
M  V30 BEGIN ATOM
M  V30 1 C -2.366519 -5.886178 -0.307592 0
M  V30 2 C -1.012896 -5.940645 -0.956682 0
M  V30 3 C -0.375039 -4.735646 -1.074018 0
M  V30 4 C 0.883700 -4.558493 -1.643139 0
M  V30 5 C 1.518284 -3.244257 -1.740734 0
M  V30 6 N 2.124244 -2.833865 -2.894905 0
M  V30 7 N 2.619560 -1.600310 -2.706019 0
M  V30 8 C 2.356142 -1.197406 -1.470941 0
M  V30 9 C 2.607427 -0.062220 -0.729827 0
M  V30 10 C 2.168649 0.028965 0.599160 0
M  V30 11 N 2.386016 1.160021 1.431767 0
M  V30 12 C 1.415851 2.178943 1.439547 0
M  V30 13 O 0.411950 2.045198 0.719420 0
M  V30 14 N 1.471862 3.356404 2.197289 0
M  V30 15 C 0.713069 4.554166 2.457254 0
M  V30 16 C -0.604020 4.261953 3.064870 0
M  V30 17 C -0.650765 4.334395 4.462375 0
M  V30 18 C -1.766468 4.068973 5.223044 0
M  V30 19 C -2.942870 3.702501 4.607910 0
M  V30 20 C -2.949782 3.617499 3.239203 0
M  V30 21 C -1.811547 3.892699 2.527259 0
M  V30 22 F -1.853770 3.834895 1.183383 0
M  V30 23 N 1.501668 -1.015062 1.123244 0
M  V30 24 C 1.226705 -2.139348 0.461151 0
M  V30 25 C 1.658098 -2.212148 -0.824419 0
M  V30 26 C 1.516728 -5.708629 -2.119466 0
M  V30 27 C 0.829357 -6.919743 -1.979583 0
M  V30 28 N -0.389899 -7.029961 -1.418819 0
M  V30 29 H -2.217412 -5.291411 0.625351 0
M  V30 30 H -2.810058 -6.869642 -0.158537 0
M  V30 31 H -2.990700 -5.231074 -0.973747 0
M  V30 32 H -0.815426 -3.811796 -0.724563 0
M  V30 33 H 3.135284 -1.032096 -3.413705 0
M  V30 34 H 3.137950 0.771798 -1.144181 0
M  V30 35 H 3.224303 1.257412 2.024897 0
M  V30 36 H 2.378374 3.357321 2.767200 0
M  V30 37 H 1.247599 5.250472 3.112476 0
M  V30 38 H 0.573145 5.134272 1.497597 0
M  V30 39 H 0.230482 4.615415 5.031541 0
M  V30 40 H -1.744748 4.140872 6.302231 0
M  V30 41 H -3.833856 3.487748 5.173589 0
M  V30 42 H -3.828469 3.339227 2.705836 0
M  V30 43 H 0.688397 -2.948186 0.928560 0
M  V30 44 H 2.481797 -5.644535 -2.566484 0
M  V30 45 H 1.286436 -7.851500 -2.338649 0
M  V30 END ATOM
M  V30 BEGIN BOND
M  V30 1 1 1 2
M  V30 2 2 2 3
M  V30 3 1 3 4
M  V30 4 1 4 5
M  V30 5 2 5 6
M  V30 6 1 6 7
M  V30 7 1 7 8
M  V30 8 2 8 9
M  V30 9 1 9 10
M  V30 10 1 10 11
M  V30 11 1 11 12
M  V30 12 2 12 13
M  V30 13 1 12 14
M  V30 14 1 14 15
M  V30 15 1 15 16
M  V30 16 2 16 17
M  V30 17 1 17 18
M  V30 18 2 18 19
M  V30 19 1 19 20
M  V30 20 2 20 21
M  V30 21 1 21 22
M  V30 22 2 10 23
M  V30 23 1 23 24
M  V30 24 2 24 25
M  V30 25 2 4 26
M  V30 26 1 26 27
M  V30 27 2 27 28
M  V30 28 1 28 2
M  V30 29 1 25 5
M  V30 30 1 25 8
M  V30 31 1 21 16
M  V30 32 1 1 29
M  V30 33 1 1 30
M  V30 34 1 1 31
M  V30 35 1 3 32
M  V30 36 1 7 33
M  V30 37 1 9 34
M  V30 38 1 11 35
M  V30 39 1 14 36
M  V30 40 1 15 37
M  V30 41 1 15 38
M  V30 42 1 17 39
M  V30 43 1 18 40
M  V30 44 1 19 41
M  V30 45 1 20 42
M  V30 46 1 24 43
M  V30 47 1 26 44
M  V30 48 1 27 45
M  V30 END BOND
M  V30 END CTAB
M  END
>  <Dataset>  (60) 
ChEMBL_Kinases

>  <Ligand_Instance>  (60) 
nan

>  <PDB_ID>  (60) 
nan

>  <Standardized_SMILES>  (60) 
Cc1cc(-c2n[nH]c3cc(NC(=O)NCc4ccccc4F)ncc23)ccn1

>  <Name>  (60) 
nan

>  <Pocket>  (60) 
nan

>  <ATP_Site>  (60) 
nan

>  <Peripheral>  (60) 
nan

>  <Num_H_Atoms_ProtBoundConf>  (60) 
nan

>  <Num_Resolved_Atoms>  (60) 
nan

>  <Num_Not_Resolved_Atoms>  (60) 
nan

$$$$
CHEMBL3658806
     RDKit          3D

  0  0  0  0  0  0  0  0  0  0999 V3000
M  V30 BEGIN CTAB
M  V30 COUNTS 45 48 0 0 0
M  V30 BEGIN ATOM
M  V30 1 C -2.879565 -5.391874 0.785176 0
M  V30 2 C -1.419811 -5.672941 0.987168 0
M  V30 3 C -0.538668 -4.632171 1.269963 0
M  V30 4 C 0.821654 -4.843218 1.465395 0
M  V30 5 C 1.748936 -3.760972 1.762243 0
M  V30 6 N 2.727486 -3.757480 2.710937 0
M  V30 7 N 3.336105 -2.587041 2.649044 0
M  V30 8 C 2.779320 -1.830490 1.686135 0
M  V30 9 C 3.123963 -0.564125 1.314342 0
M  V30 10 C 2.398294 0.009030 0.289565 0
M  V30 11 N 2.532242 1.315469 -0.308828 0
M  V30 12 C 1.755982 2.345090 0.297941 0
M  V30 13 O 1.020837 2.117932 1.276166 0
M  V30 14 N 1.775805 3.663982 -0.169343 0
M  V30 15 C 0.985582 4.738167 0.439557 0
M  V30 16 C -0.462499 4.461987 0.400735 0
M  V30 17 C -1.182536 4.051336 1.515925 0
M  V30 18 C -2.545408 3.792748 1.474555 0
M  V30 19 C -3.223347 3.947531 0.279905 0
M  V30 20 Cl -4.962214 3.634386 0.155885 0
M  V30 21 C -2.529518 4.354222 -0.839643 0
M  V30 22 C -1.156486 4.615635 -0.802611 0
M  V30 23 Cl -0.254931 5.134069 -2.218890 0
M  V30 24 N 1.395459 -0.686908 -0.296386 0
M  V30 25 C 1.083415 -1.935297 0.097079 0
M  V30 26 C 1.767114 -2.559013 1.109197 0
M  V30 27 C 1.288093 -6.158601 1.367632 0
M  V30 28 C 0.377851 -7.182723 1.082239 0
M  V30 29 N -0.943443 -6.919127 0.900159 0
M  V30 30 H -2.951796 -4.348096 0.392103 0
M  V30 31 H -3.307288 -6.069849 0.033442 0
M  V30 32 H -3.453782 -5.473181 1.714085 0
M  V30 33 H -0.944920 -3.641697 1.334973 0
M  V30 34 H 4.132478 -2.329743 3.278983 0
M  V30 35 H 3.882278 0.077818 1.692724 0
M  V30 36 H 3.149189 1.506533 -1.129304 0
M  V30 37 H 2.380318 3.925908 -0.999386 0
M  V30 38 H 1.206245 5.708743 0.005432 0
M  V30 39 H 1.266399 4.778290 1.531934 0
M  V30 40 H -0.679594 3.921314 2.464708 0
M  V30 41 H -3.082191 3.469145 2.378770 0
M  V30 42 H -2.992416 4.496430 -1.805271 0
M  V30 43 H 0.278592 -2.489616 -0.376200 0
M  V30 44 H 2.330779 -6.415195 1.504695 0
M  V30 45 H 0.794827 -8.189412 1.017217 0
M  V30 END ATOM
M  V30 BEGIN BOND
M  V30 1 1 1 2
M  V30 2 2 2 3
M  V30 3 1 3 4
M  V30 4 1 4 5
M  V30 5 2 5 6
M  V30 6 1 6 7
M  V30 7 1 7 8
M  V30 8 2 8 9
M  V30 9 1 9 10
M  V30 10 1 10 11
M  V30 11 1 11 12
M  V30 12 2 12 13
M  V30 13 1 12 14
M  V30 14 1 14 15
M  V30 15 1 15 16
M  V30 16 2 16 17
M  V30 17 1 17 18
M  V30 18 2 18 19
M  V30 19 1 19 20
M  V30 20 1 19 21
M  V30 21 2 21 22
M  V30 22 1 22 23
M  V30 23 2 10 24
M  V30 24 1 24 25
M  V30 25 2 25 26
M  V30 26 2 4 27
M  V30 27 1 27 28
M  V30 28 2 28 29
M  V30 29 1 29 2
M  V30 30 1 26 5
M  V30 31 1 26 8
M  V30 32 1 22 16
M  V30 33 1 1 30
M  V30 34 1 1 31
M  V30 35 1 1 32
M  V30 36 1 3 33
M  V30 37 1 7 34
M  V30 38 1 9 35
M  V30 39 1 11 36
M  V30 40 1 14 37
M  V30 41 1 15 38
M  V30 42 1 15 39
M  V30 43 1 17 40
M  V30 44 1 18 41
M  V30 45 1 21 42
M  V30 46 1 25 43
M  V30 47 1 27 44
M  V30 48 1 28 45
M  V30 END BOND
M  V30 END CTAB
M  END
>  <Dataset>  (61) 
ChEMBL_Kinases

>  <Ligand_Instance>  (61) 
nan

>  <PDB_ID>  (61) 
nan

>  <Standardized_SMILES>  (61) 
Cc1cc(-c2n[nH]c3cc(NC(=O)NCc4ccc(Cl)cc4Cl)ncc23)ccn1

>  <Name>  (61) 
nan

>  <Pocket>  (61) 
nan

>  <ATP_Site>  (61) 
nan

>  <Peripheral>  (61) 
nan

>  <Num_H_Atoms_ProtBoundConf>  (61) 
nan

>  <Num_Resolved_Atoms>  (61) 
nan

>  <Num_Not_Resolved_Atoms>  (61) 
nan

$$$$
CHEMBL3658816
     RDKit          3D

  0  0  0  0  0  0  0  0  0  0999 V3000
M  V30 BEGIN CTAB
M  V30 COUNTS 49 52 0 0 0
M  V30 BEGIN ATOM
M  V30 1 C -0.963086 -6.641187 -2.776297 0
M  V30 2 C 0.446294 -6.592978 -2.307063 0
M  V30 3 C 0.881564 -5.558199 -1.503397 0
M  V30 4 C 2.163883 -5.421977 -1.016808 0
M  V30 5 C 2.584016 -4.317232 -0.172647 0
M  V30 6 N 3.340987 -4.470231 0.951384 0
M  V30 7 N 3.560777 -3.270330 1.508199 0
M  V30 8 C 2.942590 -2.366810 0.734439 0
M  V30 9 C 2.869508 -0.990840 0.878015 0
M  V30 10 C 2.147576 -0.296691 -0.092450 0
M  V30 11 N 1.955935 1.113688 -0.122996 0
M  V30 12 C 0.859474 1.727830 0.515663 0
M  V30 13 O 0.076167 0.949729 1.104662 0
M  V30 14 N 0.623117 3.106645 0.517367 0
M  V30 15 C -0.490441 3.816656 1.161799 0
M  V30 16 C -0.399227 3.529565 2.634686 0
M  V30 17 O -1.357593 4.104942 3.439094 0
M  V30 18 C -2.701544 3.969377 3.463512 0
M  V30 19 C -3.634276 3.246364 2.755683 0
M  V30 20 C -4.985770 3.309472 3.007433 0
M  V30 21 C -5.457454 4.123121 4.006183 0
M  V30 22 C -4.581357 4.872186 4.751988 0
M  V30 23 C -3.210818 4.792868 4.478826 0
M  V30 24 N 1.534375 -0.910868 -1.139694 0
M  V30 25 C 1.598800 -2.266501 -1.292682 0
M  V30 26 C 2.312587 -2.969450 -0.336247 0
M  V30 27 C 3.026957 -6.438629 -1.405182 0
M  V30 28 C 2.618379 -7.494809 -2.214374 0
M  V30 29 N 1.344154 -7.538934 -2.638962 0
M  V30 30 H -1.407270 -5.614115 -2.692188 0
M  V30 31 H -1.024533 -6.908870 -3.846362 0
M  V30 32 H -1.567547 -7.313600 -2.121956 0
M  V30 33 H 0.142671 -4.805991 -1.247231 0
M  V30 34 H 4.110178 -3.092649 2.377477 0
M  V30 35 H 3.306446 -0.407292 1.651256 0
M  V30 36 H 2.643590 1.711001 -0.630719 0
M  V30 37 H 1.366350 3.644077 -0.024026 0
M  V30 38 H -1.447755 3.559307 0.691876 0
M  V30 39 H -0.331606 4.897353 0.962877 0
M  V30 40 H 0.621899 3.833319 2.949981 0
M  V30 41 H -0.449509 2.413924 2.805427 0
M  V30 42 H -3.162670 2.636449 2.001594 0
M  V30 43 H -5.591256 2.669378 2.351157 0
M  V30 44 H -6.531770 4.098689 4.120457 0
M  V30 45 H -5.040788 5.477995 5.510156 0
M  V30 46 H -2.669003 5.457312 5.171615 0
M  V30 47 H 1.124156 -2.791551 -2.112475 0
M  V30 48 H 4.061411 -6.413325 -1.067284 0
M  V30 49 H 3.334331 -8.275642 -2.496164 0
M  V30 END ATOM
M  V30 BEGIN BOND
M  V30 1 1 1 2
M  V30 2 2 2 3
M  V30 3 1 3 4
M  V30 4 1 4 5
M  V30 5 2 5 6
M  V30 6 1 6 7
M  V30 7 1 7 8
M  V30 8 2 8 9
M  V30 9 1 9 10
M  V30 10 1 10 11
M  V30 11 1 11 12
M  V30 12 2 12 13
M  V30 13 1 12 14
M  V30 14 1 14 15
M  V30 15 1 15 16
M  V30 16 1 16 17
M  V30 17 1 17 18
M  V30 18 2 18 19
M  V30 19 1 19 20
M  V30 20 2 20 21
M  V30 21 1 21 22
M  V30 22 2 22 23
M  V30 23 2 10 24
M  V30 24 1 24 25
M  V30 25 2 25 26
M  V30 26 2 4 27
M  V30 27 1 27 28
M  V30 28 2 28 29
M  V30 29 1 29 2
M  V30 30 1 26 5
M  V30 31 1 26 8
M  V30 32 1 23 18
M  V30 33 1 1 30
M  V30 34 1 1 31
M  V30 35 1 1 32
M  V30 36 1 3 33
M  V30 37 1 7 34
M  V30 38 1 9 35
M  V30 39 1 11 36
M  V30 40 1 14 37
M  V30 41 1 15 38
M  V30 42 1 15 39
M  V30 43 1 16 40
M  V30 44 1 16 41
M  V30 45 1 19 42
M  V30 46 1 20 43
M  V30 47 1 21 44
M  V30 48 1 22 45
M  V30 49 1 23 46
M  V30 50 1 25 47
M  V30 51 1 27 48
M  V30 52 1 28 49
M  V30 END BOND
M  V30 END CTAB
M  END
>  <Dataset>  (62) 
ChEMBL_Kinases

>  <Ligand_Instance>  (62) 
nan

>  <PDB_ID>  (62) 
nan

>  <Standardized_SMILES>  (62) 
Cc1cc(-c2n[nH]c3cc(NC(=O)NCCOc4ccccc4)ncc23)ccn1

>  <Name>  (62) 
nan

>  <Pocket>  (62) 
nan

>  <ATP_Site>  (62) 
nan

>  <Peripheral>  (62) 
nan

>  <Num_H_Atoms_ProtBoundConf>  (62) 
nan

>  <Num_Resolved_Atoms>  (62) 
nan

>  <Num_Not_Resolved_Atoms>  (62) 
nan

$$$$
CHEMBL3658808
     RDKit          3D

  0  0  0  0  0  0  0  0  0  0999 V3000
M  V30 BEGIN CTAB
M  V30 COUNTS 46 49 0 0 0
M  V30 BEGIN ATOM
M  V30 1 C -2.679393 -5.616729 0.251430 0
M  V30 2 C -1.370347 -5.786245 -0.439746 0
M  V30 3 C -0.327093 -4.886896 -0.224777 0
M  V30 4 C 0.918198 -5.005515 -0.851729 0
M  V30 5 C 1.960853 -4.007726 -0.567742 0
M  V30 6 N 3.275238 -4.247259 -0.287139 0
M  V30 7 N 3.918596 -3.110130 -0.086204 0
M  V30 8 C 3.003534 -2.144495 -0.241081 0
M  V30 9 C 3.226321 -0.790873 -0.123683 0
M  V30 10 C 2.146216 0.047843 -0.322875 0
M  V30 11 N 2.055961 1.483534 -0.267989 0
M  V30 12 C 1.722416 2.050299 1.013736 0
M  V30 13 O 1.531304 1.288589 1.995442 0
M  V30 14 N 1.615794 3.480667 1.138111 0
M  V30 15 C 1.284388 4.169414 2.370221 0
M  V30 16 C -0.155496 4.095483 2.708951 0
M  V30 17 C -0.810958 3.149337 3.465860 0
M  V30 18 C -2.164655 3.218441 3.690979 0
M  V30 19 C -2.945905 4.227914 3.179527 0
M  V30 20 C -4.342737 4.226290 3.460271 0
M  V30 21 N -5.478946 4.212738 3.684027 0
M  V30 22 C -2.324442 5.200616 2.411916 0
M  V30 23 C -0.963118 5.116901 2.194848 0
M  V30 24 N 0.935182 -0.493758 -0.620233 0
M  V30 25 C 0.713303 -1.802265 -0.735091 0
M  V30 26 C 1.778404 -2.656155 -0.539944 0
M  V30 27 C 1.074394 -6.090211 -1.723106 0
M  V30 28 C 0.032618 -6.955195 -1.913067 0
M  V30 29 N -1.158506 -6.823956 -1.300387 0
M  V30 30 H -3.128091 -4.620585 0.062337 0
M  V30 31 H -3.381612 -6.364412 -0.178988 0
M  V30 32 H -2.624942 -5.828037 1.341944 0
M  V30 33 H -0.562445 -4.085416 0.473671 0
M  V30 34 H 4.942237 -3.019384 0.146600 0
M  V30 35 H 4.118960 -0.238834 0.103189 0
M  V30 36 H 2.216335 2.112980 -1.088456 0
M  V30 37 H 1.794554 4.028369 0.264388 0
M  V30 38 H 1.576778 5.223264 2.265192 0
M  V30 39 H 1.815661 3.665634 3.217231 0
M  V30 40 H -0.170782 2.368433 3.855327 0
M  V30 41 H -2.638227 2.445447 4.296266 0
M  V30 42 H -2.918972 5.991305 2.008216 0
M  V30 43 H -0.550321 5.917243 1.583067 0
M  V30 44 H -0.271919 -2.207736 -0.977132 0
M  V30 45 H 2.042563 -6.182016 -2.210096 0
M  V30 46 H 0.157399 -7.803382 -2.595382 0
M  V30 END ATOM
M  V30 BEGIN BOND
M  V30 1 1 1 2
M  V30 2 2 2 3
M  V30 3 1 3 4
M  V30 4 1 4 5
M  V30 5 2 5 6
M  V30 6 1 6 7
M  V30 7 1 7 8
M  V30 8 2 8 9
M  V30 9 1 9 10
M  V30 10 1 10 11
M  V30 11 1 11 12
M  V30 12 2 12 13
M  V30 13 1 12 14
M  V30 14 1 14 15
M  V30 15 1 15 16
M  V30 16 2 16 17
M  V30 17 1 17 18
M  V30 18 2 18 19
M  V30 19 1 19 20
M  V30 20 3 20 21
M  V30 21 1 19 22
M  V30 22 2 22 23
M  V30 23 2 10 24
M  V30 24 1 24 25
M  V30 25 2 25 26
M  V30 26 2 4 27
M  V30 27 1 27 28
M  V30 28 2 28 29
M  V30 29 1 29 2
M  V30 30 1 26 5
M  V30 31 1 26 8
M  V30 32 1 23 16
M  V30 33 1 1 30
M  V30 34 1 1 31
M  V30 35 1 1 32
M  V30 36 1 3 33
M  V30 37 1 7 34
M  V30 38 1 9 35
M  V30 39 1 11 36
M  V30 40 1 14 37
M  V30 41 1 15 38
M  V30 42 1 15 39
M  V30 43 1 17 40
M  V30 44 1 18 41
M  V30 45 1 22 42
M  V30 46 1 23 43
M  V30 47 1 25 44
M  V30 48 1 27 45
M  V30 49 1 28 46
M  V30 END BOND
M  V30 END CTAB
M  END
>  <Dataset>  (63) 
ChEMBL_Kinases

>  <Ligand_Instance>  (63) 
nan

>  <PDB_ID>  (63) 
nan

>  <Standardized_SMILES>  (63) 
Cc1cc(-c2n[nH]c3cc(NC(=O)NCc4ccc(C#N)cc4)ncc23)ccn1

>  <Name>  (63) 
nan

>  <Pocket>  (63) 
nan

>  <ATP_Site>  (63) 
nan

>  <Peripheral>  (63) 
nan

>  <Num_H_Atoms_ProtBoundConf>  (63) 
nan

>  <Num_Resolved_Atoms>  (63) 
nan

>  <Num_Not_Resolved_Atoms>  (63) 
nan

$$$$
CHEMBL3658809
     RDKit          3D

  0  0  0  0  0  0  0  0  0  0999 V3000
M  V30 BEGIN CTAB
M  V30 COUNTS 43 46 0 0 0
M  V30 BEGIN ATOM
M  V30 1 C -1.113289 -6.092213 1.536579 0
M  V30 2 C -0.085700 -6.010546 0.449646 0
M  V30 3 C 0.650837 -4.835292 0.318039 0
M  V30 4 C 1.639081 -4.624421 -0.650831 0
M  V30 5 C 2.350867 -3.366487 -0.712337 0
M  V30 6 N 3.672097 -3.135175 -0.847923 0
M  V30 7 N 3.928796 -1.829753 -0.862356 0
M  V30 8 C 2.781870 -1.130604 -0.736318 0
M  V30 9 C 2.464369 0.211540 -0.691812 0
M  V30 10 C 1.164201 0.653176 -0.553328 0
M  V30 11 N 0.766891 2.016879 -0.501034 0
M  V30 12 C 0.662088 2.776233 0.680028 0
M  V30 13 O 0.963543 2.114728 1.714812 0
M  V30 14 N 0.275498 4.114963 0.774278 0
M  V30 15 C 0.171352 4.892017 1.995335 0
M  V30 16 C -1.020295 4.590989 2.800150 0
M  V30 17 C -1.104023 3.636679 3.800957 0
M  V30 18 C -2.271606 3.429205 4.498946 0
M  V30 19 C -3.359160 4.206876 4.166614 0
M  V30 20 N -3.236787 5.117633 3.193685 0
M  V30 21 N -2.113443 5.322245 2.517250 0
M  V30 22 N 0.211327 -0.307113 -0.462924 0
M  V30 23 C 0.513755 -1.618121 -0.505661 0
M  V30 24 C 1.797125 -2.103570 -0.642821 0
M  V30 25 C 1.854537 -5.697530 -1.510466 0
M  V30 26 C 1.112634 -6.844654 -1.356526 0
M  V30 27 N 0.166648 -7.024531 -0.416618 0
M  V30 28 H -0.643819 -5.865538 2.529937 0
M  V30 29 H -1.938781 -5.353213 1.380935 0
M  V30 30 H -1.567225 -7.099701 1.525355 0
M  V30 31 H 0.427252 -4.033162 1.033577 0
M  V30 32 H 4.886697 -1.420408 -0.958269 0
M  V30 33 H 3.247762 0.961524 -0.765241 0
M  V30 34 H 0.516901 2.570128 -1.349285 0
M  V30 35 H 0.046076 4.571930 -0.136843 0
M  V30 36 H 1.088679 4.614635 2.590947 0
M  V30 37 H 0.307115 5.980890 1.795632 0
M  V30 38 H -0.212478 3.062986 4.010584 0
M  V30 39 H -2.301079 2.680824 5.267655 0
M  V30 40 H -4.287679 4.065076 4.698560 0
M  V30 41 H -0.317041 -2.299508 -0.427113 0
M  V30 42 H 2.609302 -5.581437 -2.278024 0
M  V30 43 H 1.270075 -7.697561 -2.024980 0
M  V30 END ATOM
M  V30 BEGIN BOND
M  V30 1 1 1 2
M  V30 2 2 2 3
M  V30 3 1 3 4
M  V30 4 1 4 5
M  V30 5 2 5 6
M  V30 6 1 6 7
M  V30 7 1 7 8
M  V30 8 2 8 9
M  V30 9 1 9 10
M  V30 10 1 10 11
M  V30 11 1 11 12
M  V30 12 2 12 13
M  V30 13 1 12 14
M  V30 14 1 14 15
M  V30 15 1 15 16
M  V30 16 2 16 17
M  V30 17 1 17 18
M  V30 18 2 18 19
M  V30 19 1 19 20
M  V30 20 2 20 21
M  V30 21 2 10 22
M  V30 22 1 22 23
M  V30 23 2 23 24
M  V30 24 2 4 25
M  V30 25 1 25 26
M  V30 26 2 26 27
M  V30 27 1 27 2
M  V30 28 1 24 5
M  V30 29 1 24 8
M  V30 30 1 21 16
M  V30 31 1 1 28
M  V30 32 1 1 29
M  V30 33 1 1 30
M  V30 34 1 3 31
M  V30 35 1 7 32
M  V30 36 1 9 33
M  V30 37 1 11 34
M  V30 38 1 14 35
M  V30 39 1 15 36
M  V30 40 1 15 37
M  V30 41 1 17 38
M  V30 42 1 18 39
M  V30 43 1 19 40
M  V30 44 1 23 41
M  V30 45 1 25 42
M  V30 46 1 26 43
M  V30 END BOND
M  V30 END CTAB
M  END
>  <Dataset>  (64) 
ChEMBL_Kinases

>  <Ligand_Instance>  (64) 
nan

>  <PDB_ID>  (64) 
nan

>  <Standardized_SMILES>  (64) 
Cc1cc(-c2n[nH]c3cc(NC(=O)NCc4cccnn4)ncc23)ccn1

>  <Name>  (64) 
nan

>  <Pocket>  (64) 
nan

>  <ATP_Site>  (64) 
nan

>  <Peripheral>  (64) 
nan

>  <Num_H_Atoms_ProtBoundConf>  (64) 
nan

>  <Num_Resolved_Atoms>  (64) 
nan

>  <Num_Not_Resolved_Atoms>  (64) 
nan

$$$$
CHEMBL3658810
     RDKit          3D

  0  0  0  0  0  0  0  0  0  0999 V3000
M  V30 BEGIN CTAB
M  V30 COUNTS 44 47 0 0 0
M  V30 BEGIN ATOM
M  V30 1 C -2.111246 -5.357506 1.146404 0
M  V30 2 C -1.025124 -5.329187 0.113088 0
M  V30 3 C -0.446183 -4.184097 -0.390072 0
M  V30 4 C 0.552078 -4.243046 -1.342925 0
M  V30 5 C 1.090607 -2.967906 -1.798187 0
M  V30 6 N 1.336177 -2.570228 -3.060273 0
M  V30 7 N 1.830510 -1.334053 -3.077224 0
M  V30 8 C 1.909021 -0.917107 -1.801056 0
M  V30 9 C 2.363041 0.299827 -1.336020 0
M  V30 10 C 2.349386 0.496879 0.019066 0
M  V30 11 N 2.758090 1.655072 0.777791 0
M  V30 12 C 1.668936 2.565949 0.974206 0
M  V30 13 O 0.477868 2.492801 0.596522 0
M  V30 14 N 1.931241 3.759916 1.709945 0
M  V30 15 C 0.859909 4.721925 1.940366 0
M  V30 16 C -0.261479 4.068265 2.706511 0
M  V30 17 N -1.409592 3.702909 2.069391 0
M  V30 18 C -2.442577 3.121029 2.679260 0
M  V30 19 C -2.348037 2.870478 4.044042 0
M  V30 20 C -1.170384 3.246299 4.692783 0
M  V30 21 C -0.096043 3.850964 4.060091 0
M  V30 22 F 1.011047 4.190841 4.733959 0
M  V30 23 N 1.900263 -0.485365 0.855545 0
M  V30 24 C 1.459073 -1.672021 0.378672 0
M  V30 25 C 1.451587 -1.921558 -0.973900 0
M  V30 26 C 0.948173 -5.484562 -1.772473 0
M  V30 27 C 0.369294 -6.635027 -1.269821 0
M  V30 28 N -0.609818 -6.548674 -0.333622 0
M  V30 29 H -1.878966 -6.074774 1.961195 0
M  V30 30 H -2.286862 -4.346471 1.566645 0
M  V30 31 H -3.008659 -5.756855 0.624839 0
M  V30 32 H -0.884361 -3.306907 0.061375 0
M  V30 33 H 2.103965 -0.799943 -3.952264 0
M  V30 34 H 2.731369 1.130080 -1.881166 0
M  V30 35 H 3.722664 1.868945 1.169716 0
M  V30 36 H 2.913387 3.929339 2.081527 0
M  V30 37 H 1.243913 5.511581 2.583685 0
M  V30 38 H 0.513454 5.072669 0.959118 0
M  V30 39 H -3.324532 2.857360 2.109468 0
M  V30 40 H -3.158168 2.401574 4.582391 0
M  V30 41 H -1.160782 3.024097 5.752610 0
M  V30 42 H 1.109581 -2.438932 1.047897 0
M  V30 43 H 1.736009 -5.520330 -2.524234 0
M  V30 44 H 0.680054 -7.615068 -1.607280 0
M  V30 END ATOM
M  V30 BEGIN BOND
M  V30 1 1 1 2
M  V30 2 2 2 3
M  V30 3 1 3 4
M  V30 4 1 4 5
M  V30 5 2 5 6
M  V30 6 1 6 7
M  V30 7 1 7 8
M  V30 8 2 8 9
M  V30 9 1 9 10
M  V30 10 1 10 11
M  V30 11 1 11 12
M  V30 12 2 12 13
M  V30 13 1 12 14
M  V30 14 1 14 15
M  V30 15 1 15 16
M  V30 16 2 16 17
M  V30 17 1 17 18
M  V30 18 2 18 19
M  V30 19 1 19 20
M  V30 20 2 20 21
M  V30 21 1 21 22
M  V30 22 2 10 23
M  V30 23 1 23 24
M  V30 24 2 24 25
M  V30 25 2 4 26
M  V30 26 1 26 27
M  V30 27 2 27 28
M  V30 28 1 28 2
M  V30 29 1 25 5
M  V30 30 1 25 8
M  V30 31 1 21 16
M  V30 32 1 1 29
M  V30 33 1 1 30
M  V30 34 1 1 31
M  V30 35 1 3 32
M  V30 36 1 7 33
M  V30 37 1 9 34
M  V30 38 1 11 35
M  V30 39 1 14 36
M  V30 40 1 15 37
M  V30 41 1 15 38
M  V30 42 1 18 39
M  V30 43 1 19 40
M  V30 44 1 20 41
M  V30 45 1 24 42
M  V30 46 1 26 43
M  V30 47 1 27 44
M  V30 END BOND
M  V30 END CTAB
M  END
>  <Dataset>  (65) 
ChEMBL_Kinases

>  <Ligand_Instance>  (65) 
nan

>  <PDB_ID>  (65) 
nan

>  <Standardized_SMILES>  (65) 
Cc1cc(-c2n[nH]c3cc(NC(=O)NCc4ncccc4F)ncc23)ccn1

>  <Name>  (65) 
nan

>  <Pocket>  (65) 
nan

>  <ATP_Site>  (65) 
nan

>  <Peripheral>  (65) 
nan

>  <Num_H_Atoms_ProtBoundConf>  (65) 
nan

>  <Num_Resolved_Atoms>  (65) 
nan

>  <Num_Not_Resolved_Atoms>  (65) 
nan

$$$$
CHEMBL3658811
     RDKit          3D

  0  0  0  0  0  0  0  0  0  0999 V3000
M  V30 BEGIN CTAB
M  V30 COUNTS 44 47 0 0 0
M  V30 BEGIN ATOM
M  V30 1 C -2.080999 -5.434718 1.156766 0
M  V30 2 C -0.990991 -5.426363 0.145230 0
M  V30 3 C -0.414938 -4.258257 -0.364812 0
M  V30 4 C 0.591464 -4.267851 -1.298181 0
M  V30 5 C 1.125345 -2.996995 -1.763692 0
M  V30 6 N 1.387351 -2.618232 -3.029752 0
M  V30 7 N 1.870691 -1.380982 -3.067312 0
M  V30 8 C 1.917226 -0.962566 -1.793160 0
M  V30 9 C 2.353721 0.267275 -1.342544 0
M  V30 10 C 2.320093 0.495736 0.010976 0
M  V30 11 N 2.701557 1.655924 0.770983 0
M  V30 12 C 1.626172 2.580476 0.956167 0
M  V30 13 O 0.429947 2.519811 0.557229 0
M  V30 14 N 1.906024 3.766580 1.700617 0
M  V30 15 C 0.854222 4.751510 1.926818 0
M  V30 16 C -0.288070 4.123907 2.679305 0
M  V30 17 N -1.430118 3.791863 2.033872 0
M  V30 18 C -2.490080 3.234143 2.613448 0
M  V30 19 C -2.431819 2.971386 3.967146 0
M  V30 20 C -1.286666 3.294816 4.659012 0
M  V30 21 C -0.193447 3.875788 4.034448 0
M  V30 22 Cl 1.281318 4.299446 4.893151 0
M  V30 23 N 1.867665 -0.472715 0.858768 0
M  V30 24 C 1.439846 -1.676678 0.422094 0
M  V30 25 C 1.460203 -1.938841 -0.930788 0
M  V30 26 C 1.017401 -5.508266 -1.718983 0
M  V30 27 C 0.459689 -6.683644 -1.226247 0
M  V30 28 N -0.537566 -6.617673 -0.299986 0
M  V30 29 H -1.842013 -6.029581 2.050278 0
M  V30 30 H -2.405233 -4.401068 1.398246 0
M  V30 31 H -2.961227 -5.915839 0.673770 0
M  V30 32 H -0.865623 -3.378915 0.068670 0
M  V30 33 H 2.154158 -0.853795 -3.932342 0
M  V30 34 H 2.726858 1.103405 -1.881512 0
M  V30 35 H 3.657548 1.858579 1.175328 0
M  V30 36 H 2.873715 3.920877 2.081875 0
M  V30 37 H 1.269900 5.602868 2.475621 0
M  V30 38 H 0.477884 5.058995 0.930635 0
M  V30 39 H -3.394150 2.977490 2.071545 0
M  V30 40 H -3.276211 2.522832 4.449097 0
M  V30 41 H -1.224776 3.091480 5.738953 0
M  V30 42 H 1.083546 -2.444524 1.087261 0
M  V30 43 H 1.811861 -5.546178 -2.456363 0
M  V30 44 H 0.846403 -7.622325 -1.604046 0
M  V30 END ATOM
M  V30 BEGIN BOND
M  V30 1 1 1 2
M  V30 2 2 2 3
M  V30 3 1 3 4
M  V30 4 1 4 5
M  V30 5 2 5 6
M  V30 6 1 6 7
M  V30 7 1 7 8
M  V30 8 2 8 9
M  V30 9 1 9 10
M  V30 10 1 10 11
M  V30 11 1 11 12
M  V30 12 2 12 13
M  V30 13 1 12 14
M  V30 14 1 14 15
M  V30 15 1 15 16
M  V30 16 2 16 17
M  V30 17 1 17 18
M  V30 18 2 18 19
M  V30 19 1 19 20
M  V30 20 2 20 21
M  V30 21 1 21 22
M  V30 22 2 10 23
M  V30 23 1 23 24
M  V30 24 2 24 25
M  V30 25 2 4 26
M  V30 26 1 26 27
M  V30 27 2 27 28
M  V30 28 1 28 2
M  V30 29 1 25 5
M  V30 30 1 25 8
M  V30 31 1 21 16
M  V30 32 1 1 29
M  V30 33 1 1 30
M  V30 34 1 1 31
M  V30 35 1 3 32
M  V30 36 1 7 33
M  V30 37 1 9 34
M  V30 38 1 11 35
M  V30 39 1 14 36
M  V30 40 1 15 37
M  V30 41 1 15 38
M  V30 42 1 18 39
M  V30 43 1 19 40
M  V30 44 1 20 41
M  V30 45 1 24 42
M  V30 46 1 26 43
M  V30 47 1 27 44
M  V30 END BOND
M  V30 END CTAB
M  END
>  <Dataset>  (66) 
ChEMBL_Kinases

>  <Ligand_Instance>  (66) 
nan

>  <PDB_ID>  (66) 
nan

>  <Standardized_SMILES>  (66) 
Cc1cc(-c2n[nH]c3cc(NC(=O)NCc4ncccc4Cl)ncc23)ccn1

>  <Name>  (66) 
nan

>  <Pocket>  (66) 
nan

>  <ATP_Site>  (66) 
nan

>  <Peripheral>  (66) 
nan

>  <Num_H_Atoms_ProtBoundConf>  (66) 
nan

>  <Num_Resolved_Atoms>  (66) 
nan

>  <Num_Not_Resolved_Atoms>  (66) 
nan

$$$$
CHEMBL3658812
     RDKit          3D

  0  0  0  0  0  0  0  0  0  0999 V3000
M  V30 BEGIN CTAB
M  V30 COUNTS 43 46 0 0 0
M  V30 BEGIN ATOM
M  V30 1 C 0.961769 -6.490038 3.067153 0
M  V30 2 C 0.872750 -6.217513 1.598268 0
M  V30 3 C 1.363963 -5.004047 1.170173 0
M  V30 4 C 1.302604 -4.709426 -0.176404 0
M  V30 5 C 1.767806 -3.482374 -0.825442 0
M  V30 6 N 2.497731 -3.449137 -1.978483 0
M  V30 7 N 2.749565 -2.186337 -2.287151 0
M  V30 8 C 2.220502 -1.338709 -1.389468 0
M  V30 9 C 2.194478 0.034826 -1.250285 0
M  V30 10 C 1.532188 0.568159 -0.164030 0
M  V30 11 N 1.475339 1.983496 0.025948 0
M  V30 12 C 0.793275 2.536139 1.139561 0
M  V30 13 O 0.245406 1.749819 1.948657 0
M  V30 14 N 0.735559 3.920042 1.326399 0
M  V30 15 C 0.082697 4.642216 2.400979 0
M  V30 16 C -1.374697 4.705224 2.258120 0
M  V30 17 C -2.176370 3.730652 2.814453 0
M  V30 18 N -3.523912 3.709306 2.730419 0
M  V30 19 C -4.150459 4.712774 2.052639 0
M  V30 20 N -3.393748 5.695906 1.487850 0
M  V30 21 C -2.043201 5.706362 1.578975 0
M  V30 22 N 0.925340 -0.252350 0.737961 0
M  V30 23 C 0.952711 -1.603878 0.598338 0
M  V30 24 C 1.601256 -2.160377 -0.467870 0
M  V30 25 C 0.751450 -5.635990 -1.061261 0
M  V30 26 C 0.274874 -6.834555 -0.578737 0
M  V30 27 N 0.337439 -7.118853 0.743689 0
M  V30 28 H 1.873840 -7.041040 3.336840 0
M  V30 29 H 0.863304 -5.526227 3.624947 0
M  V30 30 H 0.082277 -7.109644 3.400608 0
M  V30 31 H 1.803637 -4.238686 1.791175 0
M  V30 32 H 3.288841 -1.894874 -3.119663 0
M  V30 33 H 2.680064 0.670318 -1.973397 0
M  V30 34 H 1.933531 2.605362 -0.652758 0
M  V30 35 H 1.217224 4.517318 0.611577 0
M  V30 36 H 0.356815 4.101854 3.354731 0
M  V30 37 H 0.472522 5.656310 2.520774 0
M  V30 38 H -1.801408 2.886187 3.375666 0
M  V30 39 H -5.228563 4.708127 1.977510 0
M  V30 40 H -1.472399 6.505304 1.116780 0
M  V30 41 H 0.463625 -2.260402 1.326375 0
M  V30 42 H 0.640879 -5.537685 -2.130128 0
M  V30 43 H -0.175536 -7.632942 -1.172699 0
M  V30 END ATOM
M  V30 BEGIN BOND
M  V30 1 1 1 2
M  V30 2 2 2 3
M  V30 3 1 3 4
M  V30 4 1 4 5
M  V30 5 2 5 6
M  V30 6 1 6 7
M  V30 7 1 7 8
M  V30 8 2 8 9
M  V30 9 1 9 10
M  V30 10 1 10 11
M  V30 11 1 11 12
M  V30 12 2 12 13
M  V30 13 1 12 14
M  V30 14 1 14 15
M  V30 15 1 15 16
M  V30 16 2 16 17
M  V30 17 1 17 18
M  V30 18 2 18 19
M  V30 19 1 19 20
M  V30 20 2 20 21
M  V30 21 2 10 22
M  V30 22 1 22 23
M  V30 23 2 23 24
M  V30 24 2 4 25
M  V30 25 1 25 26
M  V30 26 2 26 27
M  V30 27 1 27 2
M  V30 28 1 24 5
M  V30 29 1 24 8
M  V30 30 1 21 16
M  V30 31 1 1 28
M  V30 32 1 1 29
M  V30 33 1 1 30
M  V30 34 1 3 31
M  V30 35 1 7 32
M  V30 36 1 9 33
M  V30 37 1 11 34
M  V30 38 1 14 35
M  V30 39 1 15 36
M  V30 40 1 15 37
M  V30 41 1 17 38
M  V30 42 1 19 39
M  V30 43 1 21 40
M  V30 44 1 23 41
M  V30 45 1 25 42
M  V30 46 1 26 43
M  V30 END BOND
M  V30 END CTAB
M  END
>  <Dataset>  (67) 
ChEMBL_Kinases

>  <Ligand_Instance>  (67) 
nan

>  <PDB_ID>  (67) 
nan

>  <Standardized_SMILES>  (67) 
Cc1cc(-c2n[nH]c3cc(NC(=O)NCc4cncnc4)ncc23)ccn1

>  <Name>  (67) 
nan

>  <Pocket>  (67) 
nan

>  <ATP_Site>  (67) 
nan

>  <Peripheral>  (67) 
nan

>  <Num_H_Atoms_ProtBoundConf>  (67) 
nan

>  <Num_Resolved_Atoms>  (67) 
nan

>  <Num_Not_Resolved_Atoms>  (67) 
nan

$$$$
CHEMBL3658813
     RDKit          3D

  0  0  0  0  0  0  0  0  0  0999 V3000
M  V30 BEGIN CTAB
M  V30 COUNTS 44 47 0 0 0
M  V30 BEGIN ATOM
M  V30 1 C -1.997050 -5.921280 -0.479752 0
M  V30 2 C -0.952687 -5.770655 0.592171 0
M  V30 3 C 0.007910 -4.800418 0.386286 0
M  V30 4 C 0.990976 -4.619392 1.338073 0
M  V30 5 C 2.081290 -3.643683 1.288161 0
M  V30 6 N 3.401619 -3.838800 1.568882 0
M  V30 7 N 4.049549 -2.677308 1.397178 0
M  V30 8 C 3.196308 -1.706074 1.007731 0
M  V30 9 C 3.428712 -0.371687 0.721493 0
M  V30 10 C 2.333177 0.381300 0.344497 0
M  V30 11 N 2.460330 1.767030 0.029183 0
M  V30 12 C 1.329658 2.530620 -0.357251 0
M  V30 13 O 0.213172 1.917651 -0.406956 0
M  V30 14 N 1.349552 3.916538 -0.690294 0
M  V30 15 C 0.086238 4.546375 -1.068672 0
M  V30 16 C -0.931054 4.463929 0.013081 0
M  V30 17 N -1.913290 3.535771 -0.173412 0
M  V30 18 C -2.885394 3.385669 0.755388 0
M  V30 19 C -2.881855 4.181940 1.905217 0
M  V30 20 F -3.850438 4.043033 2.845430 0
M  V30 21 C -1.857828 5.114137 2.048558 0
M  V30 22 C -0.847375 5.291015 1.113155 0
M  V30 23 F 0.134156 6.197216 1.268850 0
M  V30 24 N 1.121470 -0.199523 0.273761 0
M  V30 25 C 0.880092 -1.496801 0.549156 0
M  V30 26 C 1.948371 -2.305079 0.935081 0
M  V30 27 C 0.984214 -5.422686 2.479715 0
M  V30 28 C -0.011008 -6.392438 2.641988 0
M  V30 29 N -0.940302 -6.530777 1.695693 0
M  V30 30 H -2.683544 -5.047583 -0.370354 0
M  V30 31 H -1.558052 -5.979957 -1.492100 0
M  V30 32 H -2.588203 -6.823456 -0.201747 0
M  V30 33 H 0.082003 -4.136642 -0.473154 0
M  V30 34 H 5.094026 -2.624628 1.568414 0
M  V30 35 H 4.414271 0.061320 0.788453 0
M  V30 36 H 3.379144 2.249007 0.075169 0
M  V30 37 H 2.318087 4.347321 -0.621355 0
M  V30 38 H -0.231290 4.062993 -1.992053 0
M  V30 39 H 0.272742 5.612264 -1.319740 0
M  V30 40 H -3.676064 2.665896 0.644702 0
M  V30 41 H -1.881906 5.716402 2.950340 0
M  V30 42 H -0.117044 -1.927400 0.479431 0
M  V30 43 H 1.697001 -5.384468 3.303561 0
M  V30 44 H -0.051797 -7.037509 3.515626 0
M  V30 END ATOM
M  V30 BEGIN BOND
M  V30 1 1 1 2
M  V30 2 2 2 3
M  V30 3 1 3 4
M  V30 4 1 4 5
M  V30 5 2 5 6
M  V30 6 1 6 7
M  V30 7 1 7 8
M  V30 8 2 8 9
M  V30 9 1 9 10
M  V30 10 1 10 11
M  V30 11 1 11 12
M  V30 12 2 12 13
M  V30 13 1 12 14
M  V30 14 1 14 15
M  V30 15 1 15 16
M  V30 16 2 16 17
M  V30 17 1 17 18
M  V30 18 2 18 19
M  V30 19 1 19 20
M  V30 20 1 19 21
M  V30 21 2 21 22
M  V30 22 1 22 23
M  V30 23 2 10 24
M  V30 24 1 24 25
M  V30 25 2 25 26
M  V30 26 2 4 27
M  V30 27 1 27 28
M  V30 28 2 28 29
M  V30 29 1 29 2
M  V30 30 1 26 5
M  V30 31 1 26 8
M  V30 32 1 22 16
M  V30 33 1 1 30
M  V30 34 1 1 31
M  V30 35 1 1 32
M  V30 36 1 3 33
M  V30 37 1 7 34
M  V30 38 1 9 35
M  V30 39 1 11 36
M  V30 40 1 14 37
M  V30 41 1 15 38
M  V30 42 1 15 39
M  V30 43 1 18 40
M  V30 44 1 21 41
M  V30 45 1 25 42
M  V30 46 1 27 43
M  V30 47 1 28 44
M  V30 END BOND
M  V30 END CTAB
M  END
>  <Dataset>  (68) 
ChEMBL_Kinases

>  <Ligand_Instance>  (68) 
nan

>  <PDB_ID>  (68) 
nan

>  <Standardized_SMILES>  (68) 
Cc1cc(-c2n[nH]c3cc(NC(=O)NCc4ncc(F)cc4F)ncc23)ccn1

>  <Name>  (68) 
nan

>  <Pocket>  (68) 
nan

>  <ATP_Site>  (68) 
nan

>  <Peripheral>  (68) 
nan

>  <Num_H_Atoms_ProtBoundConf>  (68) 
nan

>  <Num_Resolved_Atoms>  (68) 
nan

>  <Num_Not_Resolved_Atoms>  (68) 
nan

$$$$
CHEMBL3658814
     RDKit          3D

  0  0  0  0  0  0  0  0  0  0999 V3000
M  V30 BEGIN CTAB
M  V30 COUNTS 48 50 0 0 0
M  V30 BEGIN ATOM
M  V30 1 C 0.379868 -6.591619 -0.879747 0
M  V30 2 C -0.979951 -5.994219 -0.709266 0
M  V30 3 C -1.176571 -4.668997 -1.072694 0
M  V30 4 C -2.416031 -4.078592 -0.931761 0
M  V30 5 C -2.705730 -2.690497 -1.290353 0
M  V30 6 N -3.798650 -2.277768 -1.983071 0
M  V30 7 N -3.767685 -0.963260 -2.144905 0
M  V30 8 C -2.644498 -0.470427 -1.558465 0
M  V30 9 C -2.063169 0.787736 -1.392109 0
M  V30 10 C -0.869432 0.920142 -0.715205 0
M  V30 11 N -0.310868 2.219138 -0.567535 0
M  V30 12 C 0.911822 2.381064 0.122640 0
M  V30 13 O 1.447794 1.362611 0.574081 0
M  V30 14 N 1.527829 3.617863 0.312490 0
M  V30 15 C 2.744567 4.019946 0.979100 0
M  V30 16 C 2.637951 3.665049 2.442811 0
M  V30 17 O 2.465277 2.333059 2.703300 0
M  V30 18 C 2.377040 2.092137 4.060664 0
M  V30 19 C 3.524045 1.147744 4.401320 0
M  V30 20 C 1.045362 1.484919 4.400811 0
M  V30 21 N -0.243800 -0.154925 -0.203886 0
M  V30 22 C -0.778331 -1.404619 -0.344147 0
M  V30 23 C -1.961994 -1.562629 -1.011693 0
M  V30 24 C -3.420336 -4.875331 -0.418126 0
M  V30 25 C -3.250885 -6.202896 -0.046816 0
M  V30 26 N -2.012100 -6.699869 -0.216848 0
M  V30 27 H 0.531890 -6.744457 -1.978742 0
M  V30 28 H 0.435559 -7.556228 -0.334060 0
M  V30 29 H 1.135481 -5.920789 -0.471749 0
M  V30 30 H -0.357181 -4.067924 -1.476439 0
M  V30 31 H -4.406440 -0.288266 -2.609096 0
M  V30 32 H -2.602273 1.615944 -1.819276 0
M  V30 33 H -0.773822 3.054121 -0.951375 0
M  V30 34 H 0.989756 4.418967 -0.121545 0
M  V30 35 H 2.984425 5.070623 0.828194 0
M  V30 36 H 3.577927 3.445018 0.501430 0
M  V30 37 H 3.535546 4.062501 2.986846 0
M  V30 38 H 1.779228 4.211085 2.921311 0
M  V30 39 H 2.467989 3.036265 4.599101 0
M  V30 40 H 4.438437 1.409955 3.840669 0
M  V30 41 H 3.266635 0.112725 4.075184 0
M  V30 42 H 3.717653 1.138271 5.481560 0
M  V30 43 H 0.239226 1.838648 3.705074 0
M  V30 44 H 1.121492 0.392874 4.231604 0
M  V30 45 H 0.705969 1.739709 5.420354 0
M  V30 46 H -0.242042 -2.242524 0.082777 0
M  V30 47 H -4.421121 -4.477909 -0.279494 0
M  V30 48 H -4.041833 -6.811581 0.351811 0
M  V30 END ATOM
M  V30 BEGIN BOND
M  V30 1 1 1 2
M  V30 2 2 2 3
M  V30 3 1 3 4
M  V30 4 1 4 5
M  V30 5 2 5 6
M  V30 6 1 6 7
M  V30 7 1 7 8
M  V30 8 2 8 9
M  V30 9 1 9 10
M  V30 10 1 10 11
M  V30 11 1 11 12
M  V30 12 2 12 13
M  V30 13 1 12 14
M  V30 14 1 14 15
M  V30 15 1 15 16
M  V30 16 1 16 17
M  V30 17 1 17 18
M  V30 18 1 18 19
M  V30 19 1 18 20
M  V30 20 2 10 21
M  V30 21 1 21 22
M  V30 22 2 22 23
M  V30 23 2 4 24
M  V30 24 1 24 25
M  V30 25 2 25 26
M  V30 26 1 26 2
M  V30 27 1 23 5
M  V30 28 1 23 8
M  V30 29 1 1 27
M  V30 30 1 1 28
M  V30 31 1 1 29
M  V30 32 1 3 30
M  V30 33 1 7 31
M  V30 34 1 9 32
M  V30 35 1 11 33
M  V30 36 1 14 34
M  V30 37 1 15 35
M  V30 38 1 15 36
M  V30 39 1 16 37
M  V30 40 1 16 38
M  V30 41 1 18 39
M  V30 42 1 19 40
M  V30 43 1 19 41
M  V30 44 1 19 42
M  V30 45 1 20 43
M  V30 46 1 20 44
M  V30 47 1 20 45
M  V30 48 1 22 46
M  V30 49 1 24 47
M  V30 50 1 25 48
M  V30 END BOND
M  V30 END CTAB
M  END
>  <Dataset>  (69) 
ChEMBL_Kinases

>  <Ligand_Instance>  (69) 
nan

>  <PDB_ID>  (69) 
nan

>  <Standardized_SMILES>  (69) 
Cc1cc(-c2n[nH]c3cc(NC(=O)NCCOC(C)C)ncc23)ccn1

>  <Name>  (69) 
nan

>  <Pocket>  (69) 
nan

>  <ATP_Site>  (69) 
nan

>  <Peripheral>  (69) 
nan

>  <Num_H_Atoms_ProtBoundConf>  (69) 
nan

>  <Num_Resolved_Atoms>  (69) 
nan

>  <Num_Not_Resolved_Atoms>  (69) 
nan

$$$$
CHEMBL3658815
     RDKit          3D

  0  0  0  0  0  0  0  0  0  0999 V3000
M  V30 BEGIN CTAB
M  V30 COUNTS 47 49 0 0 0
M  V30 BEGIN ATOM
M  V30 1 C -1.278856 -8.502333 -0.515087 0
M  V30 2 C -1.738180 -7.144283 -0.868833 0
M  V30 3 C -0.862818 -6.091418 -1.008277 0
M  V30 4 C -1.277192 -4.799616 -1.342294 0
M  V30 5 C -0.351511 -3.681669 -1.490768 0
M  V30 6 N 0.811270 -3.761058 -2.161315 0
M  V30 7 N 1.456286 -2.586690 -2.135778 0
M  V30 8 C 0.667702 -1.756512 -1.427744 0
M  V30 9 C 0.848930 -0.427554 -1.094654 0
M  V30 10 C -0.140194 0.190057 -0.344793 0
M  V30 11 N -0.114258 1.561157 0.088126 0
M  V30 12 C 0.512283 1.754516 1.374783 0
M  V30 13 O 0.990397 0.793066 2.047709 0
M  V30 14 N 0.558096 3.098088 1.839191 0
M  V30 15 C 1.170948 3.396410 3.128163 0 CFG=2
M  V30 16 C 0.152855 3.884201 4.071418 0
M  V30 17 O -0.982635 3.919789 3.528574 0
M  V30 18 O -0.657005 4.360611 5.098996 0
M  V30 19 C 2.375131 4.265820 3.020590 0
M  V30 20 C 2.901698 4.490214 4.425957 0
M  V30 21 C 2.104123 5.606870 2.396160 0
M  V30 22 N -1.245463 -0.475647 0.050785 0
M  V30 23 C -1.462559 -1.777508 -0.253580 0
M  V30 24 C -0.479602 -2.396515 -1.000477 0
M  V30 25 C -2.609022 -4.611407 -1.530139 0
M  V30 26 C -3.487130 -5.680383 -1.387396 0
M  V30 27 N -3.056202 -6.915004 -1.064345 0
M  V30 28 H -0.702647 -8.968570 -1.357285 0
M  V30 29 H -2.147206 -9.144880 -0.282053 0
M  V30 30 H -0.661650 -8.438125 0.401649 0
M  V30 31 H 0.193820 -6.244445 -0.858420 0
M  V30 32 H 2.376883 -2.350408 -2.569070 0
M  V30 33 H 1.701064 0.178775 -1.369258 0
M  V30 34 H -0.504215 2.390652 -0.448106 0
M  V30 35 H 0.165306 3.905876 1.291341 0
M  V30 36 H 1.523142 2.419240 3.548663 0
M  V30 37 H -0.663059 3.948031 6.022954 0
M  V30 38 H 3.138166 3.746235 2.431069 0
M  V30 39 H 2.077603 4.391649 5.181056 0
M  V30 40 H 3.709145 3.734740 4.645121 0
M  V30 41 H 3.337252 5.513334 4.476213 0
M  V30 42 H 2.824567 6.325371 2.840192 0
M  V30 43 H 1.083208 5.971765 2.660190 0
M  V30 44 H 2.295395 5.539913 1.323189 0
M  V30 45 H -2.343329 -2.325192 0.056042 0
M  V30 46 H -3.063882 -3.684047 -1.787151 0
M  V30 47 H -4.556565 -5.567387 -1.529711 0
M  V30 END ATOM
M  V30 BEGIN BOND
M  V30 1 1 1 2
M  V30 2 2 2 3
M  V30 3 1 3 4
M  V30 4 1 4 5
M  V30 5 2 5 6
M  V30 6 1 6 7
M  V30 7 1 7 8
M  V30 8 2 8 9
M  V30 9 1 9 10
M  V30 10 1 10 11
M  V30 11 1 11 12
M  V30 12 2 12 13
M  V30 13 1 12 14
M  V30 14 1 14 15
M  V30 15 1 15 16
M  V30 16 2 16 17
M  V30 17 1 16 18
M  V30 18 1 15 19
M  V30 19 1 19 20
M  V30 20 1 19 21
M  V30 21 2 10 22
M  V30 22 1 22 23
M  V30 23 2 23 24
M  V30 24 2 4 25
M  V30 25 1 25 26
M  V30 26 2 26 27
M  V30 27 1 27 2
M  V30 28 1 24 5
M  V30 29 1 24 8
M  V30 30 1 1 28
M  V30 31 1 1 29
M  V30 32 1 1 30
M  V30 33 1 3 31
M  V30 34 1 7 32
M  V30 35 1 9 33
M  V30 36 1 11 34
M  V30 37 1 14 35
M  V30 38 1 15 36 CFG=1
M  V30 39 1 18 37
M  V30 40 1 19 38
M  V30 41 1 20 39
M  V30 42 1 20 40
M  V30 43 1 20 41
M  V30 44 1 21 42
M  V30 45 1 21 43
M  V30 46 1 21 44
M  V30 47 1 23 45
M  V30 48 1 25 46
M  V30 49 1 26 47
M  V30 END BOND
M  V30 END CTAB
M  END
>  <Dataset>  (70) 
ChEMBL_Kinases

>  <Ligand_Instance>  (70) 
nan

>  <PDB_ID>  (70) 
nan

>  <Standardized_SMILES>  (70) 
Cc1cc(-c2n[nH]c3cc(NC(=O)N[C@H](C(=O)O)C(C)C)ncc23)ccn1

>  <Name>  (70) 
nan

>  <Pocket>  (70) 
nan

>  <ATP_Site>  (70) 
nan

>  <Peripheral>  (70) 
nan

>  <Num_H_Atoms_ProtBoundConf>  (70) 
nan

>  <Num_Resolved_Atoms>  (70) 
nan

>  <Num_Not_Resolved_Atoms>  (70) 
nan

$$$$
CHEMBL3658807
     RDKit          3D

  0  0  0  0  0  0  0  0  0  0999 V3000
M  V30 BEGIN CTAB
M  V30 COUNTS 48 51 0 0 0
M  V30 BEGIN ATOM
M  V30 1 C -3.327119 -5.547819 0.721512 0
M  V30 2 C -1.987730 -5.967174 0.186408 0
M  V30 3 C -0.870319 -5.174922 0.315028 0
M  V30 4 C 0.390238 -5.484317 -0.146359 0
M  V30 5 C 1.491364 -4.549717 0.048976 0
M  V30 6 N 2.760804 -4.788728 0.491726 0
M  V30 7 N 3.443166 -3.653851 0.517525 0
M  V30 8 C 2.622210 -2.676890 0.093024 0
M  V30 9 C 2.919194 -1.354752 -0.036667 0
M  V30 10 C 1.940868 -0.496741 -0.493698 0
M  V30 11 N 1.938297 0.916821 -0.731887 0
M  V30 12 C 1.544308 1.733305 0.348899 0
M  V30 13 O 1.224952 1.218001 1.440093 0
M  V30 14 N 1.469310 3.129582 0.323753 0
M  V30 15 C 1.138257 4.259478 1.129003 0
M  V30 16 C -0.234681 4.369273 1.606537 0
M  V30 17 C -0.952725 3.844233 2.638706 0
M  V30 18 C -0.213141 2.983964 3.586976 0
M  V30 19 C -2.289624 4.085274 2.857002 0
M  V30 20 C -3.015859 4.903378 2.017535 0
M  V30 21 C -2.335534 5.460437 0.958322 0
M  V30 22 C -0.998655 5.198720 0.767923 0
M  V30 23 Cl -0.355648 6.032677 -0.660319 0
M  V30 24 N 0.704868 -0.990172 -0.803466 0
M  V30 25 C 0.420005 -2.311052 -0.669931 0
M  V30 26 C 1.382943 -3.199731 -0.212399 0
M  V30 27 C 0.488095 -6.703057 -0.783500 0
M  V30 28 C -0.642017 -7.487097 -0.905420 0
M  V30 29 N -1.863413 -7.163098 -0.446608 0
M  V30 30 H -3.252083 -4.431866 0.820950 0
M  V30 31 H -4.153585 -5.821548 0.040213 0
M  V30 32 H -3.529056 -5.936788 1.722706 0
M  V30 33 H -1.059156 -4.245362 0.833788 0
M  V30 34 H 4.438995 -3.576277 0.818501 0
M  V30 35 H 3.827279 -0.817094 0.162571 0
M  V30 36 H 2.205354 1.363393 -1.645479 0
M  V30 37 H 1.760652 3.476775 -0.647195 0
M  V30 38 H 1.508315 5.210324 0.723043 0
M  V30 39 H 1.778400 4.134508 2.075307 0
M  V30 40 H 0.865706 3.084233 3.514681 0
M  V30 41 H -0.510996 3.316585 4.618633 0
M  V30 42 H -0.516897 1.916791 3.480108 0
M  V30 43 H -2.751542 3.609799 3.711511 0
M  V30 44 H -4.055712 5.035036 2.266030 0
M  V30 45 H -2.950138 6.091649 0.334496 0
M  V30 46 H -0.555656 -2.714771 -0.914671 0
M  V30 47 H 1.453982 -6.997374 -1.164892 0
M  V30 48 H -0.552252 -8.451249 -1.414270 0
M  V30 END ATOM
M  V30 BEGIN BOND
M  V30 1 1 1 2
M  V30 2 2 2 3
M  V30 3 1 3 4
M  V30 4 1 4 5
M  V30 5 2 5 6
M  V30 6 1 6 7
M  V30 7 1 7 8
M  V30 8 2 8 9
M  V30 9 1 9 10
M  V30 10 1 10 11
M  V30 11 1 11 12
M  V30 12 2 12 13
M  V30 13 1 12 14
M  V30 14 1 14 15
M  V30 15 1 15 16
M  V30 16 2 16 17
M  V30 17 1 17 18
M  V30 18 1 17 19
M  V30 19 2 19 20
M  V30 20 1 20 21
M  V30 21 2 21 22
M  V30 22 1 22 23
M  V30 23 2 10 24
M  V30 24 1 24 25
M  V30 25 2 25 26
M  V30 26 2 4 27
M  V30 27 1 27 28
M  V30 28 2 28 29
M  V30 29 1 29 2
M  V30 30 1 26 5
M  V30 31 1 26 8
M  V30 32 1 22 16
M  V30 33 1 1 30
M  V30 34 1 1 31
M  V30 35 1 1 32
M  V30 36 1 3 33
M  V30 37 1 7 34
M  V30 38 1 9 35
M  V30 39 1 11 36
M  V30 40 1 14 37
M  V30 41 1 15 38
M  V30 42 1 15 39
M  V30 43 1 18 40
M  V30 44 1 18 41
M  V30 45 1 18 42
M  V30 46 1 19 43
M  V30 47 1 20 44
M  V30 48 1 21 45
M  V30 49 1 25 46
M  V30 50 1 27 47
M  V30 51 1 28 48
M  V30 END BOND
M  V30 END CTAB
M  END
>  <Dataset>  (71) 
ChEMBL_Kinases

>  <Ligand_Instance>  (71) 
nan

>  <PDB_ID>  (71) 
nan

>  <Standardized_SMILES>  (71) 
Cc1cc(-c2n[nH]c3cc(NC(=O)NCc4c(C)cccc4Cl)ncc23)ccn1

>  <Name>  (71) 
nan

>  <Pocket>  (71) 
nan

>  <ATP_Site>  (71) 
nan

>  <Peripheral>  (71) 
nan

>  <Num_H_Atoms_ProtBoundConf>  (71) 
nan

>  <Num_Resolved_Atoms>  (71) 
nan

>  <Num_Not_Resolved_Atoms>  (71) 
nan

$$$$
CHEMBL3659976
     RDKit          3D

  0  0  0  0  0  0  0  0  0  0999 V3000
M  V30 BEGIN CTAB
M  V30 COUNTS 39 43 0 0 0
M  V30 BEGIN ATOM
M  V30 1 O 0.556418 -2.906889 3.855192 0
M  V30 2 C -0.036057 -3.584559 2.974549 0
M  V30 3 N 0.243441 -3.516815 1.583566 0
M  V30 4 C 1.267019 -2.626607 1.097565 0
M  V30 5 C 2.526046 -3.182095 1.030828 0
M  V30 6 C 3.538550 -2.372688 0.572991 0
M  V30 7 C 3.285035 -1.067529 0.202472 0
M  V30 8 N 4.048985 -0.066685 -0.268502 0
M  V30 9 N 3.328280 1.005819 -0.473075 0
M  V30 10 C 2.017441 0.798519 -0.150804 0
M  V30 11 C 0.965468 1.786883 -0.263727 0
M  V30 12 N 1.210394 3.033558 -0.712619 0
M  V30 13 C 0.110656 3.795044 -0.743230 0
M  V30 14 C -0.098653 5.105612 -1.124123 0
M  V30 15 C -1.391812 5.611663 -1.034835 0
M  V30 16 C -2.407585 4.797144 -0.574708 0
M  V30 17 C -2.209883 3.480664 -0.189650 0
M  V30 18 C -0.914874 3.021173 -0.294279 0
M  V30 19 N -0.344861 1.837037 -0.024396 0
M  V30 20 C 2.025326 -0.508851 0.268316 0
M  V30 21 C 1.041912 -1.325834 0.722920 0
M  V30 22 C -1.089591 -4.504496 3.450975 0
M  V30 23 C -2.301917 -4.608124 2.571662 0
M  V30 24 C -1.410806 -5.770318 2.721279 0
M  V30 25 F -1.925619 -6.830801 3.460744 0
M  V30 26 F -0.569830 -6.152329 1.697916 0
M  V30 27 H -0.224319 -4.056160 0.847679 0
M  V30 28 H 2.746040 -4.205827 1.317325 0
M  V30 29 H 4.570910 -2.715740 0.482093 0
M  V30 30 H 5.070966 -0.078650 -0.463903 0
M  V30 31 H 0.727898 5.700147 -1.476573 0
M  V30 32 H -1.562622 6.639019 -1.332109 0
M  V30 33 H -3.425981 5.182516 -0.500157 0
M  V30 34 H -2.973336 2.818788 0.172167 0
M  V30 35 H -0.896500 1.039633 0.339733 0
M  V30 36 H 0.036500 -0.969490 0.804289 0
M  V30 37 H -1.304762 -4.542908 4.547788 0
M  V30 38 H -3.314702 -4.648849 3.057400 0
M  V30 39 H -2.326609 -4.051777 1.593353 0
M  V30 END ATOM
M  V30 BEGIN BOND
M  V30 1 2 1 2
M  V30 2 1 2 3
M  V30 3 1 3 4
M  V30 4 2 4 5
M  V30 5 1 5 6
M  V30 6 2 6 7
M  V30 7 1 7 8
M  V30 8 1 8 9
M  V30 9 2 9 10
M  V30 10 1 10 11
M  V30 11 2 11 12
M  V30 12 1 12 13
M  V30 13 2 13 14
M  V30 14 1 14 15
M  V30 15 2 15 16
M  V30 16 1 16 17
M  V30 17 2 17 18
M  V30 18 1 18 19
M  V30 19 1 10 20
M  V30 20 2 20 21
M  V30 21 1 2 22
M  V30 22 1 22 23
M  V30 23 1 23 24
M  V30 24 1 24 25
M  V30 25 1 24 26
M  V30 26 1 21 4
M  V30 27 1 24 22
M  V30 28 1 20 7
M  V30 29 1 19 11
M  V30 30 1 18 13
M  V30 31 1 3 27
M  V30 32 1 5 28
M  V30 33 1 6 29
M  V30 34 1 8 30
M  V30 35 1 14 31
M  V30 36 1 15 32
M  V30 37 1 16 33
M  V30 38 1 17 34
M  V30 39 1 19 35
M  V30 40 1 21 36
M  V30 41 1 22 37
M  V30 42 1 23 38
M  V30 43 1 23 39
M  V30 END BOND
M  V30 END CTAB
M  END
>  <Dataset>  (72) 
ChEMBL_Kinases

>  <Ligand_Instance>  (72) 
nan

>  <PDB_ID>  (72) 
nan

>  <Standardized_SMILES>  (72) 
O=C(Nc1ccc2[nH]nc(-c3nc4ccccc4[nH]3)c2c1)C1CC1(F)F

>  <Name>  (72) 
nan

>  <Pocket>  (72) 
nan

>  <ATP_Site>  (72) 
nan

>  <Peripheral>  (72) 
nan

>  <Num_H_Atoms_ProtBoundConf>  (72) 
nan

>  <Num_Resolved_Atoms>  (72) 
nan

>  <Num_Not_Resolved_Atoms>  (72) 
nan

$$$$
CHEMBL3659975
     RDKit          3D

  0  0  0  0  0  0  0  0  0  0999 V3000
M  V30 BEGIN CTAB
M  V30 COUNTS 39 43 0 0 0
M  V30 BEGIN ATOM
M  V30 1 O 2.752404 -2.126957 2.816712 0
M  V30 2 C 1.736823 -2.683485 3.350913 0
M  V30 3 N 0.635006 -3.107797 2.574156 0
M  V30 4 C 0.691688 -2.892745 1.153946 0
M  V30 5 C 1.253371 -3.935993 0.446910 0
M  V30 6 C 1.334740 -3.786296 -0.922070 0
M  V30 7 C 0.871215 -2.641351 -1.534283 0
M  V30 8 N 0.811018 -2.209491 -2.806026 0
M  V30 9 N 0.266193 -1.015707 -2.885781 0
M  V30 10 C -0.079049 -0.561169 -1.665112 0
M  V30 11 C -0.703744 0.719397 -1.385420 0
M  V30 12 N -0.994713 1.581391 -2.373240 0
M  V30 13 C -1.563039 2.694761 -1.901324 0
M  V30 14 C -2.030833 3.852531 -2.529211 0
M  V30 15 C -2.567256 4.812610 -1.701554 0
M  V30 16 C -2.677876 4.724402 -0.325768 0
M  V30 17 C -2.200467 3.559148 0.246330 0
M  V30 18 C -1.652823 2.563513 -0.533492 0
M  V30 19 N -1.120242 1.357119 -0.289119 0
M  V30 20 C 0.308346 -1.592414 -0.840386 0
M  V30 21 C 0.234714 -1.757265 0.522131 0
M  V30 22 C 1.857558 -2.818064 4.804511 0
M  V30 23 C 3.165415 -2.919230 5.481688 0
M  V30 24 C 2.430830 -1.611175 5.580956 0
M  V30 25 H -0.170718 -3.557929 3.062588 0
M  V30 26 H 1.623448 -4.839931 0.892898 0
M  V30 27 H 1.749753 -4.520726 -1.597807 0
M  V30 28 H 1.142193 -2.719963 -3.663533 0
M  V30 29 H -1.963335 3.959143 -3.591027 0
M  V30 30 H -2.929942 5.709299 -2.184328 0
M  V30 31 H -3.112334 5.521248 0.263515 0
M  V30 32 H -2.247125 3.405790 1.315568 0
M  V30 33 H -1.064775 1.011093 0.664359 0
M  V30 34 H -0.180115 -1.009701 1.140723 0
M  V30 35 H 0.977184 -3.303931 5.292762 0
M  V30 36 H 3.183952 -3.507240 6.424184 0
M  V30 37 H 4.119156 -2.904398 4.931794 0
M  V30 38 H 1.904768 -1.344383 6.514941 0
M  V30 39 H 2.795572 -0.744909 4.994009 0
M  V30 END ATOM
M  V30 BEGIN BOND
M  V30 1 2 1 2
M  V30 2 1 2 3
M  V30 3 1 3 4
M  V30 4 2 4 5
M  V30 5 1 5 6
M  V30 6 2 6 7
M  V30 7 1 7 8
M  V30 8 1 8 9
M  V30 9 2 9 10
M  V30 10 1 10 11
M  V30 11 2 11 12
M  V30 12 1 12 13
M  V30 13 2 13 14
M  V30 14 1 14 15
M  V30 15 2 15 16
M  V30 16 1 16 17
M  V30 17 2 17 18
M  V30 18 1 18 19
M  V30 19 1 10 20
M  V30 20 2 20 21
M  V30 21 1 2 22
M  V30 22 1 22 23
M  V30 23 1 23 24
M  V30 24 1 21 4
M  V30 25 1 24 22
M  V30 26 1 20 7
M  V30 27 1 19 11
M  V30 28 1 18 13
M  V30 29 1 3 25
M  V30 30 1 5 26
M  V30 31 1 6 27
M  V30 32 1 8 28
M  V30 33 1 14 29
M  V30 34 1 15 30
M  V30 35 1 16 31
M  V30 36 1 17 32
M  V30 37 1 19 33
M  V30 38 1 21 34
M  V30 39 1 22 35
M  V30 40 1 23 36
M  V30 41 1 23 37
M  V30 42 1 24 38
M  V30 43 1 24 39
M  V30 END BOND
M  V30 END CTAB
M  END
>  <Dataset>  (73) 
ChEMBL_Kinases

>  <Ligand_Instance>  (73) 
nan

>  <PDB_ID>  (73) 
nan

>  <Standardized_SMILES>  (73) 
O=C(Nc1ccc2[nH]nc(-c3nc4ccccc4[nH]3)c2c1)C1CC1

>  <Name>  (73) 
nan

>  <Pocket>  (73) 
nan

>  <ATP_Site>  (73) 
nan

>  <Peripheral>  (73) 
nan

>  <Num_H_Atoms_ProtBoundConf>  (73) 
nan

>  <Num_Resolved_Atoms>  (73) 
nan

>  <Num_Not_Resolved_Atoms>  (73) 
nan

$$$$
CHEMBL3659974
     RDKit          3D

  0  0  0  0  0  0  0  0  0  0999 V3000
M  V30 BEGIN CTAB
M  V30 COUNTS 48 52 0 0 0
M  V30 BEGIN ATOM
M  V30 1 O -1.629388 -1.945696 0.070691 0
M  V30 2 C -0.839343 -2.676675 0.739261 0
M  V30 3 N 0.549485 -2.492709 0.516764 0
M  V30 4 C 0.841050 -1.486694 -0.450471 0
M  V30 5 C 0.942929 -1.870998 -1.770725 0
M  V30 6 C 1.225687 -0.878326 -2.686133 0
M  V30 7 C 1.393540 0.426984 -2.273751 0
M  V30 8 N 1.668133 1.575531 -2.916508 0
M  V30 9 N 1.728872 2.575465 -2.063075 0
M  V30 10 C 1.497866 2.159876 -0.787335 0
M  V30 11 C 1.495021 3.018221 0.380744 0
M  V30 12 N 1.729951 4.341796 0.285480 0
M  V30 13 C 1.682708 4.950270 1.471743 0
M  V30 14 C 1.858340 6.268882 1.839629 0
M  V30 15 C 1.743202 6.589033 3.179068 0
M  V30 16 C 1.457663 5.602077 4.124508 0
M  V30 17 C 1.282800 4.277551 3.742633 0
M  V30 18 C 1.401360 3.977331 2.402690 0
M  V30 19 N 1.300899 2.846226 1.689350 0
M  V30 20 C 1.291590 0.811298 -0.952933 0
M  V30 21 C 1.012405 -0.178060 -0.061406 0
M  V30 22 C -1.260272 -3.711995 1.738800 0
M  V30 23 C -0.762429 -5.080706 1.332996 0
M  V30 24 C -1.345470 -5.427165 -0.003501 0
M  V30 25 C -2.828021 -5.644116 0.161056 0
M  V30 26 F -3.485333 -5.004911 -0.882897 0
M  V30 27 F -3.120587 -6.986646 0.035118 0
M  V30 28 C -3.322877 -5.141379 1.483492 0
M  V30 29 C -2.751592 -3.796639 1.848729 0
M  V30 30 H 1.245803 -3.084088 1.055703 0
M  V30 31 H 0.819590 -2.881306 -2.142039 0
M  V30 32 H 1.323926 -1.081323 -3.735542 0
M  V30 33 H 1.821876 1.723068 -3.937860 0
M  V30 34 H 2.077139 7.011485 1.096913 0
M  V30 35 H 1.869542 7.605618 3.534474 0
M  V30 36 H 1.354063 5.785819 5.190532 0
M  V30 37 H 1.061984 3.477077 4.424128 0
M  V30 38 H 1.094593 1.960190 2.141676 0
M  V30 39 H 0.917613 0.030496 0.968057 0
M  V30 40 H -0.846441 -3.463163 2.730345 0
M  V30 41 H -1.176285 -5.793680 2.076567 0
M  V30 42 H 0.334750 -5.196554 1.400898 0
M  V30 43 H -1.133810 -4.580243 -0.712546 0
M  V30 44 H -0.828598 -6.322686 -0.417814 0
M  V30 45 H -4.427715 -4.973382 1.364620 0
M  V30 46 H -3.208231 -5.904432 2.258980 0
M  V30 47 H -3.131603 -3.530588 2.850114 0
M  V30 48 H -3.182361 -3.047347 1.153502 0
M  V30 END ATOM
M  V30 BEGIN BOND
M  V30 1 2 1 2
M  V30 2 1 2 3
M  V30 3 1 3 4
M  V30 4 2 4 5
M  V30 5 1 5 6
M  V30 6 2 6 7
M  V30 7 1 7 8
M  V30 8 1 8 9
M  V30 9 2 9 10
M  V30 10 1 10 11
M  V30 11 2 11 12
M  V30 12 1 12 13
M  V30 13 2 13 14
M  V30 14 1 14 15
M  V30 15 2 15 16
M  V30 16 1 16 17
M  V30 17 2 17 18
M  V30 18 1 18 19
M  V30 19 1 10 20
M  V30 20 2 20 21
M  V30 21 1 2 22
M  V30 22 1 22 23
M  V30 23 1 23 24
M  V30 24 1 24 25
M  V30 25 1 25 26
M  V30 26 1 25 27
M  V30 27 1 25 28
M  V30 28 1 28 29
M  V30 29 1 21 4
M  V30 30 1 29 22
M  V30 31 1 20 7
M  V30 32 1 19 11
M  V30 33 1 18 13
M  V30 34 1 3 30
M  V30 35 1 5 31
M  V30 36 1 6 32
M  V30 37 1 8 33
M  V30 38 1 14 34
M  V30 39 1 15 35
M  V30 40 1 16 36
M  V30 41 1 17 37
M  V30 42 1 19 38
M  V30 43 1 21 39
M  V30 44 1 22 40
M  V30 45 1 23 41
M  V30 46 1 23 42
M  V30 47 1 24 43
M  V30 48 1 24 44
M  V30 49 1 28 45
M  V30 50 1 28 46
M  V30 51 1 29 47
M  V30 52 1 29 48
M  V30 END BOND
M  V30 END CTAB
M  END
>  <Dataset>  (74) 
ChEMBL_Kinases

>  <Ligand_Instance>  (74) 
nan

>  <PDB_ID>  (74) 
nan

>  <Standardized_SMILES>  (74) 
O=C(Nc1ccc2[nH]nc(-c3nc4ccccc4[nH]3)c2c1)C1CCC(F)(F)CC1

>  <Name>  (74) 
nan

>  <Pocket>  (74) 
nan

>  <ATP_Site>  (74) 
nan

>  <Peripheral>  (74) 
nan

>  <Num_H_Atoms_ProtBoundConf>  (74) 
nan

>  <Num_Resolved_Atoms>  (74) 
nan

>  <Num_Not_Resolved_Atoms>  (74) 
nan

$$$$
CHEMBL3659973
     RDKit          3D

  0  0  0  0  0  0  0  0  0  0999 V3000
M  V30 BEGIN CTAB
M  V30 COUNTS 57 62 0 0 0
M  V30 BEGIN ATOM
M  V30 1 C 4.428445 -3.543026 2.049051 0
M  V30 2 C 5.171808 -4.110832 0.858571 0
M  V30 3 C 6.193172 -3.169083 0.312793 0
M  V30 4 C 5.635906 -2.222443 -0.724327 0
M  V30 5 N 4.199568 -2.076314 -0.606417 0
M  V30 6 C 3.469400 -0.934218 -0.183813 0
M  V30 7 C 4.130975 0.206994 0.205112 0
M  V30 8 C 3.456648 1.337401 0.621090 0
M  V30 9 C 2.078728 1.310541 0.643405 0
M  V30 10 N 1.153114 2.199120 0.979831 0
M  V30 11 C -0.112089 1.698161 0.831784 0
M  V30 12 C -1.256358 2.529525 1.153068 0
M  V30 13 N -1.219802 3.819070 1.609176 0
M  V30 14 N -2.430101 4.297019 1.807566 0
M  V30 15 C -3.351261 3.373523 1.502316 0
M  V30 16 C -4.731081 3.374068 1.535663 0
M  V30 17 C -5.422245 2.242247 1.151185 0
M  V30 18 C -4.702865 1.137704 0.742451 0
M  V30 19 N -5.494821 0.012730 0.362708 0
M  V30 20 C -5.991901 -0.278207 -0.931076 0
M  V30 21 O -5.967196 0.215075 -2.084125 0
M  V30 22 C -6.802661 -1.463197 -1.234700 0
M  V30 23 C -6.287862 -2.767439 -0.624778 0
M  V30 24 C -7.617161 -2.180628 -0.250599 0
M  V30 25 F -7.826395 -1.695986 1.029512 0
M  V30 26 F -8.736891 -2.872062 -0.720107 0
M  V30 27 C -3.325044 1.190783 0.728204 0
M  V30 28 C -2.611092 2.286265 1.099257 0
M  V30 29 N 0.102333 0.480903 0.395486 0
M  V30 30 C 1.403011 0.171314 0.255560 0
M  V30 31 C 2.093794 -0.950774 -0.157845 0
M  V30 32 C 3.655379 -3.346387 -1.008705 0
M  V30 33 C 4.130554 -4.487032 -0.170623 0
M  V30 34 H 4.758748 -3.977790 3.014998 0
M  V30 35 H 3.335033 -3.733229 1.999337 0
M  V30 36 H 4.549539 -2.432849 2.083899 0
M  V30 37 H 5.687226 -5.029796 1.203881 0
M  V30 38 H 6.981705 -3.778776 -0.170119 0
M  V30 39 H 6.584799 -2.571769 1.161816 0
M  V30 40 H 6.134536 -1.244116 -0.573549 0
M  V30 41 H 5.937355 -2.561095 -1.740841 0
M  V30 42 H 5.202790 0.330811 0.225313 0
M  V30 43 H 3.940461 2.245143 0.931455 0
M  V30 44 H -2.585759 5.268671 2.155734 0
M  V30 45 H -5.200588 4.296797 1.873983 0
M  V30 46 H -6.496369 2.350610 1.215234 0
M  V30 47 H -5.751348 -0.688743 1.097892 0
M  V30 48 H -7.114171 -1.548601 -2.292319 0
M  V30 49 H -5.432005 -2.727363 0.063344 0
M  V30 50 H -6.259486 -3.660971 -1.290306 0
M  V30 51 H -2.829636 0.304588 0.402378 0
M  V30 52 H -0.623218 -0.186347 0.175762 0
M  V30 53 H 1.498189 -1.788483 -0.440743 0
M  V30 54 H 3.959812 -3.548497 -2.081600 0
M  V30 55 H 2.546605 -3.380415 -1.053389 0
M  V30 56 H 4.570849 -5.281075 -0.806871 0
M  V30 57 H 3.250937 -4.955271 0.359127 0
M  V30 END ATOM
M  V30 BEGIN BOND
M  V30 1 1 1 2
M  V30 2 1 2 3
M  V30 3 1 3 4
M  V30 4 1 4 5
M  V30 5 1 5 6
M  V30 6 2 6 7
M  V30 7 1 7 8
M  V30 8 2 8 9
M  V30 9 1 9 10
M  V30 10 2 10 11
M  V30 11 1 11 12
M  V30 12 2 12 13
M  V30 13 1 13 14
M  V30 14 1 14 15
M  V30 15 2 15 16
M  V30 16 1 16 17
M  V30 17 2 17 18
M  V30 18 1 18 19
M  V30 19 1 19 20
M  V30 20 2 20 21
M  V30 21 1 20 22
M  V30 22 1 22 23
M  V30 23 1 23 24
M  V30 24 1 24 25
M  V30 25 1 24 26
M  V30 26 1 18 27
M  V30 27 2 27 28
M  V30 28 1 11 29
M  V30 29 1 29 30
M  V30 30 2 30 31
M  V30 31 1 5 32
M  V30 32 1 32 33
M  V30 33 1 33 2
M  V30 34 1 31 6
M  V30 35 1 30 9
M  V30 36 1 28 12
M  V30 37 1 28 15
M  V30 38 1 24 22
M  V30 39 1 1 34
M  V30 40 1 1 35
M  V30 41 1 1 36
M  V30 42 1 2 37
M  V30 43 1 3 38
M  V30 44 1 3 39
M  V30 45 1 4 40
M  V30 46 1 4 41
M  V30 47 1 7 42
M  V30 48 1 8 43
M  V30 49 1 14 44
M  V30 50 1 16 45
M  V30 51 1 17 46
M  V30 52 1 19 47
M  V30 53 1 22 48
M  V30 54 1 23 49
M  V30 55 1 23 50
M  V30 56 1 27 51
M  V30 57 1 29 52
M  V30 58 1 31 53
M  V30 59 1 32 54
M  V30 60 1 32 55
M  V30 61 1 33 56
M  V30 62 1 33 57
M  V30 END BOND
M  V30 END CTAB
M  END
>  <Dataset>  (75) 
ChEMBL_Kinases

>  <Ligand_Instance>  (75) 
nan

>  <PDB_ID>  (75) 
nan

>  <Standardized_SMILES>  (75) 
CC1CCN(c2ccc3nc(-c4n[nH]c5ccc(NC(=O)C6CC6(F)F)cc45)[nH]c3c2)CC1

>  <Name>  (75) 
nan

>  <Pocket>  (75) 
nan

>  <ATP_Site>  (75) 
nan

>  <Peripheral>  (75) 
nan

>  <Num_H_Atoms_ProtBoundConf>  (75) 
nan

>  <Num_Resolved_Atoms>  (75) 
nan

>  <Num_Not_Resolved_Atoms>  (75) 
nan

$$$$
CHEMBL3659972
     RDKit          3D

  0  0  0  0  0  0  0  0  0  0999 V3000
M  V30 BEGIN CTAB
M  V30 COUNTS 61 66 0 0 0
M  V30 BEGIN ATOM
M  V30 1 O 0.513064 -3.386171 0.267291 0
M  V30 2 C 1.192460 -4.419593 0.037793 0
M  V30 3 N 2.575766 -4.225947 -0.088819 0
M  V30 4 C 3.382093 -3.066190 -0.007449 0
M  V30 5 C 4.756460 -3.207252 -0.181496 0
M  V30 6 C 5.612845 -2.144646 -0.120009 0
M  V30 7 C 5.133876 -0.877288 0.120495 0
M  V30 8 N 5.672377 0.342926 0.240720 0
M  V30 9 N 4.739281 1.230000 0.475657 0
M  V30 10 C 3.501196 0.663250 0.529966 0
M  V30 11 C 2.261111 1.373018 0.772884 0
M  V30 12 N 2.259523 2.710120 0.970391 0
M  V30 13 C 1.023646 3.173766 1.176497 0
M  V30 14 C 0.553770 4.451401 1.417336 0
M  V30 15 C -0.819016 4.579814 1.589236 0
M  V30 16 C -1.679988 3.505509 1.526699 0
M  V30 17 N -3.071922 3.669802 1.704747 0
M  V30 18 C -3.732825 4.937685 1.940201 0
M  V30 19 C -5.082956 4.877537 1.241355 0
M  V30 20 O -5.929513 3.981961 1.888090 0
M  V30 21 C -5.228794 2.920072 2.452976 0
M  V30 22 C -3.986016 2.559424 1.668563 0
M  V30 23 C -1.194068 2.237765 1.285501 0
M  V30 24 C 0.168096 2.106066 1.114256 0
M  V30 25 N 0.974153 1.062411 0.870423 0
M  V30 26 C 3.784786 -0.662270 0.302601 0
M  V30 27 C 2.983144 -1.773886 0.227793 0
M  V30 28 C 0.521422 -5.721430 -0.079883 0
M  V30 29 C 0.766967 -6.322258 -1.442570 0
M  V30 30 C -0.441262 -7.143642 -1.852324 0
M  V30 31 C -1.697177 -6.342434 -1.981212 0
M  V30 32 F -1.977060 -6.001305 -3.293408 0
M  V30 33 F -2.760988 -7.138306 -1.534231 0
M  V30 34 C -1.632132 -5.154527 -1.079638 0
M  V30 35 C -0.944219 -5.553015 0.209654 0
M  V30 36 H 3.064526 -5.128886 -0.277753 0
M  V30 37 H 5.201371 -4.174486 -0.373832 0
M  V30 38 H 6.673870 -2.287822 -0.259344 0
M  V30 39 H 6.682305 0.584049 0.163782 0
M  V30 40 H 1.246635 5.285888 1.463358 0
M  V30 41 H -1.155916 5.589602 1.776062 0
M  V30 42 H -3.162375 5.744357 1.480808 0
M  V30 43 H -3.918245 5.077829 3.025801 0
M  V30 44 H -4.955913 4.522720 0.201533 0
M  V30 45 H -5.571737 5.875843 1.222964 0
M  V30 46 H -5.936784 2.065752 2.508837 0
M  V30 47 H -4.900072 3.136406 3.485774 0
M  V30 48 H -4.209571 2.247577 0.621709 0
M  V30 49 H -3.559138 1.666022 2.204812 0
M  V30 50 H -1.804916 1.347671 1.222002 0
M  V30 51 H 0.597061 0.117780 0.773159 0
M  V30 52 H 1.928090 -1.641260 0.364932 0
M  V30 53 H 0.958266 -6.376340 0.697587 0
M  V30 54 H 1.620345 -7.009711 -1.359349 0
M  V30 55 H 0.987668 -5.582358 -2.211420 0
M  V30 56 H -0.237035 -7.623484 -2.843342 0
M  V30 57 H -0.529396 -7.968546 -1.094581 0
M  V30 58 H -1.081662 -4.303201 -1.512292 0
M  V30 59 H -2.623635 -4.758029 -0.779638 0
M  V30 60 H -1.132202 -4.809460 1.012431 0
M  V30 61 H -1.407456 -6.500897 0.551344 0
M  V30 END ATOM
M  V30 BEGIN BOND
M  V30 1 2 1 2
M  V30 2 1 2 3
M  V30 3 1 3 4
M  V30 4 2 4 5
M  V30 5 1 5 6
M  V30 6 2 6 7
M  V30 7 1 7 8
M  V30 8 1 8 9
M  V30 9 2 9 10
M  V30 10 1 10 11
M  V30 11 2 11 12
M  V30 12 1 12 13
M  V30 13 2 13 14
M  V30 14 1 14 15
M  V30 15 2 15 16
M  V30 16 1 16 17
M  V30 17 1 17 18
M  V30 18 1 18 19
M  V30 19 1 19 20
M  V30 20 1 20 21
M  V30 21 1 21 22
M  V30 22 1 16 23
M  V30 23 2 23 24
M  V30 24 1 24 25
M  V30 25 1 10 26
M  V30 26 2 26 27
M  V30 27 1 2 28
M  V30 28 1 28 29
M  V30 29 1 29 30
M  V30 30 1 30 31
M  V30 31 1 31 32
M  V30 32 1 31 33
M  V30 33 1 31 34
M  V30 34 1 34 35
M  V30 35 1 27 4
M  V30 36 1 35 28
M  V30 37 1 26 7
M  V30 38 1 25 11
M  V30 39 1 24 13
M  V30 40 1 22 17
M  V30 41 1 3 36
M  V30 42 1 5 37
M  V30 43 1 6 38
M  V30 44 1 8 39
M  V30 45 1 14 40
M  V30 46 1 15 41
M  V30 47 1 18 42
M  V30 48 1 18 43
M  V30 49 1 19 44
M  V30 50 1 19 45
M  V30 51 1 21 46
M  V30 52 1 21 47
M  V30 53 1 22 48
M  V30 54 1 22 49
M  V30 55 1 23 50
M  V30 56 1 25 51
M  V30 57 1 27 52
M  V30 58 1 28 53
M  V30 59 1 29 54
M  V30 60 1 29 55
M  V30 61 1 30 56
M  V30 62 1 30 57
M  V30 63 1 34 58
M  V30 64 1 34 59
M  V30 65 1 35 60
M  V30 66 1 35 61
M  V30 END BOND
M  V30 END CTAB
M  END
>  <Dataset>  (76) 
ChEMBL_Kinases

>  <Ligand_Instance>  (76) 
nan

>  <PDB_ID>  (76) 
nan

>  <Standardized_SMILES>  (76) 
O=C(Nc1ccc2[nH]nc(-c3nc4ccc(N5CCOCC5)cc4[nH]3)c2c1)C1CCC(F)(F)CC1

>  <Name>  (76) 
nan

>  <Pocket>  (76) 
nan

>  <ATP_Site>  (76) 
nan

>  <Peripheral>  (76) 
nan

>  <Num_H_Atoms_ProtBoundConf>  (76) 
nan

>  <Num_Resolved_Atoms>  (76) 
nan

>  <Num_Not_Resolved_Atoms>  (76) 
nan

$$$$
CHEMBL3659971
     RDKit          3D

  0  0  0  0  0  0  0  0  0  0999 V3000
M  V30 BEGIN CTAB
M  V30 COUNTS 52 57 0 0 0
M  V30 BEGIN ATOM
M  V30 1 O 2.239274 -5.352768 -1.560468 0
M  V30 2 C 1.078979 -5.252926 -1.976274 0
M  V30 3 N 0.376862 -4.259748 -2.709456 0
M  V30 4 C 0.839031 -3.032247 -3.197946 0
M  V30 5 C 1.371863 -2.951218 -4.448675 0
M  V30 6 C 1.819877 -1.727864 -4.900932 0
M  V30 7 C 1.721546 -0.619535 -4.087997 0
M  V30 8 N 2.054365 0.674103 -4.225281 0
M  V30 9 N 1.752353 1.352500 -3.140626 0
M  V30 10 C 1.191535 0.556789 -2.192023 0
M  V30 11 C 0.744272 0.984664 -0.881123 0
M  V30 12 N 0.865754 2.281266 -0.502337 0
M  V30 13 C 0.401370 2.486511 0.735218 0
M  V30 14 C 0.314154 3.605971 1.536003 0
M  V30 15 C -0.228540 3.479586 2.797052 0
M  V30 16 C -0.684326 2.270554 3.277911 0
M  V30 17 N -1.245015 2.129941 4.576391 0
M  V30 18 C -1.689267 0.889153 5.193358 0
M  V30 19 C -1.405576 0.879481 6.676719 0
M  V30 20 O -0.330855 1.680737 6.995399 0
M  V30 21 C -0.537064 3.019746 6.705863 0
M  V30 22 C -1.477929 3.205166 5.521080 0
M  V30 23 C -0.587592 1.165342 2.461021 0
M  V30 24 C -0.047380 1.267527 1.193182 0
M  V30 25 N 0.184213 0.412436 0.183992 0
M  V30 26 C 1.188473 -0.667242 -2.819030 0
M  V30 27 C 0.753327 -1.903762 -2.404670 0
M  V30 28 C 0.352607 -6.476187 -1.571992 0
M  V30 29 C -0.551071 -7.047268 -2.650326 0
M  V30 30 C -1.121588 -6.442049 -1.397619 0
M  V30 31 H -0.631037 -4.422562 -2.942238 0
M  V30 32 H 1.475478 -3.785449 -5.133060 0
M  V30 33 H 2.260142 -1.583817 -5.894137 0
M  V30 34 H 2.493568 1.135245 -5.052770 0
M  V30 35 H 0.666074 4.542278 1.166888 0
M  V30 36 H -0.273897 4.377401 3.380578 0
M  V30 37 H -1.101184 0.070134 4.734195 0
M  V30 38 H -2.762614 0.697522 5.004198 0
M  V30 39 H -1.154819 -0.160183 6.963718 0
M  V30 40 H -2.327035 1.142044 7.233574 0
M  V30 41 H 0.432062 3.542063 6.562657 0
M  V30 42 H -1.024061 3.486294 7.585293 0
M  V30 43 H -1.254997 4.208126 5.131201 0
M  V30 44 H -2.509950 3.164944 5.933885 0
M  V30 45 H -0.912514 0.171292 2.731013 0
M  V30 46 H -0.054486 -0.572324 0.251724 0
M  V30 47 H 0.325106 -2.026463 -1.428480 0
M  V30 48 H 0.885758 -7.255443 -0.994603 0
M  V30 49 H -0.662472 -6.523032 -3.609318 0
M  V30 50 H -0.667583 -8.147560 -2.724728 0
M  V30 51 H -1.595835 -5.441618 -1.461585 0
M  V30 52 H -1.585017 -7.124095 -0.640732 0
M  V30 END ATOM
M  V30 BEGIN BOND
M  V30 1 2 1 2
M  V30 2 1 2 3
M  V30 3 1 3 4
M  V30 4 2 4 5
M  V30 5 1 5 6
M  V30 6 2 6 7
M  V30 7 1 7 8
M  V30 8 1 8 9
M  V30 9 2 9 10
M  V30 10 1 10 11
M  V30 11 2 11 12
M  V30 12 1 12 13
M  V30 13 2 13 14
M  V30 14 1 14 15
M  V30 15 2 15 16
M  V30 16 1 16 17
M  V30 17 1 17 18
M  V30 18 1 18 19
M  V30 19 1 19 20
M  V30 20 1 20 21
M  V30 21 1 21 22
M  V30 22 1 16 23
M  V30 23 2 23 24
M  V30 24 1 24 25
M  V30 25 1 10 26
M  V30 26 2 26 27
M  V30 27 1 2 28
M  V30 28 1 28 29
M  V30 29 1 29 30
M  V30 30 1 27 4
M  V30 31 1 30 28
M  V30 32 1 26 7
M  V30 33 1 25 11
M  V30 34 1 24 13
M  V30 35 1 22 17
M  V30 36 1 3 31
M  V30 37 1 5 32
M  V30 38 1 6 33
M  V30 39 1 8 34
M  V30 40 1 14 35
M  V30 41 1 15 36
M  V30 42 1 18 37
M  V30 43 1 18 38
M  V30 44 1 19 39
M  V30 45 1 19 40
M  V30 46 1 21 41
M  V30 47 1 21 42
M  V30 48 1 22 43
M  V30 49 1 22 44
M  V30 50 1 23 45
M  V30 51 1 25 46
M  V30 52 1 27 47
M  V30 53 1 28 48
M  V30 54 1 29 49
M  V30 55 1 29 50
M  V30 56 1 30 51
M  V30 57 1 30 52
M  V30 END BOND
M  V30 END CTAB
M  END
>  <Dataset>  (77) 
ChEMBL_Kinases

>  <Ligand_Instance>  (77) 
nan

>  <PDB_ID>  (77) 
nan

>  <Standardized_SMILES>  (77) 
O=C(Nc1ccc2[nH]nc(-c3nc4ccc(N5CCOCC5)cc4[nH]3)c2c1)C1CC1

>  <Name>  (77) 
nan

>  <Pocket>  (77) 
nan

>  <ATP_Site>  (77) 
nan

>  <Peripheral>  (77) 
nan

>  <Num_H_Atoms_ProtBoundConf>  (77) 
nan

>  <Num_Resolved_Atoms>  (77) 
nan

>  <Num_Not_Resolved_Atoms>  (77) 
nan

$$$$
CHEMBL365963
     RDKit          3D

  0  0  0  0  0  0  0  0  0  0999 V3000
M  V30 BEGIN CTAB
M  V30 COUNTS 48 52 0 0 0
M  V30 BEGIN ATOM
M  V30 1 N 5.867323 -1.417386 2.563492 0
M  V30 2 C 4.966848 -0.784247 2.201985 0
M  V30 3 C 3.846105 0.024445 1.760829 0
M  V30 4 C 3.738676 0.455603 0.502170 0
M  V30 5 N 2.761498 1.237719 -0.143925 0
M  V30 6 C 2.995971 1.440935 -1.499135 0
M  V30 7 C 2.147723 2.176514 -2.344105 0
M  V30 8 C 2.464921 2.306589 -3.679506 0
M  V30 9 C 3.609561 1.703326 -4.126784 0
M  V30 10 C 4.483151 0.970215 -3.354687 0
M  V30 11 C 4.108962 0.880593 -2.038284 0
M  V30 12 S 4.993859 0.022014 -0.709213 0
M  V30 13 C 2.767552 0.383312 2.707936 0
M  V30 14 C 3.089406 0.763953 3.990738 0
M  V30 15 C 2.039854 1.085404 4.812008 0
M  V30 16 N 0.724169 1.046753 4.424979 0
M  V30 17 C 0.441080 0.663368 3.138407 0
M  V30 18 N -0.784686 0.543966 2.458087 0
M  V30 19 C -1.870089 -0.361975 2.413951 0
M  V30 20 C -1.537153 -1.811691 2.200830 0
M  V30 21 N -2.837314 -2.499323 2.155983 0
M  V30 22 C -3.622206 -3.044872 3.113823 0
M  V30 23 C -4.758397 -3.550000 2.516333 0
M  V30 24 C -4.713548 -3.332550 1.165059 0
M  V30 25 C -5.507556 -3.583620 0.050808 0
M  V30 26 C -5.144798 -3.209847 -1.234519 0
M  V30 27 C -3.955863 -2.565654 -1.419134 0
M  V30 28 C -3.167897 -2.316105 -0.316335 0
M  V30 29 C -3.504569 -2.678068 0.977942 0
M  V30 30 N 1.501639 0.356746 2.367877 0
M  V30 31 H 1.978752 1.578893 0.453943 0
M  V30 32 H 1.223719 2.672228 -2.007396 0
M  V30 33 H 1.785690 2.888600 -4.319847 0
M  V30 34 H 3.808223 1.836226 -5.180677 0
M  V30 35 H 5.365328 0.506193 -3.722497 0
M  V30 36 H 4.094441 0.816990 4.361072 0
M  V30 37 H 2.180011 1.400510 5.846762 0
M  V30 38 H -0.833598 1.409768 1.830975 0
M  V30 39 H -2.451644 -0.244445 3.369322 0
M  V30 40 H -2.557648 -0.083147 1.587391 0
M  V30 41 H -0.928040 -2.231866 3.035259 0
M  V30 42 H -1.038895 -1.957600 1.232934 0
M  V30 43 H -3.324571 -3.040225 4.164863 0
M  V30 44 H -5.579006 -4.045877 3.018697 0
M  V30 45 H -6.460163 -4.097928 0.224882 0
M  V30 46 H -5.789911 -3.421313 -2.088009 0
M  V30 47 H -3.643923 -2.263809 -2.420836 0
M  V30 48 H -2.228964 -1.796525 -0.549723 0
M  V30 END ATOM
M  V30 BEGIN BOND
M  V30 1 3 1 2
M  V30 2 1 2 3
M  V30 3 2 3 4
M  V30 4 1 4 5
M  V30 5 1 5 6
M  V30 6 2 6 7
M  V30 7 1 7 8
M  V30 8 2 8 9
M  V30 9 1 9 10
M  V30 10 2 10 11
M  V30 11 1 11 12
M  V30 12 1 3 13
M  V30 13 2 13 14
M  V30 14 1 14 15
M  V30 15 2 15 16
M  V30 16 1 16 17
M  V30 17 1 17 18
M  V30 18 1 18 19
M  V30 19 1 19 20
M  V30 20 1 20 21
M  V30 21 1 21 22
M  V30 22 2 22 23
M  V30 23 1 23 24
M  V30 24 2 24 25
M  V30 25 1 25 26
M  V30 26 2 26 27
M  V30 27 1 27 28
M  V30 28 2 28 29
M  V30 29 2 17 30
M  V30 30 1 12 4
M  V30 31 1 30 13
M  V30 32 1 11 6
M  V30 33 1 29 21
M  V30 34 1 29 24
M  V30 35 1 5 31
M  V30 36 1 7 32
M  V30 37 1 8 33
M  V30 38 1 9 34
M  V30 39 1 10 35
M  V30 40 1 14 36
M  V30 41 1 15 37
M  V30 42 1 18 38
M  V30 43 1 19 39
M  V30 44 1 19 40
M  V30 45 1 20 41
M  V30 46 1 20 42
M  V30 47 1 22 43
M  V30 48 1 23 44
M  V30 49 1 25 45
M  V30 50 1 26 46
M  V30 51 1 27 47
M  V30 52 1 28 48
M  V30 END BOND
M  V30 END CTAB
M  END
>  <Dataset>  (78) 
ChEMBL_Kinases

>  <Ligand_Instance>  (78) 
nan

>  <PDB_ID>  (78) 
nan

>  <Standardized_SMILES>  (78) 
N#C/C(=C1/Nc2ccccc2S1)c1ccnc(NCCn2ccc3ccccc32)n1

>  <Name>  (78) 
nan

>  <Pocket>  (78) 
nan

>  <ATP_Site>  (78) 
nan

>  <Peripheral>  (78) 
nan

>  <Num_H_Atoms_ProtBoundConf>  (78) 
nan

>  <Num_Resolved_Atoms>  (78) 
nan

>  <Num_Not_Resolved_Atoms>  (78) 
nan

$$$$
CHEMBL365950
     RDKit          3D

  0  0  0  0  0  0  0  0  0  0999 V3000
M  V30 BEGIN CTAB
M  V30 COUNTS 47 50 0 0 0
M  V30 BEGIN ATOM
M  V30 1 C -3.058454 -4.048371 1.508256 0
M  V30 2 N -3.570206 -2.774953 0.978120 0
M  V30 3 C -2.878536 -2.508232 -0.225902 0
M  V30 4 C -3.102364 -1.130649 -0.768592 0
M  V30 5 C -2.802711 -0.134369 0.311542 0
M  V30 6 C -1.345962 0.047021 0.477385 0
M  V30 7 C -0.690955 1.207638 0.046936 0
M  V30 8 C 0.676563 1.108025 0.334029 0
M  V30 9 C 1.770866 2.013489 0.100392 0
M  V30 10 C 2.804846 1.647113 -0.728755 0
M  V30 11 C 3.868403 2.499454 -0.969723 0
M  V30 12 C 3.852164 3.740993 -0.341450 0
M  V30 13 N 2.839539 4.114408 0.477952 0
M  V30 14 C 1.804619 3.268216 0.704057 0
M  V30 15 C 0.826734 -0.100124 0.928550 0
M  V30 16 C 2.077216 -0.707414 1.433492 0
M  V30 17 C 2.520782 -1.907327 0.896283 0
M  V30 18 C 3.687902 -2.482850 1.361646 0
M  V30 19 C 4.387868 -1.853709 2.349776 0
M  V30 20 F 5.532518 -2.451445 2.781747 0
M  V30 21 C 3.949109 -0.654785 2.889851 0
M  V30 22 C 2.786301 -0.068060 2.435897 0
M  V30 23 N -0.374164 -0.702872 1.000864 0
M  V30 24 C -3.536010 -0.389497 1.588785 0
M  V30 25 C -3.521905 -1.824973 2.022099 0
M  V30 26 H -3.952687 -4.598178 1.874698 0
M  V30 27 H -2.515748 -4.610953 0.719160 0
M  V30 28 H -2.337197 -3.805265 2.315594 0
M  V30 29 H -1.801914 -2.784206 -0.249487 0
M  V30 30 H -3.329023 -3.203803 -1.002102 0
M  V30 31 H -2.384795 -0.949504 -1.607277 0
M  V30 32 H -4.136360 -1.035340 -1.156495 0
M  V30 33 H -3.200591 0.850246 -0.087124 0
M  V30 34 H -1.040090 2.127164 -0.446440 0
M  V30 35 H 2.820844 0.682208 -1.219472 0
M  V30 36 H 4.664377 2.181205 -1.626194 0
M  V30 37 H 4.691296 4.393117 -0.541412 0
M  V30 38 H 0.977324 3.526267 1.349845 0
M  V30 39 H 1.964168 -2.403640 0.113324 0
M  V30 40 H 4.044657 -3.422425 0.948201 0
M  V30 41 H 4.551933 -0.216790 3.665238 0
M  V30 42 H 2.471948 0.868784 2.879277 0
M  V30 43 H -0.539054 -1.626665 1.408384 0
M  V30 44 H -3.123778 0.274737 2.370905 0
M  V30 45 H -4.599197 -0.073191 1.438514 0
M  V30 46 H -4.452543 -1.977755 2.647579 0
M  V30 47 H -2.687645 -2.047010 2.733648 0
M  V30 END ATOM
M  V30 BEGIN BOND
M  V30 1 1 1 2
M  V30 2 1 2 3
M  V30 3 1 3 4
M  V30 4 1 4 5
M  V30 5 1 5 6
M  V30 6 2 6 7
M  V30 7 1 7 8
M  V30 8 1 8 9
M  V30 9 2 9 10
M  V30 10 1 10 11
M  V30 11 2 11 12
M  V30 12 1 12 13
M  V30 13 2 13 14
M  V30 14 2 8 15
M  V30 15 1 15 16
M  V30 16 2 16 17
M  V30 17 1 17 18
M  V30 18 2 18 19
M  V30 19 1 19 20
M  V30 20 1 19 21
M  V30 21 2 21 22
M  V30 22 1 15 23
M  V30 23 1 5 24
M  V30 24 1 24 25
M  V30 25 1 25 2
M  V30 26 1 23 6
M  V30 27 1 14 9
M  V30 28 1 22 16
M  V30 29 1 1 26
M  V30 30 1 1 27
M  V30 31 1 1 28
M  V30 32 1 3 29
M  V30 33 1 3 30
M  V30 34 1 4 31
M  V30 35 1 4 32
M  V30 36 1 5 33
M  V30 37 1 7 34
M  V30 38 1 10 35
M  V30 39 1 11 36
M  V30 40 1 12 37
M  V30 41 1 14 38
M  V30 42 1 17 39
M  V30 43 1 18 40
M  V30 44 1 21 41
M  V30 45 1 22 42
M  V30 46 1 23 43
M  V30 47 1 24 44
M  V30 48 1 24 45
M  V30 49 1 25 46
M  V30 50 1 25 47
M  V30 END BOND
M  V30 END CTAB
M  END
>  <Dataset>  (79) 
ChEMBL_Kinases

>  <Ligand_Instance>  (79) 
nan

>  <PDB_ID>  (79) 
nan

>  <Standardized_SMILES>  (79) 
CN1CCC(c2cc(-c3cccnc3)c(-c3ccc(F)cc3)[nH]2)CC1

>  <Name>  (79) 
nan

>  <Pocket>  (79) 
nan

>  <ATP_Site>  (79) 
nan

>  <Peripheral>  (79) 
nan

>  <Num_H_Atoms_ProtBoundConf>  (79) 
nan

>  <Num_Resolved_Atoms>  (79) 
nan

>  <Num_Not_Resolved_Atoms>  (79) 
nan

$$$$
CHEMBL365929
     RDKit          3D

  0  0  0  0  0  0  0  0  0  0999 V3000
M  V30 BEGIN CTAB
M  V30 COUNTS 70 74 0 0 0
M  V30 BEGIN ATOM
M  V30 1 C 0.426580 -4.771288 4.079029 0
M  V30 2 C 0.703952 -4.561537 2.650257 0
M  V30 3 C 0.968969 -5.603079 1.788145 0
M  V30 4 C 1.226148 -5.371657 0.453487 0
M  V30 5 C 1.229984 -4.097173 -0.074089 0
M  V30 6 N 1.476699 -3.743954 -1.432368 0
M  V30 7 C 0.443614 -3.616811 -2.399092 0
M  V30 8 O -0.724459 -3.844810 -1.943674 0
M  V30 9 C 0.684826 -3.257725 -3.789063 0
M  V30 10 C 1.955103 -3.074285 -4.287138 0
M  V30 11 C 2.085190 -2.723759 -5.635256 0
M  V30 12 C 0.951176 -2.576700 -6.406983 0
M  V30 13 C -0.321721 -2.757452 -5.920475 0
M  V30 14 N -1.428405 -2.581420 -6.790764 0
M  V30 15 C -1.375338 -2.283075 -8.203961 0
M  V30 16 C -2.297589 -1.109440 -8.480283 0
M  V30 17 O -2.650822 -0.490345 -7.272959 0
M  V30 18 C -3.541383 -1.351273 -6.636943 0
M  V30 19 C -2.821902 -2.664389 -6.412120 0
M  V30 20 C -0.439154 -3.098246 -4.608205 0
M  V30 21 C 0.957414 -3.086739 0.836602 0
M  V30 22 C 0.689868 -3.265262 2.199165 0
M  V30 23 N 0.423040 -2.105524 2.978562 0
M  V30 24 C 1.151501 -1.168830 3.735019 0
M  V30 25 O 2.385592 -1.354462 3.772458 0
M  V30 26 C 0.397875 -0.097891 4.384177 0
M  V30 27 C -0.961581 0.120687 4.346041 0
M  V30 28 C -1.498983 1.213788 5.041848 0
M  V30 29 C -0.696440 2.100845 5.781820 0
M  V30 30 O -1.539734 3.023632 6.314791 0
M  V30 31 C -1.322766 4.113776 7.110169 0
M  V30 32 C -0.456072 5.185598 6.560214 0
M  V30 33 C 0.903419 5.402037 6.725840 0
M  V30 34 C 1.535791 6.461040 6.114991 0
M  V30 35 C 0.878150 7.360928 5.314066 0
M  V30 36 C -0.474170 7.191351 5.116980 0
M  V30 37 C -1.081219 6.125409 5.738563 0
M  V30 38 C 0.648810 1.829396 5.780751 0
M  V30 39 C 1.196152 0.763656 5.105422 0
M  V30 40 H 1.410869 -4.720533 4.608104 0
M  V30 41 H -0.218941 -4.013757 4.537222 0
M  V30 42 H 0.075880 -5.814938 4.201727 0
M  V30 43 H 0.976272 -6.630380 2.161604 0
M  V30 44 H 1.437816 -6.179278 -0.247712 0
M  V30 45 H 2.464242 -3.579240 -1.695767 0
M  V30 46 H 2.826487 -3.196024 -3.659242 0
M  V30 47 H 3.094001 -2.595233 -5.963630 0
M  V30 48 H 1.211607 -2.307730 -7.410555 0
M  V30 49 H -0.380944 -2.128551 -8.615196 0
M  V30 50 H -1.841326 -3.158168 -8.725622 0
M  V30 51 H -1.837076 -0.382915 -9.165323 0
M  V30 52 H -3.254102 -1.422511 -8.947993 0
M  V30 53 H -4.429460 -1.470602 -7.289864 0
M  V30 54 H -3.893859 -0.939885 -5.666872 0
M  V30 55 H -3.311704 -3.435991 -7.075752 0
M  V30 56 H -2.986228 -3.007927 -5.376538 0
M  V30 57 H -1.410350 -3.255961 -4.162800 0
M  V30 58 H 0.952679 -2.059054 0.450906 0
M  V30 59 H -0.606242 -2.142962 2.814223 0
M  V30 60 H -1.508563 -0.598158 3.761394 0
M  V30 61 H -2.591066 1.204668 4.880775 0
M  V30 62 H -2.330148 4.600558 7.310150 0
M  V30 63 H -0.928876 3.801356 8.112863 0
M  V30 64 H 1.383201 4.682955 7.364501 0
M  V30 65 H 2.615334 6.537641 6.314144 0
M  V30 66 H 1.410421 8.172624 4.855924 0
M  V30 67 H -1.022047 7.880370 4.493495 0
M  V30 68 H -2.147148 6.045961 5.544116 0
M  V30 69 H 1.161001 2.557632 6.372373 0
M  V30 70 H 2.271924 0.686694 5.202825 0
M  V30 END ATOM
M  V30 BEGIN BOND
M  V30 1 1 1 2
M  V30 2 2 2 3
M  V30 3 1 3 4
M  V30 4 2 4 5
M  V30 5 1 5 6
M  V30 6 1 6 7
M  V30 7 2 7 8
M  V30 8 1 7 9
M  V30 9 2 9 10
M  V30 10 1 10 11
M  V30 11 2 11 12
M  V30 12 1 12 13
M  V30 13 1 13 14
M  V30 14 1 14 15
M  V30 15 1 15 16
M  V30 16 1 16 17
M  V30 17 1 17 18
M  V30 18 1 18 19
M  V30 19 2 13 20
M  V30 20 1 5 21
M  V30 21 2 21 22
M  V30 22 1 22 23
M  V30 23 1 23 24
M  V30 24 2 24 25
M  V30 25 1 24 26
M  V30 26 2 26 27
M  V30 27 1 27 28
M  V30 28 2 28 29
M  V30 29 1 29 30
M  V30 30 1 30 31
M  V30 31 1 31 32
M  V30 32 2 32 33
M  V30 33 1 33 34
M  V30 34 2 34 35
M  V30 35 1 35 36
M  V30 36 2 36 37
M  V30 37 1 29 38
M  V30 38 2 38 39
M  V30 39 1 22 2
M  V30 40 1 39 26
M  V30 41 1 20 9
M  V30 42 1 37 32
M  V30 43 1 19 14
M  V30 44 1 1 40
M  V30 45 1 1 41
M  V30 46 1 1 42
M  V30 47 1 3 43
M  V30 48 1 4 44
M  V30 49 1 6 45
M  V30 50 1 10 46
M  V30 51 1 11 47
M  V30 52 1 12 48
M  V30 53 1 15 49
M  V30 54 1 15 50
M  V30 55 1 16 51
M  V30 56 1 16 52
M  V30 57 1 18 53
M  V30 58 1 18 54
M  V30 59 1 19 55
M  V30 60 1 19 56
M  V30 61 1 20 57
M  V30 62 1 21 58
M  V30 63 1 23 59
M  V30 64 1 27 60
M  V30 65 1 28 61
M  V30 66 1 31 62
M  V30 67 1 31 63
M  V30 68 1 33 64
M  V30 69 1 34 65
M  V30 70 1 35 66
M  V30 71 1 36 67
M  V30 72 1 37 68
M  V30 73 1 38 69
M  V30 74 1 39 70
M  V30 END BOND
M  V30 END CTAB
M  END
>  <Dataset>  (80) 
ChEMBL_Kinases

>  <Ligand_Instance>  (80) 
nan

>  <PDB_ID>  (80) 
nan

>  <Standardized_SMILES>  (80) 
Cc1ccc(NC(=O)c2cccc(N3CCOCC3)c2)cc1NC(=O)c1ccc(OCc2ccccc2)cc1

>  <Name>  (80) 
nan

>  <Pocket>  (80) 
nan

>  <ATP_Site>  (80) 
nan

>  <Peripheral>  (80) 
nan

>  <Num_H_Atoms_ProtBoundConf>  (80) 
nan

>  <Num_Resolved_Atoms>  (80) 
nan

>  <Num_Not_Resolved_Atoms>  (80) 
nan

$$$$
CHEMBL365922
     RDKit          3D

  0  0  0  0  0  0  0  0  0  0999 V3000
M  V30 BEGIN CTAB
M  V30 COUNTS 33 35 0 0 0
M  V30 BEGIN ATOM
M  V30 1 C -3.556490 -5.379066 1.309458 0
M  V30 2 C -2.499757 -4.403709 0.936679 0
M  V30 3 C -1.449939 -4.840455 0.159870 0
M  V30 4 C -0.464548 -3.930558 -0.187623 0
M  V30 5 C -0.439534 -2.603971 0.180473 0
M  V30 6 C 0.598078 -1.655949 -0.188342 0
M  V30 7 O 1.409729 -2.280191 -0.871795 0
M  V30 8 C 0.494388 -0.284402 0.272523 0
M  V30 9 C 1.348783 0.679474 0.021831 0
M  V30 10 C 2.549594 0.545962 -0.760852 0
M  V30 11 O 2.992752 -0.455019 -1.324928 0
M  V30 12 N 3.241524 1.782444 -0.832026 0
M  V30 13 C 2.446707 2.714871 -0.069876 0
M  V30 14 C 2.653288 4.054919 0.189648 0
M  V30 15 C 1.733310 4.765766 0.965277 0
M  V30 16 C 0.618513 4.111625 1.466883 0
M  V30 17 Br -0.611125 5.096915 2.513746 0
M  V30 18 C 0.404072 2.772328 1.212447 0
M  V30 19 C 1.332629 2.078779 0.436504 0
M  V30 20 C -1.508987 -2.215461 0.955500 0
M  V30 21 C -2.512128 -3.082344 1.326429 0
M  V30 22 H -3.174631 -6.398358 1.373933 0
M  V30 23 H -4.379421 -5.364302 0.573982 0
M  V30 24 H -3.927809 -5.114369 2.339839 0
M  V30 25 H -1.412651 -5.872097 -0.161546 0
M  V30 26 H 0.321812 -4.337108 -0.792450 0
M  V30 27 H -0.324936 0.057936 0.879209 0
M  V30 28 H 4.130785 2.013648 -1.316189 0
M  V30 29 H 3.525342 4.587001 -0.196840 0
M  V30 30 H 1.923717 5.823982 1.153322 0
M  V30 31 H -0.460272 2.225939 1.590018 0
M  V30 32 H -1.690623 -1.248434 1.347674 0
M  V30 33 H -3.371192 -2.827869 1.932330 0
M  V30 END ATOM
M  V30 BEGIN BOND
M  V30 1 1 1 2
M  V30 2 2 2 3
M  V30 3 1 3 4
M  V30 4 2 4 5
M  V30 5 1 5 6
M  V30 6 2 6 7
M  V30 7 1 6 8
M  V30 8 2 8 9
M  V30 9 1 9 10
M  V30 10 2 10 11
M  V30 11 1 10 12
M  V30 12 1 12 13
M  V30 13 2 13 14
M  V30 14 1 14 15
M  V30 15 2 15 16
M  V30 16 1 16 17
M  V30 17 1 16 18
M  V30 18 2 18 19
M  V30 19 1 5 20
M  V30 20 2 20 21
M  V30 21 1 21 2
M  V30 22 1 19 9
M  V30 23 1 19 13
M  V30 24 1 1 22
M  V30 25 1 1 23
M  V30 26 1 1 24
M  V30 27 1 3 25
M  V30 28 1 4 26
M  V30 29 1 8 27
M  V30 30 1 12 28
M  V30 31 1 14 29
M  V30 32 1 15 30
M  V30 33 1 18 31
M  V30 34 1 20 32
M  V30 35 1 21 33
M  V30 END BOND
M  V30 END CTAB
M  END
>  <Dataset>  (81) 
ChEMBL_Kinases

>  <Ligand_Instance>  (81) 
nan

>  <PDB_ID>  (81) 
nan

>  <Standardized_SMILES>  (81) 
Cc1ccc(C(=O)/C=C2\C(=O)Nc3ccc(Br)cc32)cc1

>  <Name>  (81) 
nan

>  <Pocket>  (81) 
nan

>  <ATP_Site>  (81) 
nan

>  <Peripheral>  (81) 
nan

>  <Num_H_Atoms_ProtBoundConf>  (81) 
nan

>  <Num_Resolved_Atoms>  (81) 
nan

>  <Num_Not_Resolved_Atoms>  (81) 
nan

$$$$
CHEMBL365918
     RDKit          3D

  0  0  0  0  0  0  0  0  0  0999 V3000
M  V30 BEGIN CTAB
M  V30 COUNTS 35 38 0 0 0
M  V30 BEGIN ATOM
M  V30 1 N 2.107540 -3.420359 4.555848 0
M  V30 2 C 1.662369 -2.505335 3.550448 0
M  V30 3 N 1.809664 -2.465018 2.369910 0
M  V30 4 C 1.304501 -1.506851 1.583763 0
M  V30 5 C 1.561472 -1.571332 0.127409 0
M  V30 6 C 1.110147 -2.689937 -0.581104 0
M  V30 7 C 1.298557 -2.836555 -1.921070 0
M  V30 8 C 1.965808 -1.838845 -2.622752 0
M  V30 9 C 2.400839 -0.745751 -1.900595 0
M  V30 10 N 2.204370 -0.618245 -0.570813 0
M  V30 11 C 0.564540 -0.496880 2.167740 0
M  V30 12 C -0.101903 0.653233 1.614618 0
M  V30 13 C 0.463912 1.851831 2.044630 0
M  V30 14 C -0.018183 3.083284 1.637784 0
M  V30 15 C -1.099378 3.075737 0.775356 0
M  V30 16 C -1.693998 1.912181 0.321662 0
M  V30 17 C -2.772210 1.879399 -0.535943 0
M  V30 18 C -3.308520 0.662244 -0.940309 0
M  V30 19 C -2.761097 -0.524298 -0.482300 0
M  V30 20 C -1.673434 -0.522666 0.383763 0
M  V30 21 C -1.178055 0.709227 0.754983 0
M  V30 22 S 0.634328 -1.013461 3.970212 0
M  V30 23 H 3.162708 -3.547441 4.599832 0
M  V30 24 H 1.297800 -3.815669 5.085523 0
M  V30 25 H 0.590579 -3.458438 -0.013473 0
M  V30 26 H 0.912100 -3.740685 -2.384130 0
M  V30 27 H 2.101987 -1.973819 -3.667142 0
M  V30 28 H 2.918476 0.030343 -2.446311 0
M  V30 29 H 1.322410 1.934644 2.728994 0
M  V30 30 H 0.412336 4.022093 1.964360 0
M  V30 31 H -1.499814 4.027664 0.439992 0
M  V30 32 H -3.175539 2.820122 -0.874968 0
M  V30 33 H -4.157242 0.649079 -1.615489 0
M  V30 34 H -3.216595 -1.435046 -0.827679 0
M  V30 35 H -1.256310 -1.455906 0.736540 0
M  V30 END ATOM
M  V30 BEGIN BOND
M  V30 1 1 1 2
M  V30 2 2 2 3
M  V30 3 1 3 4
M  V30 4 1 4 5
M  V30 5 2 5 6
M  V30 6 1 6 7
M  V30 7 2 7 8
M  V30 8 1 8 9
M  V30 9 2 9 10
M  V30 10 2 4 11
M  V30 11 1 11 12
M  V30 12 2 12 13
M  V30 13 1 13 14
M  V30 14 2 14 15
M  V30 15 1 15 16
M  V30 16 2 16 17
M  V30 17 1 17 18
M  V30 18 2 18 19
M  V30 19 1 19 20
M  V30 20 2 20 21
M  V30 21 1 11 22
M  V30 22 1 22 2
M  V30 23 1 10 5
M  V30 24 1 21 12
M  V30 25 1 21 16
M  V30 26 1 1 23
M  V30 27 1 1 24
M  V30 28 1 6 25
M  V30 29 1 7 26
M  V30 30 1 8 27
M  V30 31 1 9 28
M  V30 32 1 13 29
M  V30 33 1 14 30
M  V30 34 1 15 31
M  V30 35 1 17 32
M  V30 36 1 18 33
M  V30 37 1 19 34
M  V30 38 1 20 35
M  V30 END BOND
M  V30 END CTAB
M  END
>  <Dataset>  (82) 
ChEMBL_Kinases

>  <Ligand_Instance>  (82) 
nan

>  <PDB_ID>  (82) 
nan

>  <Standardized_SMILES>  (82) 
Nc1nc(-c2ccccn2)c(-c2cccc3ccccc23)s1

>  <Name>  (82) 
nan

>  <Pocket>  (82) 
nan

>  <ATP_Site>  (82) 
nan

>  <Peripheral>  (82) 
nan

>  <Num_H_Atoms_ProtBoundConf>  (82) 
nan

>  <Num_Resolved_Atoms>  (82) 
nan

>  <Num_Not_Resolved_Atoms>  (82) 
nan

$$$$
CHEMBL365902
     RDKit          3D

  0  0  0  0  0  0  0  0  0  0999 V3000
M  V30 BEGIN CTAB
M  V30 COUNTS 29 31 0 0 0
M  V30 BEGIN ATOM
M  V30 1 C -1.720202 -2.133282 1.035451 0
M  V30 2 C -0.442291 -1.707415 1.718203 0
M  V30 3 N 0.334648 -0.793078 0.952614 0
M  V30 4 C 1.257236 -1.050247 0.025715 0
M  V30 5 C 1.792043 -2.248402 -0.583556 0
M  V30 6 N 2.787300 -2.216473 -1.486926 0
M  V30 7 O 3.119670 -3.394536 -1.874936 0
M  V30 8 N 2.394425 -4.294912 -1.280848 0
M  V30 9 C 1.581904 -3.580621 -0.490350 0
M  V30 10 N 0.639807 -4.244890 0.286871 0
M  V30 11 N 1.692015 0.173102 -0.316939 0
M  V30 12 C 1.087546 1.155173 0.344599 0
M  V30 13 C 1.278107 2.511775 0.249407 0
M  V30 14 C 0.498831 3.306742 1.069301 0
M  V30 15 C -0.420123 2.724559 1.932974 0
M  V30 16 O -1.237163 3.443717 2.784824 0
M  V30 17 C -0.580081 1.336695 1.995975 0
M  V30 18 C 0.194173 0.539787 1.180903 0
M  V30 19 H -1.932376 -3.232119 1.172973 0
M  V30 20 H -2.602944 -1.560787 1.396652 0
M  V30 21 H -1.647557 -1.981290 -0.061790 0
M  V30 22 H -0.795246 -1.204709 2.697192 0
M  V30 23 H 0.083982 -2.578764 2.112462 0
M  V30 24 H 0.257221 -4.748271 1.116179 0
M  V30 25 H -0.289810 -4.338534 -0.183976 0
M  V30 26 H 1.996516 2.898734 -0.430476 0
M  V30 27 H 0.592064 4.372915 1.050055 0
M  V30 28 H -0.916465 3.956604 3.585896 0
M  V30 29 H -1.280334 0.836129 2.650246 0
M  V30 END ATOM
M  V30 BEGIN BOND
M  V30 1 1 1 2
M  V30 2 1 2 3
M  V30 3 1 3 4
M  V30 4 1 4 5
M  V30 5 2 5 6
M  V30 6 1 6 7
M  V30 7 1 7 8
M  V30 8 2 8 9
M  V30 9 1 9 10
M  V30 10 2 4 11
M  V30 11 1 11 12
M  V30 12 2 12 13
M  V30 13 1 13 14
M  V30 14 2 14 15
M  V30 15 1 15 16
M  V30 16 1 15 17
M  V30 17 2 17 18
M  V30 18 1 18 3
M  V30 19 1 9 5
M  V30 20 1 18 12
M  V30 21 1 1 19
M  V30 22 1 1 20
M  V30 23 1 1 21
M  V30 24 1 2 22
M  V30 25 1 2 23
M  V30 26 1 10 24
M  V30 27 1 10 25
M  V30 28 1 13 26
M  V30 29 1 14 27
M  V30 30 1 16 28
M  V30 31 1 17 29
M  V30 END BOND
M  V30 END CTAB
M  END
>  <Dataset>  (83) 
ChEMBL_Kinases

>  <Ligand_Instance>  (83) 
nan

>  <PDB_ID>  (83) 
nan

>  <Standardized_SMILES>  (83) 
CCn1c(-c2nonc2N)nc2ccc(O)cc21

>  <Name>  (83) 
nan

>  <Pocket>  (83) 
nan

>  <ATP_Site>  (83) 
nan

>  <Peripheral>  (83) 
nan

>  <Num_H_Atoms_ProtBoundConf>  (83) 
nan

>  <Num_Resolved_Atoms>  (83) 
nan

>  <Num_Not_Resolved_Atoms>  (83) 
nan

$$$$
CHEMBL3658852
     RDKit          3D

  0  0  0  0  0  0  0  0  0  0999 V3000
M  V30 BEGIN CTAB
M  V30 COUNTS 57 61 0 0 0
M  V30 BEGIN ATOM
M  V30 1 C 4.410989 -7.052789 -0.276944 0
M  V30 2 C 5.288866 -5.872100 -0.519173 0
M  V30 3 C 4.906215 -4.674858 0.039462 0
M  V30 4 C 5.630219 -3.484260 -0.102930 0
M  V30 5 C 5.188684 -2.231776 0.507477 0
M  V30 6 N 6.068438 -1.447656 1.155208 0
M  V30 7 N 5.463398 -0.366236 1.630807 0
M  V30 8 C 4.143594 -0.408885 1.303377 0
M  V30 9 C 3.011562 0.377974 1.490495 0
M  V30 10 C 1.809765 -0.055117 0.968266 0
M  V30 11 N 0.645335 0.758616 1.163187 0
M  V30 12 C -0.620241 0.349618 0.640013 0
M  V30 13 O -0.700296 -0.732729 0.006563 0
M  V30 14 N -1.767830 1.168593 0.841757 0
M  V30 15 C -3.101645 0.834422 0.345421 0 CFG=2
M  V30 16 C -3.597321 1.910498 -0.513946 0
M  V30 17 C -3.046062 2.495680 -1.653214 0
M  V30 18 C -3.698872 3.521149 -2.324449 0
M  V30 19 C -4.921281 3.961855 -1.841899 0
M  V30 20 C -5.470653 3.386807 -0.716090 0
M  V30 21 C -4.813348 2.365886 -0.053880 0
M  V30 22 C -5.251929 1.647234 1.150086 0
M  V30 23 C -4.081359 0.777233 1.490156 0 CFG=1
M  V30 24 N -4.477545 -0.598685 1.764530 0
M  V30 25 C -5.408571 -0.536996 2.868354 0
M  V30 26 C -5.042101 -1.231929 0.592350 0
M  V30 27 N 1.685492 -1.211733 0.282393 0
M  V30 28 C 2.767551 -2.019217 0.072072 0
M  V30 29 C 3.971561 -1.585274 0.595293 0
M  V30 30 C 6.778973 -3.602842 -0.860176 0
M  V30 31 C 7.179238 -4.800616 -1.430080 0
M  V30 32 N 6.417769 -5.893029 -1.238034 0
M  V30 33 H 3.501317 -7.026786 -0.918665 0
M  V30 34 H 4.956260 -8.015671 -0.334212 0
M  V30 35 H 4.005809 -6.949703 0.770505 0
M  V30 36 H 3.999352 -4.619116 0.627256 0
M  V30 37 H 5.790345 0.464232 2.177889 0
M  V30 38 H 3.148219 1.297274 2.044337 0
M  V30 39 H 0.691655 1.648903 1.679750 0
M  V30 40 H -1.655085 2.062315 1.375527 0
M  V30 41 H -3.027996 -0.136808 -0.189708 0
M  V30 42 H -2.087634 2.167625 -2.052101 0
M  V30 43 H -3.219801 3.947672 -3.218081 0
M  V30 44 H -5.347896 4.768275 -2.440769 0
M  V30 45 H -6.426606 3.797282 -0.416127 0
M  V30 46 H -6.173663 1.049019 0.987528 0
M  V30 47 H -5.410114 2.421167 1.955063 0
M  V30 48 H -3.617094 1.135352 2.446290 0
M  V30 49 H -6.431557 -0.376530 2.436991 0
M  V30 50 H -5.452077 -1.473259 3.466220 0
M  V30 51 H -5.230079 0.326448 3.536581 0
M  V30 52 H -5.878919 -1.877190 0.894170 0
M  V30 53 H -5.326968 -0.467566 -0.162658 0
M  V30 54 H -4.266728 -1.888365 0.153098 0
M  V30 55 H 2.677495 -2.947265 -0.476046 0
M  V30 56 H 7.378419 -2.707856 -1.002100 0
M  V30 57 H 8.096767 -4.862039 -2.026098 0
M  V30 END ATOM
M  V30 BEGIN BOND
M  V30 1 1 1 2
M  V30 2 2 2 3
M  V30 3 1 3 4
M  V30 4 1 4 5
M  V30 5 2 5 6
M  V30 6 1 6 7
M  V30 7 1 7 8
M  V30 8 2 8 9
M  V30 9 1 9 10
M  V30 10 1 10 11
M  V30 11 1 11 12
M  V30 12 2 12 13
M  V30 13 1 12 14
M  V30 14 1 14 15
M  V30 15 1 15 16
M  V30 16 2 16 17
M  V30 17 1 17 18
M  V30 18 2 18 19
M  V30 19 1 19 20
M  V30 20 2 20 21
M  V30 21 1 21 22
M  V30 22 1 22 23
M  V30 23 1 23 24
M  V30 24 1 24 25
M  V30 25 1 24 26
M  V30 26 2 10 27
M  V30 27 1 27 28
M  V30 28 2 28 29
M  V30 29 2 4 30
M  V30 30 1 30 31
M  V30 31 2 31 32
M  V30 32 1 32 2
M  V30 33 1 29 5
M  V30 34 1 29 8
M  V30 35 1 23 15
M  V30 36 1 21 16
M  V30 37 1 1 33
M  V30 38 1 1 34
M  V30 39 1 1 35
M  V30 40 1 3 36
M  V30 41 1 7 37
M  V30 42 1 9 38
M  V30 43 1 11 39
M  V30 44 1 14 40
M  V30 45 1 15 41 CFG=3
M  V30 46 1 17 42
M  V30 47 1 18 43
M  V30 48 1 19 44
M  V30 49 1 20 45
M  V30 50 1 22 46
M  V30 51 1 22 47
M  V30 52 1 23 48 CFG=1
M  V30 53 1 25 49
M  V30 54 1 25 50
M  V30 55 1 25 51
M  V30 56 1 26 52
M  V30 57 1 26 53
M  V30 58 1 26 54
M  V30 59 1 28 55
M  V30 60 1 30 56
M  V30 61 1 31 57
M  V30 END BOND
M  V30 END CTAB
M  END
>  <Dataset>  (84) 
ChEMBL_Kinases

>  <Ligand_Instance>  (84) 
nan

>  <PDB_ID>  (84) 
nan

>  <Standardized_SMILES>  (84) 
Cc1cc(-c2n[nH]c3cc(NC(=O)N[C@@H]4c5ccccc5C[C@H]4N(C)C)ncc23)ccn1

>  <Name>  (84) 
nan

>  <Pocket>  (84) 
nan

>  <ATP_Site>  (84) 
nan

>  <Peripheral>  (84) 
nan

>  <Num_H_Atoms_ProtBoundConf>  (84) 
nan

>  <Num_Resolved_Atoms>  (84) 
nan

>  <Num_Not_Resolved_Atoms>  (84) 
nan

$$$$
CHEMBL3658851
     RDKit          3D

  0  0  0  0  0  0  0  0  0  0999 V3000
M  V30 BEGIN CTAB
M  V30 COUNTS 52 56 0 0 0
M  V30 BEGIN ATOM
M  V30 1 C 2.522668 -8.049241 0.024162 0
M  V30 2 C 3.325310 -7.080119 -0.773273 0
M  V30 3 C 3.176246 -5.743312 -0.465639 0
M  V30 4 C 3.868639 -4.754752 -1.137505 0
M  V30 5 C 3.752536 -3.327410 -0.857302 0
M  V30 6 N 4.761611 -2.438101 -0.745989 0
M  V30 7 N 4.312781 -1.234163 -0.489103 0
M  V30 8 C 2.969524 -1.350035 -0.432701 0
M  V30 9 C 2.051138 -0.337857 -0.185060 0
M  V30 10 C 0.709143 -0.671867 -0.170509 0
M  V30 11 N -0.395652 0.205933 0.062318 0
M  V30 12 C -0.986212 0.512245 1.323539 0
M  V30 13 O -0.471192 -0.053525 2.307465 0
M  V30 14 N -2.068018 1.409084 1.291231 0
M  V30 15 C -2.749941 1.795548 2.518714 0
M  V30 16 C -4.232241 1.449091 2.368584 0
M  V30 17 N -4.569267 1.823535 0.985942 0
M  V30 18 C -4.599866 3.260156 0.830813 0
M  V30 19 C -3.686445 3.945415 1.782238 0
M  V30 20 C -3.760309 5.323446 1.825388 0
M  V30 21 C -2.933668 6.011417 2.692087 0
M  V30 22 C -2.026602 5.382090 3.527148 0
M  V30 23 C -1.969367 4.010697 3.468280 0
M  V30 24 C -2.778092 3.284956 2.615951 0
M  V30 25 C 0.296088 -1.973842 -0.395750 0
M  V30 26 C 1.223192 -2.989768 -0.644618 0
M  V30 27 C 2.562548 -2.650591 -0.658022 0
M  V30 28 C 4.745929 -5.132877 -2.160302 0
M  V30 29 C 4.824429 -6.494290 -2.391457 0
M  V30 30 N 4.160858 -7.454748 -1.748929 0
M  V30 31 H 2.900805 -9.070770 -0.107492 0
M  V30 32 H 1.462842 -8.069438 -0.356033 0
M  V30 33 H 2.480709 -7.756239 1.082275 0
M  V30 34 H 2.498900 -5.437707 0.325468 0
M  V30 35 H 4.874268 -0.367426 -0.355923 0
M  V30 36 H 2.239630 0.698740 0.002489 0
M  V30 37 H -0.701746 0.591385 -0.865894 0
M  V30 38 H -2.424900 1.830372 0.405500 0
M  V30 39 H -2.313464 1.308525 3.405498 0
M  V30 40 H -4.412225 0.375378 2.494325 0
M  V30 41 H -4.877338 2.043273 3.035928 0
M  V30 42 H -5.420677 1.356171 0.664181 0
M  V30 43 H -4.316012 3.597463 -0.184595 0
M  V30 44 H -5.643440 3.631226 0.998366 0
M  V30 45 H -4.466329 5.859505 1.179284 0
M  V30 46 H -2.949173 7.092795 2.767505 0
M  V30 47 H -1.371927 5.906485 4.211830 0
M  V30 48 H -1.292184 3.430870 4.082493 0
M  V30 49 H -0.727422 -2.329895 -0.404066 0
M  V30 50 H 0.942393 -4.007013 -0.823056 0
M  V30 51 H 5.341585 -4.438733 -2.754737 0
M  V30 52 H 5.504277 -6.818626 -3.187358 0
M  V30 END ATOM
M  V30 BEGIN BOND
M  V30 1 1 1 2
M  V30 2 2 2 3
M  V30 3 1 3 4
M  V30 4 1 4 5
M  V30 5 2 5 6
M  V30 6 1 6 7
M  V30 7 1 7 8
M  V30 8 2 8 9
M  V30 9 1 9 10
M  V30 10 1 10 11
M  V30 11 1 11 12
M  V30 12 2 12 13
M  V30 13 1 12 14
M  V30 14 1 14 15
M  V30 15 1 15 16
M  V30 16 1 16 17
M  V30 17 1 17 18
M  V30 18 1 18 19
M  V30 19 2 19 20
M  V30 20 1 20 21
M  V30 21 2 21 22
M  V30 22 1 22 23
M  V30 23 2 23 24
M  V30 24 2 10 25
M  V30 25 1 25 26
M  V30 26 2 26 27
M  V30 27 2 4 28
M  V30 28 1 28 29
M  V30 29 2 29 30
M  V30 30 1 30 2
M  V30 31 1 27 5
M  V30 32 1 27 8
M  V30 33 1 24 15
M  V30 34 1 24 19
M  V30 35 1 1 31
M  V30 36 1 1 32
M  V30 37 1 1 33
M  V30 38 1 3 34
M  V30 39 1 7 35
M  V30 40 1 9 36
M  V30 41 1 11 37
M  V30 42 1 14 38
M  V30 43 1 15 39
M  V30 44 1 16 40
M  V30 45 1 16 41
M  V30 46 1 17 42
M  V30 47 1 18 43
M  V30 48 1 18 44
M  V30 49 1 20 45
M  V30 50 1 21 46
M  V30 51 1 22 47
M  V30 52 1 23 48
M  V30 53 1 25 49
M  V30 54 1 26 50
M  V30 55 1 28 51
M  V30 56 1 29 52
M  V30 END BOND
M  V30 END CTAB
M  END
>  <Dataset>  (85) 
ChEMBL_Kinases

>  <Ligand_Instance>  (85) 
nan

>  <PDB_ID>  (85) 
nan

>  <Standardized_SMILES>  (85) 
Cc1cc(-c2n[nH]c3cc(NC(=O)NC4CNCc5ccccc54)ccc23)ccn1

>  <Name>  (85) 
nan

>  <Pocket>  (85) 
nan

>  <ATP_Site>  (85) 
nan

>  <Peripheral>  (85) 
nan

>  <Num_H_Atoms_ProtBoundConf>  (85) 
nan

>  <Num_Resolved_Atoms>  (85) 
nan

>  <Num_Not_Resolved_Atoms>  (85) 
nan

$$$$
CHEMBL3658850
     RDKit          3D

  0  0  0  0  0  0  0  0  0  0999 V3000
M  V30 BEGIN CTAB
M  V30 COUNTS 48 52 0 0 0
M  V30 BEGIN ATOM
M  V30 1 C 0.239165 -8.282353 2.560700 0
M  V30 2 C 0.420683 -7.262314 1.493419 0
M  V30 3 C 1.193470 -6.124688 1.631080 0
M  V30 4 C 1.343779 -5.193257 0.616561 0
M  V30 5 C 2.174272 -4.000000 0.807032 0
M  V30 6 N 3.405599 -3.979354 1.369720 0
M  V30 7 N 3.895778 -2.737560 1.395195 0
M  V30 8 C 2.942540 -1.964553 0.832614 0
M  V30 9 C 2.952019 -0.597224 0.616713 0
M  V30 10 C 1.844850 -0.024723 0.015474 0
M  V30 11 N 1.657884 1.354039 -0.292757 0
M  V30 12 C 1.046633 2.224691 0.676485 0
M  V30 13 O 0.679133 1.771099 1.788348 0
M  V30 14 N 0.855415 3.620798 0.371333 0
M  V30 15 C 0.241915 4.531853 1.322700 0
M  V30 16 C -1.158039 4.085723 1.660250 0
M  V30 17 C -1.392947 3.445401 2.894649 0
M  V30 18 S -3.190479 3.097764 2.847092 0
M  V30 19 C -3.468443 3.802006 1.259154 0
M  V30 20 C -4.652250 3.895015 0.556962 0
M  V30 21 C -4.657646 4.489426 -0.684043 0
M  V30 22 C -3.434540 4.946444 -1.111418 0
M  V30 23 Cl -3.435146 5.713384 -2.708740 0
M  V30 24 C -2.257161 4.851863 -0.409137 0
M  V30 25 C -2.243668 4.258714 0.833023 0
M  V30 26 N 0.762970 -0.768721 -0.362098 0
M  V30 27 C 0.749989 -2.119028 -0.150533 0
M  V30 28 C 1.841162 -2.709500 0.446200 0
M  V30 29 C 0.678275 -5.449858 -0.562047 0
M  V30 30 C -0.083704 -6.600214 -0.655731 0
M  V30 31 N -0.221762 -7.496202 0.335398 0
M  V30 32 H -0.776465 -8.341891 2.962182 0
M  V30 33 H 0.548937 -9.286891 2.209992 0
M  V30 34 H 0.928973 -8.026431 3.394400 0
M  V30 35 H 1.702550 -5.961452 2.581292 0
M  V30 36 H 4.803362 -2.402487 1.758443 0
M  V30 37 H 3.747771 0.090028 0.871599 0
M  V30 38 H 1.958184 1.724172 -1.201407 0
M  V30 39 H 1.199270 3.906660 -0.593207 0
M  V30 40 H 0.214580 5.514260 0.798452 0
M  V30 41 H 0.827748 4.554709 2.240988 0
M  V30 42 H -0.731130 3.220237 3.648950 0
M  V30 43 H -5.531559 3.500705 1.001420 0
M  V30 44 H -5.567825 4.574439 -1.252528 0
M  V30 45 H -1.374827 5.273538 -0.909240 0
M  V30 46 H -0.091706 -2.733367 -0.438273 0
M  V30 47 H 0.752109 -4.766675 -1.392277 0
M  V30 48 H -0.595694 -6.785438 -1.579655 0
M  V30 END ATOM
M  V30 BEGIN BOND
M  V30 1 1 1 2
M  V30 2 2 2 3
M  V30 3 1 3 4
M  V30 4 1 4 5
M  V30 5 2 5 6
M  V30 6 1 6 7
M  V30 7 1 7 8
M  V30 8 2 8 9
M  V30 9 1 9 10
M  V30 10 1 10 11
M  V30 11 1 11 12
M  V30 12 2 12 13
M  V30 13 1 12 14
M  V30 14 1 14 15
M  V30 15 1 15 16
M  V30 16 2 16 17
M  V30 17 1 17 18
M  V30 18 1 18 19
M  V30 19 2 19 20
M  V30 20 1 20 21
M  V30 21 2 21 22
M  V30 22 1 22 23
M  V30 23 1 22 24
M  V30 24 2 24 25
M  V30 25 2 10 26
M  V30 26 1 26 27
M  V30 27 2 27 28
M  V30 28 2 4 29
M  V30 29 1 29 30
M  V30 30 2 30 31
M  V30 31 1 31 2
M  V30 32 1 28 5
M  V30 33 1 28 8
M  V30 34 1 25 16
M  V30 35 1 25 19
M  V30 36 1 1 32
M  V30 37 1 1 33
M  V30 38 1 1 34
M  V30 39 1 3 35
M  V30 40 1 7 36
M  V30 41 1 9 37
M  V30 42 1 11 38
M  V30 43 1 14 39
M  V30 44 1 15 40
M  V30 45 1 15 41
M  V30 46 1 17 42
M  V30 47 1 20 43
M  V30 48 1 21 44
M  V30 49 1 24 45
M  V30 50 1 27 46
M  V30 51 1 29 47
M  V30 52 1 30 48
M  V30 END BOND
M  V30 END CTAB
M  END
>  <Dataset>  (86) 
ChEMBL_Kinases

>  <Ligand_Instance>  (86) 
nan

>  <PDB_ID>  (86) 
nan

>  <Standardized_SMILES>  (86) 
Cc1cc(-c2n[nH]c3cc(NC(=O)NCc4csc5ccc(Cl)cc45)ncc23)ccn1

>  <Name>  (86) 
nan

>  <Pocket>  (86) 
nan

>  <ATP_Site>  (86) 
nan

>  <Peripheral>  (86) 
nan

>  <Num_H_Atoms_ProtBoundConf>  (86) 
nan

>  <Num_Resolved_Atoms>  (86) 
nan

>  <Num_Not_Resolved_Atoms>  (86) 
nan

$$$$
CHEMBL3658832
     RDKit          3D

  0  0  0  0  0  0  0  0  0  0999 V3000
M  V30 BEGIN CTAB
M  V30 COUNTS 44 47 0 0 0
M  V30 BEGIN ATOM
M  V30 1 C 0.095137 -7.512299 0.875585 0
M  V30 2 C -0.124764 -6.309574 0.030135 0
M  V30 3 C 0.848967 -5.324030 -0.028196 0
M  V30 4 C 0.560590 -4.231478 -0.846319 0
M  V30 5 C 1.519619 -3.129687 -0.984274 0
M  V30 6 N 2.847020 -3.230656 -1.174388 0
M  V30 7 N 3.422856 -2.041757 -1.257818 0
M  V30 8 C 2.402460 -1.152059 -1.112198 0
M  V30 9 C 2.506290 0.223792 -1.127776 0
M  V30 10 C 1.336308 0.936771 -0.960209 0
M  V30 11 N 1.139473 2.362235 -0.928538 0
M  V30 12 C 1.233683 2.960811 0.371100 0
M  V30 13 O 1.480563 2.236660 1.392914 0
M  V30 14 N 1.074077 4.320142 0.642810 0
M  V30 15 C 1.168270 4.904460 1.978966 0
M  V30 16 C -0.062631 4.626654 2.766725 0
M  V30 17 C -0.332178 3.556629 3.594283 0
M  V30 18 C -1.626266 3.832663 4.046497 0
M  V30 19 C -2.374808 2.952938 4.983565 0
M  V30 20 O -2.008197 4.942990 3.511142 0
M  V30 21 N -1.112898 5.471172 2.730631 0
M  V30 22 N 0.141508 0.299797 -0.788627 0
M  V30 23 C 0.043469 -1.046139 -0.773961 0
M  V30 24 C 1.191875 -1.790782 -0.938235 0
M  V30 25 C -0.643865 -4.217149 -1.518298 0
M  V30 26 C -1.596563 -5.232853 -1.430141 0
M  V30 27 N -1.279446 -6.273403 -0.627748 0
M  V30 28 H 0.583350 -8.334002 0.296859 0
M  V30 29 H -0.884229 -7.900907 1.267690 0
M  V30 30 H 0.754180 -7.260643 1.745308 0
M  V30 31 H 1.777474 -5.382838 0.518851 0
M  V30 32 H 4.434203 -1.823260 -1.402946 0
M  V30 33 H 3.361751 0.842570 -1.250969 0
M  V30 34 H 0.934228 3.024447 -1.717785 0
M  V30 35 H 0.873078 4.970157 -0.159356 0
M  V30 36 H 1.430107 5.970936 1.927073 0
M  V30 37 H 1.996355 4.364589 2.481244 0
M  V30 38 H 0.316267 2.723319 3.821117 0
M  V30 39 H -2.733657 3.580714 5.832254 0
M  V30 40 H -1.733616 2.153369 5.400612 0
M  V30 41 H -3.207403 2.427646 4.465105 0
M  V30 42 H -0.892921 -1.565290 -0.638291 0
M  V30 43 H -0.928916 -3.402233 -2.168499 0
M  V30 44 H -2.532916 -5.195239 -1.968307 0
M  V30 END ATOM
M  V30 BEGIN BOND
M  V30 1 1 1 2
M  V30 2 2 2 3
M  V30 3 1 3 4
M  V30 4 1 4 5
M  V30 5 2 5 6
M  V30 6 1 6 7
M  V30 7 1 7 8
M  V30 8 2 8 9
M  V30 9 1 9 10
M  V30 10 1 10 11
M  V30 11 1 11 12
M  V30 12 2 12 13
M  V30 13 1 12 14
M  V30 14 1 14 15
M  V30 15 1 15 16
M  V30 16 1 16 17
M  V30 17 2 17 18
M  V30 18 1 18 19
M  V30 19 1 18 20
M  V30 20 1 20 21
M  V30 21 2 10 22
M  V30 22 1 22 23
M  V30 23 2 23 24
M  V30 24 2 4 25
M  V30 25 1 25 26
M  V30 26 2 26 27
M  V30 27 1 27 2
M  V30 28 1 24 5
M  V30 29 1 24 8
M  V30 30 2 21 16
M  V30 31 1 1 28
M  V30 32 1 1 29
M  V30 33 1 1 30
M  V30 34 1 3 31
M  V30 35 1 7 32
M  V30 36 1 9 33
M  V30 37 1 11 34
M  V30 38 1 14 35
M  V30 39 1 15 36
M  V30 40 1 15 37
M  V30 41 1 17 38
M  V30 42 1 19 39
M  V30 43 1 19 40
M  V30 44 1 19 41
M  V30 45 1 23 42
M  V30 46 1 25 43
M  V30 47 1 26 44
M  V30 END BOND
M  V30 END CTAB
M  END
>  <Dataset>  (87) 
ChEMBL_Kinases

>  <Ligand_Instance>  (87) 
nan

>  <PDB_ID>  (87) 
nan

>  <Standardized_SMILES>  (87) 
Cc1cc(-c2n[nH]c3cc(NC(=O)NCc4cc(C)on4)ncc23)ccn1

>  <Name>  (87) 
nan

>  <Pocket>  (87) 
nan

>  <ATP_Site>  (87) 
nan

>  <Peripheral>  (87) 
nan

>  <Num_H_Atoms_ProtBoundConf>  (87) 
nan

>  <Num_Resolved_Atoms>  (87) 
nan

>  <Num_Not_Resolved_Atoms>  (87) 
nan

$$$$
CHEMBL3658833
     RDKit          3D

  0  0  0  0  0  0  0  0  0  0999 V3000
M  V30 BEGIN CTAB
M  V30 COUNTS 48 51 0 0 0
M  V30 BEGIN ATOM
M  V30 1 C 2.392129 -6.694087 2.104481 0
M  V30 2 C 1.909983 -5.788871 0.984596 0
M  V30 3 N 2.926532 -4.915588 0.478235 0
M  V30 4 C 3.146461 -3.684676 0.988016 0
M  V30 5 C 4.179480 -3.099011 0.292389 0
M  V30 6 C 4.903712 -1.807622 0.329449 0
M  V30 7 N 4.288572 -0.801335 -0.540500 0
M  V30 8 C 3.094592 -0.119988 -0.173688 0
M  V30 9 O 2.686601 -0.514584 0.970109 0
M  V30 10 N 2.468675 0.865178 -1.000574 0
M  V30 11 C 1.276924 1.370199 -0.353060 0
M  V30 12 C 1.156934 2.445829 0.502622 0
M  V30 13 C -0.103494 2.725574 0.995980 0
M  V30 14 N -0.449113 3.723001 1.839582 0
M  V30 15 N -1.741180 3.579335 2.012693 0
M  V30 16 C -2.247825 2.543154 1.326514 0
M  V30 17 C -3.630437 2.080007 1.271015 0
M  V30 18 C -3.855234 0.711943 1.403796 0
M  V30 19 C -5.138800 0.178054 1.360128 0
M  V30 20 N -6.210476 0.989129 1.185448 0
M  V30 21 C -5.998138 2.320145 1.056113 0
M  V30 22 C -7.188181 3.172537 0.868586 0
M  V30 23 C -4.735231 2.887129 1.094265 0
M  V30 24 C -1.198004 1.950195 0.639475 0
M  V30 25 C -1.027676 0.881997 -0.221615 0
M  V30 26 N 0.210192 0.595338 -0.715376 0
M  V30 27 C 4.558170 -4.048894 -0.655240 0
M  V30 28 N 3.781497 -5.156078 -0.528576 0
M  V30 29 H 3.105136 -7.437647 1.713626 0
M  V30 30 H 2.868012 -6.134348 2.931848 0
M  V30 31 H 1.506883 -7.241332 2.480167 0
M  V30 32 H 1.022162 -5.206107 1.338076 0
M  V30 33 H 1.548229 -6.480480 0.174465 0
M  V30 34 H 2.678445 -3.134408 1.787572 0
M  V30 35 H 4.844364 -1.379308 1.373554 0
M  V30 36 H 5.975049 -1.915676 0.119300 0
M  V30 37 H 4.748330 -0.577347 -1.466573 0
M  V30 38 H 2.946115 1.070359 -1.921379 0
M  V30 39 H 2.081082 2.948835 0.687993 0
M  V30 40 H 0.190444 4.442393 2.253285 0
M  V30 41 H -3.099155 -0.043340 1.549755 0
M  V30 42 H -5.358704 -0.876074 1.459486 0
M  V30 43 H -7.629824 3.531638 1.839795 0
M  V30 44 H -6.997225 4.052903 0.216666 0
M  V30 45 H -8.010821 2.599544 0.348203 0
M  V30 46 H -4.561358 3.951054 0.991681 0
M  V30 47 H -1.895692 0.295237 -0.483525 0
M  V30 48 H 5.325889 -4.021119 -1.414133 0
M  V30 END ATOM
M  V30 BEGIN BOND
M  V30 1 1 1 2
M  V30 2 1 2 3
M  V30 3 1 3 4
M  V30 4 2 4 5
M  V30 5 1 5 6
M  V30 6 1 6 7
M  V30 7 1 7 8
M  V30 8 2 8 9
M  V30 9 1 8 10
M  V30 10 1 10 11
M  V30 11 2 11 12
M  V30 12 1 12 13
M  V30 13 1 13 14
M  V30 14 1 14 15
M  V30 15 2 15 16
M  V30 16 1 16 17
M  V30 17 2 17 18
M  V30 18 1 18 19
M  V30 19 2 19 20
M  V30 20 1 20 21
M  V30 21 1 21 22
M  V30 22 2 21 23
M  V30 23 1 16 24
M  V30 24 1 24 25
M  V30 25 2 25 26
M  V30 26 1 5 27
M  V30 27 2 27 28
M  V30 28 1 28 3
M  V30 29 1 26 11
M  V30 30 2 24 13
M  V30 31 1 23 17
M  V30 32 1 1 29
M  V30 33 1 1 30
M  V30 34 1 1 31
M  V30 35 1 2 32
M  V30 36 1 2 33
M  V30 37 1 4 34
M  V30 38 1 6 35
M  V30 39 1 6 36
M  V30 40 1 7 37
M  V30 41 1 10 38
M  V30 42 1 12 39
M  V30 43 1 14 40
M  V30 44 1 18 41
M  V30 45 1 19 42
M  V30 46 1 22 43
M  V30 47 1 22 44
M  V30 48 1 22 45
M  V30 49 1 23 46
M  V30 50 1 25 47
M  V30 51 1 27 48
M  V30 END BOND
M  V30 END CTAB
M  END
>  <Dataset>  (88) 
ChEMBL_Kinases

>  <Ligand_Instance>  (88) 
nan

>  <PDB_ID>  (88) 
nan

>  <Standardized_SMILES>  (88) 
CCn1cc(CNC(=O)Nc2cc3[nH]nc(-c4ccnc(C)c4)c3cn2)cn1

>  <Name>  (88) 
nan

>  <Pocket>  (88) 
nan

>  <ATP_Site>  (88) 
nan

>  <Peripheral>  (88) 
nan

>  <Num_H_Atoms_ProtBoundConf>  (88) 
nan

>  <Num_Resolved_Atoms>  (88) 
nan

>  <Num_Not_Resolved_Atoms>  (88) 
nan

$$$$
CHEMBL3658834
     RDKit          3D

  0  0  0  0  0  0  0  0  0  0999 V3000
M  V30 BEGIN CTAB
M  V30 COUNTS 45 48 0 0 0
M  V30 BEGIN ATOM
M  V30 1 C 3.324507 -5.802893 3.259664 0
M  V30 2 O 3.627530 -4.420853 3.171520 0
M  V30 3 C 4.326600 -3.880314 2.102666 0
M  V30 4 C 4.625841 -2.540348 2.007496 0
M  V30 5 C 5.324484 -2.283632 0.846270 0
M  V30 6 C 5.888254 -1.041310 0.246204 0
M  V30 7 N 4.878822 -0.483310 -0.631296 0
M  V30 8 C 3.588916 -0.047603 -0.298918 0
M  V30 9 O 3.190873 -0.118906 0.890079 0
M  V30 10 N 2.651059 0.485105 -1.197377 0
M  V30 11 C 1.359568 0.910089 -0.805159 0
M  V30 12 C 0.975091 2.148405 -0.385859 0
M  V30 13 C -0.361006 2.349571 -0.044947 0
M  V30 14 N -0.994998 3.451365 0.390654 0
M  V30 15 N -2.268895 3.113820 0.571661 0
M  V30 16 C -2.470932 1.814820 0.261468 0
M  V30 17 C -3.734420 1.082771 0.332912 0
M  V30 18 C -4.222068 0.229879 -0.634215 0
M  V30 19 C -5.422113 -0.415271 -0.478901 0
M  V30 20 N -6.167674 -0.236623 0.628188 0
M  V30 21 C -5.765610 0.578296 1.620407 0
M  V30 22 C -6.574697 0.788197 2.849776 0
M  V30 23 C -4.553275 1.221283 1.448208 0
M  V30 24 C -1.239523 1.289905 -0.145121 0
M  V30 25 C -0.857824 0.046656 -0.565170 0
M  V30 26 N 0.453949 -0.085258 -0.882028 0
M  V30 27 O 5.426649 -3.478557 0.273882 0
M  V30 28 N 4.861824 -4.394339 0.981031 0
M  V30 29 H 2.271926 -5.995457 3.495919 0
M  V30 30 H 3.995012 -6.188348 4.079386 0
M  V30 31 H 3.601643 -6.322740 2.319585 0
M  V30 32 H 4.376120 -1.768670 2.710687 0
M  V30 33 H 6.753612 -1.319238 -0.375939 0
M  V30 34 H 6.158241 -0.336507 1.061809 0
M  V30 35 H 5.069792 -0.359865 -1.665083 0
M  V30 36 H 2.942513 0.564812 -2.213187 0
M  V30 37 H 1.731446 2.885603 -0.347267 0
M  V30 38 H -0.567097 4.403651 0.558122 0
M  V30 39 H -3.613308 0.094775 -1.519391 0
M  V30 40 H -5.785707 -1.075784 -1.242881 0
M  V30 41 H -7.051306 -0.155891 3.185694 0
M  V30 42 H -7.298816 1.602677 2.639198 0
M  V30 43 H -5.888232 1.203698 3.627029 0
M  V30 44 H -4.189143 1.895873 2.236172 0
M  V30 45 H -1.548792 -0.782538 -0.642800 0
M  V30 END ATOM
M  V30 BEGIN BOND
M  V30 1 1 1 2
M  V30 2 1 2 3
M  V30 3 1 3 4
M  V30 4 2 4 5
M  V30 5 1 5 6
M  V30 6 1 6 7
M  V30 7 1 7 8
M  V30 8 2 8 9
M  V30 9 1 8 10
M  V30 10 1 10 11
M  V30 11 2 11 12
M  V30 12 1 12 13
M  V30 13 1 13 14
M  V30 14 1 14 15
M  V30 15 2 15 16
M  V30 16 1 16 17
M  V30 17 2 17 18
M  V30 18 1 18 19
M  V30 19 2 19 20
M  V30 20 1 20 21
M  V30 21 1 21 22
M  V30 22 2 21 23
M  V30 23 1 16 24
M  V30 24 1 24 25
M  V30 25 2 25 26
M  V30 26 1 5 27
M  V30 27 1 27 28
M  V30 28 2 28 3
M  V30 29 1 26 11
M  V30 30 2 24 13
M  V30 31 1 23 17
M  V30 32 1 1 29
M  V30 33 1 1 30
M  V30 34 1 1 31
M  V30 35 1 4 32
M  V30 36 1 6 33
M  V30 37 1 6 34
M  V30 38 1 7 35
M  V30 39 1 10 36
M  V30 40 1 12 37
M  V30 41 1 14 38
M  V30 42 1 18 39
M  V30 43 1 19 40
M  V30 44 1 22 41
M  V30 45 1 22 42
M  V30 46 1 22 43
M  V30 47 1 23 44
M  V30 48 1 25 45
M  V30 END BOND
M  V30 END CTAB
M  END
>  <Dataset>  (89) 
ChEMBL_Kinases

>  <Ligand_Instance>  (89) 
nan

>  <PDB_ID>  (89) 
nan

>  <Standardized_SMILES>  (89) 
COc1cc(CNC(=O)Nc2cc3[nH]nc(-c4ccnc(C)c4)c3cn2)on1

>  <Name>  (89) 
nan

>  <Pocket>  (89) 
nan

>  <ATP_Site>  (89) 
nan

>  <Peripheral>  (89) 
nan

>  <Num_H_Atoms_ProtBoundConf>  (89) 
nan

>  <Num_Resolved_Atoms>  (89) 
nan

>  <Num_Not_Resolved_Atoms>  (89) 
nan

$$$$
CHEMBL3658835
     RDKit          3D

  0  0  0  0  0  0  0  0  0  0999 V3000
M  V30 BEGIN CTAB
M  V30 COUNTS 43 46 0 0 0
M  V30 BEGIN ATOM
M  V30 1 C -1.539614 -5.724461 0.976883 0
M  V30 2 C -0.529173 -5.516685 -0.104257 0
M  V30 3 C 0.220923 -4.361332 -0.157919 0
M  V30 4 C 1.171151 -4.073483 -1.105470 0
M  V30 5 C 1.939326 -2.834478 -1.118719 0
M  V30 6 N 3.268416 -2.744895 -1.318819 0
M  V30 7 N 3.642794 -1.461140 -1.266642 0
M  V30 8 C 2.542440 -0.722900 -1.030915 0
M  V30 9 C 2.416483 0.645811 -0.893177 0
M  V30 10 C 1.151858 1.145503 -0.652336 0
M  V30 11 N 0.814488 2.520101 -0.481028 0
M  V30 12 C 0.861842 3.019438 0.851596 0
M  V30 13 O 1.183188 2.307279 1.858720 0
M  V30 14 N 0.560304 4.358029 1.220195 0
M  V30 15 C 0.656600 4.711257 2.632450 0
M  V30 16 C -0.271403 3.883560 3.431139 0
M  V30 17 N -0.326986 2.877839 4.011820 0
M  V30 18 C -1.373580 2.393917 4.662545 0
M  V30 19 N -1.248187 1.118782 5.327488 0
M  V30 20 C -2.551810 3.124233 4.684555 0
M  V30 21 S -2.009207 4.622880 3.651867 0
M  V30 22 N 0.089053 0.299247 -0.559133 0
M  V30 23 C 0.199310 -1.029035 -0.690929 0
M  V30 24 C 1.447422 -1.557617 -0.931679 0
M  V30 25 C 1.394614 -5.033144 -2.096851 0
M  V30 26 C 0.638968 -6.193895 -2.040432 0
M  V30 27 N -0.279362 -6.415407 -1.082295 0
M  V30 28 H -1.049706 -6.136644 1.902950 0
M  V30 29 H -2.046441 -4.745783 1.220362 0
M  V30 30 H -2.308886 -6.423823 0.616038 0
M  V30 31 H 0.018171 -3.637899 0.631409 0
M  V30 32 H 4.626769 -1.116634 -1.390793 0
M  V30 33 H 3.218026 1.369641 -0.956085 0
M  V30 34 H 0.535706 3.209713 -1.214076 0
M  V30 35 H 0.281433 5.031372 0.454601 0
M  V30 36 H 1.674064 4.482035 2.958604 0
M  V30 37 H 0.504567 5.796703 2.789391 0
M  V30 38 H -0.511079 0.859371 6.025441 0
M  V30 39 H -1.861815 0.272536 5.217762 0
M  V30 40 H -3.438231 2.857742 5.155807 0
M  V30 41 H -0.648209 -1.695609 -0.615893 0
M  V30 42 H 2.111611 -4.900790 -2.875302 0
M  V30 43 H 0.799127 -6.960717 -2.810084 0
M  V30 END ATOM
M  V30 BEGIN BOND
M  V30 1 1 1 2
M  V30 2 2 2 3
M  V30 3 1 3 4
M  V30 4 1 4 5
M  V30 5 2 5 6
M  V30 6 1 6 7
M  V30 7 1 7 8
M  V30 8 2 8 9
M  V30 9 1 9 10
M  V30 10 1 10 11
M  V30 11 1 11 12
M  V30 12 2 12 13
M  V30 13 1 12 14
M  V30 14 1 14 15
M  V30 15 1 15 16
M  V30 16 2 16 17
M  V30 17 1 17 18
M  V30 18 1 18 19
M  V30 19 2 18 20
M  V30 20 1 20 21
M  V30 21 2 10 22
M  V30 22 1 22 23
M  V30 23 2 23 24
M  V30 24 2 4 25
M  V30 25 1 25 26
M  V30 26 2 26 27
M  V30 27 1 27 2
M  V30 28 1 24 5
M  V30 29 1 24 8
M  V30 30 1 21 16
M  V30 31 1 1 28
M  V30 32 1 1 29
M  V30 33 1 1 30
M  V30 34 1 3 31
M  V30 35 1 7 32
M  V30 36 1 9 33
M  V30 37 1 11 34
M  V30 38 1 14 35
M  V30 39 1 15 36
M  V30 40 1 15 37
M  V30 41 1 19 38
M  V30 42 1 19 39
M  V30 43 1 20 40
M  V30 44 1 23 41
M  V30 45 1 25 42
M  V30 46 1 26 43
M  V30 END BOND
M  V30 END CTAB
M  END
>  <Dataset>  (90) 
ChEMBL_Kinases

>  <Ligand_Instance>  (90) 
nan

>  <PDB_ID>  (90) 
nan

>  <Standardized_SMILES>  (90) 
Cc1cc(-c2n[nH]c3cc(NC(=O)NCc4nc(N)cs4)ncc23)ccn1

>  <Name>  (90) 
nan

>  <Pocket>  (90) 
nan

>  <ATP_Site>  (90) 
nan

>  <Peripheral>  (90) 
nan

>  <Num_H_Atoms_ProtBoundConf>  (90) 
nan

>  <Num_Resolved_Atoms>  (90) 
nan

>  <Num_Not_Resolved_Atoms>  (90) 
nan

$$$$
CHEMBL3658836
     RDKit          3D

  0  0  0  0  0  0  0  0  0  0999 V3000
M  V30 BEGIN CTAB
M  V30 COUNTS 43 46 0 0 0
M  V30 BEGIN ATOM
M  V30 1 C -1.959278 -5.722721 1.294037 0
M  V30 2 C -0.828316 -5.708126 0.314582 0
M  V30 3 C 0.033866 -4.644717 0.269236 0
M  V30 4 C 1.095124 -4.537053 -0.587226 0
M  V30 5 C 2.023133 -3.420923 -0.654981 0
M  V30 6 N 3.371925 -3.454810 -0.743327 0
M  V30 7 N 3.869437 -2.217776 -0.783544 0
M  V30 8 C 2.858697 -1.337356 -0.722562 0
M  V30 9 C 2.828374 0.042432 -0.728994 0
M  V30 10 C 1.612403 0.695028 -0.653147 0
M  V30 11 N 1.410783 2.107959 -0.648523 0
M  V30 12 C 1.378039 2.889628 0.539923 0
M  V30 13 O 1.542152 2.238934 1.610538 0
M  V30 14 N 1.180723 4.275645 0.551193 0
M  V30 15 C 1.183064 4.872031 1.869698 0
M  V30 16 C 0.117499 4.327901 2.758546 0
M  V30 17 N 0.054302 3.398828 3.544105 0
M  V30 18 N -0.996184 3.098795 4.227962 0
M  V30 19 C -2.050730 3.730393 4.152256 0
M  V30 20 C -3.352620 3.502371 4.882113 0
M  V30 21 S -1.579872 4.993368 2.923620 0
M  V30 22 N 0.451531 -0.022658 -0.572548 0
M  V30 23 C 0.498585 -1.387284 -0.567306 0
M  V30 24 C 1.697628 -2.079562 -0.641803 0
M  V30 25 C 1.290093 -5.590330 -1.459756 0
M  V30 26 C 0.419897 -6.654252 -1.407743 0
M  V30 27 N -0.622646 -6.721867 -0.540956 0
M  V30 28 H -1.579720 -5.508310 2.322531 0
M  V30 29 H -2.729948 -4.981687 1.055901 0
M  V30 30 H -2.430394 -6.714619 1.328230 0
M  V30 31 H -0.138193 -3.838372 0.957138 0
M  V30 32 H 4.890314 -1.950598 -0.852197 0
M  V30 33 H 3.692252 0.657326 -0.789472 0
M  V30 34 H 1.273402 2.664601 -1.519007 0
M  V30 35 H 1.050668 4.773539 -0.335717 0
M  V30 36 H 2.113422 4.606258 2.366309 0
M  V30 37 H 1.154552 5.979978 1.824496 0
M  V30 38 H -3.338126 3.980575 5.869510 0
M  V30 39 H -3.469666 2.416063 4.877096 0
M  V30 40 H -4.199618 3.921914 4.299638 0
M  V30 41 H -0.441393 -1.925591 -0.502300 0
M  V30 42 H 2.109311 -5.610185 -2.189497 0
M  V30 43 H 0.490496 -7.524152 -2.049262 0
M  V30 END ATOM
M  V30 BEGIN BOND
M  V30 1 1 1 2
M  V30 2 2 2 3
M  V30 3 1 3 4
M  V30 4 1 4 5
M  V30 5 2 5 6
M  V30 6 1 6 7
M  V30 7 1 7 8
M  V30 8 2 8 9
M  V30 9 1 9 10
M  V30 10 1 10 11
M  V30 11 1 11 12
M  V30 12 2 12 13
M  V30 13 1 12 14
M  V30 14 1 14 15
M  V30 15 1 15 16
M  V30 16 2 16 17
M  V30 17 1 17 18
M  V30 18 2 18 19
M  V30 19 1 19 20
M  V30 20 1 19 21
M  V30 21 2 10 22
M  V30 22 1 22 23
M  V30 23 2 23 24
M  V30 24 2 4 25
M  V30 25 1 25 26
M  V30 26 2 26 27
M  V30 27 1 27 2
M  V30 28 1 24 5
M  V30 29 1 24 8
M  V30 30 1 21 16
M  V30 31 1 1 28
M  V30 32 1 1 29
M  V30 33 1 1 30
M  V30 34 1 3 31
M  V30 35 1 7 32
M  V30 36 1 9 33
M  V30 37 1 11 34
M  V30 38 1 14 35
M  V30 39 1 15 36
M  V30 40 1 15 37
M  V30 41 1 20 38
M  V30 42 1 20 39
M  V30 43 1 20 40
M  V30 44 1 23 41
M  V30 45 1 25 42
M  V30 46 1 26 43
M  V30 END BOND
M  V30 END CTAB
M  END
>  <Dataset>  (91) 
ChEMBL_Kinases

>  <Ligand_Instance>  (91) 
nan

>  <PDB_ID>  (91) 
nan

>  <Standardized_SMILES>  (91) 
Cc1cc(-c2n[nH]c3cc(NC(=O)NCc4nnc(C)s4)ncc23)ccn1

>  <Name>  (91) 
nan

>  <Pocket>  (91) 
nan

>  <ATP_Site>  (91) 
nan

>  <Peripheral>  (91) 
nan

>  <Num_H_Atoms_ProtBoundConf>  (91) 
nan

>  <Num_Resolved_Atoms>  (91) 
nan

>  <Num_Not_Resolved_Atoms>  (91) 
nan

$$$$
CHEMBL3658837
     RDKit          3D

  0  0  0  0  0  0  0  0  0  0999 V3000
M  V30 BEGIN CTAB
M  V30 COUNTS 42 45 0 0 0
M  V30 BEGIN ATOM
M  V30 1 C 0.797654 -5.977373 2.268875 0
M  V30 2 C 1.657987 -5.612827 1.103754 0
M  V30 3 C 1.367431 -4.557002 0.301827 0
M  V30 4 C 2.196619 -4.244047 -0.780608 0
M  V30 5 C 1.837428 -3.095884 -1.604693 0
M  V30 6 N 1.796828 -2.973741 -2.958405 0
M  V30 7 N 1.418831 -1.761648 -3.313854 0
M  V30 8 C 1.181308 -0.991826 -2.219214 0
M  V30 9 C 0.773892 0.319105 -1.994634 0
M  V30 10 C 0.638666 0.764105 -0.702863 0
M  V30 11 N 0.223537 2.097973 -0.435771 0
M  V30 12 C 0.100145 2.531931 0.910295 0
M  V30 13 O 0.370489 1.694778 1.821951 0
M  V30 14 N -0.303911 3.834217 1.272622 0
M  V30 15 C -0.463351 4.383048 2.601870 0
M  V30 16 C -1.708068 3.928723 3.277600 0
M  V30 17 C -2.902163 4.579928 3.187086 0
M  V30 18 C -3.993737 4.047426 3.879555 0
M  V30 19 S -3.329951 2.530194 4.722612 0
M  V30 20 C -1.648562 2.703690 4.100814 0
M  V30 21 N 0.904981 -0.082742 0.306699 0
M  V30 22 C 1.298913 -1.351034 0.103440 0
M  V30 23 C 1.450226 -1.848459 -1.158237 0
M  V30 24 C 3.297844 -5.045383 -0.985363 0
M  V30 25 C 3.597468 -6.126884 -0.166182 0
M  V30 26 N 2.734350 -6.348651 0.855493 0
M  V30 27 H -0.111284 -6.429271 1.869874 0
M  V30 28 H 0.480178 -5.060491 2.810162 0
M  V30 29 H 1.322011 -6.625940 2.988500 0
M  V30 30 H 0.458408 -4.004428 0.575295 0
M  V30 31 H 1.308426 -1.413355 -4.284568 0
M  V30 32 H 0.578303 0.942144 -2.856730 0
M  V30 33 H 0.012601 2.749781 -1.221961 0
M  V30 34 H -0.504110 4.447582 0.435291 0
M  V30 35 H 0.433976 4.090961 3.186576 0
M  V30 36 H -0.428760 5.489834 2.529302 0
M  V30 37 H -3.033857 5.475885 2.610681 0
M  V30 38 H -5.018819 4.480617 3.888161 0
M  V30 39 H -0.814949 2.112594 4.257767 0
M  V30 40 H 1.473799 -1.897243 1.018911 0
M  V30 41 H 3.943989 -4.805061 -1.824192 0
M  V30 42 H 4.470126 -6.743773 -0.346023 0
M  V30 END ATOM
M  V30 BEGIN BOND
M  V30 1 1 1 2
M  V30 2 2 2 3
M  V30 3 1 3 4
M  V30 4 1 4 5
M  V30 5 2 5 6
M  V30 6 1 6 7
M  V30 7 1 7 8
M  V30 8 2 8 9
M  V30 9 1 9 10
M  V30 10 1 10 11
M  V30 11 1 11 12
M  V30 12 2 12 13
M  V30 13 1 12 14
M  V30 14 1 14 15
M  V30 15 1 15 16
M  V30 16 1 16 17
M  V30 17 2 17 18
M  V30 18 1 18 19
M  V30 19 1 19 20
M  V30 20 2 10 21
M  V30 21 1 21 22
M  V30 22 2 22 23
M  V30 23 2 4 24
M  V30 24 1 24 25
M  V30 25 2 25 26
M  V30 26 1 26 2
M  V30 27 1 23 5
M  V30 28 1 23 8
M  V30 29 2 20 16
M  V30 30 1 1 27
M  V30 31 1 1 28
M  V30 32 1 1 29
M  V30 33 1 3 30
M  V30 34 1 7 31
M  V30 35 1 9 32
M  V30 36 1 11 33
M  V30 37 1 14 34
M  V30 38 1 15 35
M  V30 39 1 15 36
M  V30 40 1 17 37
M  V30 41 1 18 38
M  V30 42 1 20 39
M  V30 43 1 22 40
M  V30 44 1 24 41
M  V30 45 1 25 42
M  V30 END BOND
M  V30 END CTAB
M  END
>  <Dataset>  (92) 
ChEMBL_Kinases

>  <Ligand_Instance>  (92) 
nan

>  <PDB_ID>  (92) 
nan

>  <Standardized_SMILES>  (92) 
Cc1cc(-c2n[nH]c3cc(NC(=O)NCc4ccsc4)ncc23)ccn1

>  <Name>  (92) 
nan

>  <Pocket>  (92) 
nan

>  <ATP_Site>  (92) 
nan

>  <Peripheral>  (92) 
nan

>  <Num_H_Atoms_ProtBoundConf>  (92) 
nan

>  <Num_Resolved_Atoms>  (92) 
nan

>  <Num_Not_Resolved_Atoms>  (92) 
nan

$$$$
CHEMBL3658838
     RDKit          3D

  0  0  0  0  0  0  0  0  0  0999 V3000
M  V30 BEGIN CTAB
M  V30 COUNTS 41 44 0 0 0
M  V30 BEGIN ATOM
M  V30 1 C 0.060882 -5.730117 2.391398 0
M  V30 2 C 0.490739 -5.656716 0.970687 0
M  V30 3 C 0.949059 -4.436068 0.463030 0
M  V30 4 C 1.378366 -4.254944 -0.857784 0
M  V30 5 C 1.820138 -2.912633 -1.226687 0
M  V30 6 N 2.925827 -2.542909 -1.898502 0
M  V30 7 N 2.960613 -1.206450 -2.037077 0
M  V30 8 C 1.863774 -0.684720 -1.449842 0
M  V30 9 C 1.448371 0.626665 -1.328057 0
M  V30 10 C 0.253021 0.895269 -0.664018 0
M  V30 11 N -0.330701 2.178157 -0.442196 0
M  V30 12 C -0.029264 2.944015 0.715456 0
M  V30 13 O 0.794081 2.386149 1.514398 0
M  V30 14 N -0.497925 4.203981 1.100697 0
M  V30 15 C 0.004456 4.740170 2.368426 0
M  V30 16 C -0.634854 4.101932 3.543766 0
M  V30 17 C -1.764761 4.588539 4.132688 0
M  V30 18 C -2.215365 3.776819 5.293483 0
M  V30 19 S -0.985357 2.407477 5.425117 0
M  V30 20 N 0.046186 2.894585 4.029808 0
M  V30 21 N -0.458828 -0.137814 -0.161931 0
M  V30 22 C -0.031463 -1.418197 -0.293158 0
M  V30 23 C 1.142823 -1.745909 -0.939336 0
M  V30 24 C 1.334044 -5.365338 -1.679961 0
M  V30 25 C 0.876930 -6.565789 -1.158608 0
M  V30 26 N 0.472781 -6.699557 0.116532 0
M  V30 27 H -0.702410 -6.529323 2.467399 0
M  V30 28 H 0.913769 -5.946052 3.086444 0
M  V30 29 H -0.384174 -4.768523 2.719577 0
M  V30 30 H 0.963297 -3.600814 1.166088 0
M  V30 31 H 3.717513 -0.662488 -2.522002 0
M  V30 32 H 1.963625 1.477449 -1.701258 0
M  V30 33 H -1.019022 2.743243 -1.022997 0
M  V30 34 H -1.180034 4.636661 0.414023 0
M  V30 35 H -0.173963 5.835918 2.426498 0
M  V30 36 H 1.099074 4.575929 2.365090 0
M  V30 37 H -2.275802 5.457728 3.802333 0
M  V30 38 H -3.120819 4.103968 5.823107 0
M  V30 39 H -0.649789 -2.198710 0.127925 0
M  V30 40 H 1.668062 -5.202621 -2.688586 0
M  V30 41 H 0.859934 -7.405014 -1.836889 0
M  V30 END ATOM
M  V30 BEGIN BOND
M  V30 1 1 1 2
M  V30 2 2 2 3
M  V30 3 1 3 4
M  V30 4 1 4 5
M  V30 5 2 5 6
M  V30 6 1 6 7
M  V30 7 1 7 8
M  V30 8 2 8 9
M  V30 9 1 9 10
M  V30 10 1 10 11
M  V30 11 1 11 12
M  V30 12 2 12 13
M  V30 13 1 12 14
M  V30 14 1 14 15
M  V30 15 1 15 16
M  V30 16 1 16 17
M  V30 17 2 17 18
M  V30 18 1 18 19
M  V30 19 1 19 20
M  V30 20 2 10 21
M  V30 21 1 21 22
M  V30 22 2 22 23
M  V30 23 2 4 24
M  V30 24 1 24 25
M  V30 25 2 25 26
M  V30 26 1 26 2
M  V30 27 1 23 5
M  V30 28 1 23 8
M  V30 29 2 20 16
M  V30 30 1 1 27
M  V30 31 1 1 28
M  V30 32 1 1 29
M  V30 33 1 3 30
M  V30 34 1 7 31
M  V30 35 1 9 32
M  V30 36 1 11 33
M  V30 37 1 14 34
M  V30 38 1 15 35
M  V30 39 1 15 36
M  V30 40 1 17 37
M  V30 41 1 18 38
M  V30 42 1 22 39
M  V30 43 1 24 40
M  V30 44 1 25 41
M  V30 END BOND
M  V30 END CTAB
M  END
>  <Dataset>  (93) 
ChEMBL_Kinases

>  <Ligand_Instance>  (93) 
nan

>  <PDB_ID>  (93) 
nan

>  <Standardized_SMILES>  (93) 
Cc1cc(-c2n[nH]c3cc(NC(=O)NCc4ccsn4)ncc23)ccn1

>  <Name>  (93) 
nan

>  <Pocket>  (93) 
nan

>  <ATP_Site>  (93) 
nan

>  <Peripheral>  (93) 
nan

>  <Num_H_Atoms_ProtBoundConf>  (93) 
nan

>  <Num_Resolved_Atoms>  (93) 
nan

>  <Num_Not_Resolved_Atoms>  (93) 
nan

$$$$
CHEMBL3658839
     RDKit          3D

  0  0  0  0  0  0  0  0  0  0999 V3000
M  V30 BEGIN CTAB
M  V30 COUNTS 44 47 0 0 0
M  V30 BEGIN ATOM
M  V30 1 C -0.211791 -7.807886 1.128494 0
M  V30 2 C -0.792298 -6.603047 0.442009 0
M  V30 3 C 0.025396 -5.619021 -0.027645 0
M  V30 4 C -0.549312 -4.519694 -0.657183 0
M  V30 5 C 0.373340 -3.504700 -1.136058 0
M  V30 6 N 1.509718 -3.783619 -1.809505 0
M  V30 7 N 2.142695 -2.655784 -2.114443 0
M  V30 8 C 1.428681 -1.618328 -1.644143 0
M  V30 9 C 1.602014 -0.239406 -1.669121 0
M  V30 10 C 0.644133 0.566156 -1.070256 0
M  V30 11 N 0.750006 2.000682 -1.053123 0
M  V30 12 C 1.416089 2.691369 0.010524 0
M  V30 13 O 1.889134 1.976149 0.904217 0
M  V30 14 N 1.524799 4.084310 0.037272 0
M  V30 15 C 2.185307 4.843014 1.083760 0
M  V30 16 C 1.584046 4.637657 2.421303 0
M  V30 17 N 0.669922 5.159802 3.129726 0
M  V30 18 C 0.420404 4.670877 4.328486 0
M  V30 19 C -0.694426 5.423077 5.009009 0
M  V30 20 C 1.159416 3.539006 4.885827 0
M  V30 21 S 2.331552 3.213971 3.428961 0
M  V30 22 N -0.433526 0.023306 -0.475763 0
M  V30 23 C -0.654825 -1.307264 -0.420357 0
M  V30 24 C 0.293234 -2.115274 -1.013668 0
M  V30 25 C -1.914754 -4.373866 -0.831524 0
M  V30 26 C -2.679024 -5.425646 -0.321803 0
M  V30 27 N -2.126719 -6.487865 0.286273 0
M  V30 28 H 0.236231 -8.422228 0.326806 0
M  V30 29 H -0.996374 -8.391741 1.635863 0
M  V30 30 H 0.608077 -7.524832 1.808541 0
M  V30 31 H 1.088337 -5.718253 0.100419 0
M  V30 32 H 3.059843 -2.583973 -2.641731 0
M  V30 33 H 2.457453 0.206016 -2.140237 0
M  V30 34 H 0.338132 2.583492 -1.826668 0
M  V30 35 H 1.085384 4.587173 -0.774529 0
M  V30 36 H 3.251964 4.505536 1.048755 0
M  V30 37 H 2.220609 5.909007 0.796919 0
M  V30 38 H -0.481706 6.499318 5.102622 0
M  V30 39 H -0.945208 4.954156 5.976164 0
M  V30 40 H -1.646800 5.354318 4.410524 0
M  V30 41 H 0.855101 3.232034 5.887230 0
M  V30 42 H -1.524867 -1.734483 0.060208 0
M  V30 43 H -2.349213 -3.514452 -1.322625 0
M  V30 44 H -3.752288 -5.379885 -0.421942 0
M  V30 END ATOM
M  V30 BEGIN BOND
M  V30 1 1 1 2
M  V30 2 2 2 3
M  V30 3 1 3 4
M  V30 4 1 4 5
M  V30 5 2 5 6
M  V30 6 1 6 7
M  V30 7 1 7 8
M  V30 8 2 8 9
M  V30 9 1 9 10
M  V30 10 1 10 11
M  V30 11 1 11 12
M  V30 12 2 12 13
M  V30 13 1 12 14
M  V30 14 1 14 15
M  V30 15 1 15 16
M  V30 16 2 16 17
M  V30 17 1 17 18
M  V30 18 1 18 19
M  V30 19 2 18 20
M  V30 20 1 20 21
M  V30 21 2 10 22
M  V30 22 1 22 23
M  V30 23 2 23 24
M  V30 24 2 4 25
M  V30 25 1 25 26
M  V30 26 2 26 27
M  V30 27 1 27 2
M  V30 28 1 24 5
M  V30 29 1 24 8
M  V30 30 1 21 16
M  V30 31 1 1 28
M  V30 32 1 1 29
M  V30 33 1 1 30
M  V30 34 1 3 31
M  V30 35 1 7 32
M  V30 36 1 9 33
M  V30 37 1 11 34
M  V30 38 1 14 35
M  V30 39 1 15 36
M  V30 40 1 15 37
M  V30 41 1 19 38
M  V30 42 1 19 39
M  V30 43 1 19 40
M  V30 44 1 20 41
M  V30 45 1 23 42
M  V30 46 1 25 43
M  V30 47 1 26 44
M  V30 END BOND
M  V30 END CTAB
M  END
>  <Dataset>  (94) 
ChEMBL_Kinases

>  <Ligand_Instance>  (94) 
nan

>  <PDB_ID>  (94) 
nan

>  <Standardized_SMILES>  (94) 
Cc1cc(-c2n[nH]c3cc(NC(=O)NCc4nc(C)cs4)ncc23)ccn1

>  <Name>  (94) 
nan

>  <Pocket>  (94) 
nan

>  <ATP_Site>  (94) 
nan

>  <Peripheral>  (94) 
nan

>  <Num_H_Atoms_ProtBoundConf>  (94) 
nan

>  <Num_Resolved_Atoms>  (94) 
nan

>  <Num_Not_Resolved_Atoms>  (94) 
nan

$$$$
CHEMBL3658849
     RDKit          3D

  0  0  0  0  0  0  0  0  0  0999 V3000
M  V30 BEGIN CTAB
M  V30 COUNTS 44 47 0 0 0
M  V30 BEGIN ATOM
M  V30 1 C -1.619462 -6.093428 -0.964685 0
M  V30 2 C -0.687214 -5.942217 0.172877 0
M  V30 3 C 0.229098 -4.911069 0.132570 0
M  V30 4 C 1.128137 -4.713808 1.160123 0
M  V30 5 C 2.143508 -3.661011 1.237126 0
M  V30 6 N 3.447571 -3.818038 1.605945 0
M  V30 7 N 4.059091 -2.635381 1.556384 0
M  V30 8 C 3.206128 -1.656136 1.159936 0
M  V30 9 C 3.323705 -0.294548 0.950691 0
M  V30 10 C 2.212148 0.436110 0.531679 0
M  V30 11 N 2.275067 1.844971 0.301534 0
M  V30 12 C 1.192679 2.635233 -0.123346 0
M  V30 13 O 0.092298 2.018182 -0.308523 0
M  V30 14 N 1.301604 4.045276 -0.339212 0
M  V30 15 C 0.091229 4.718514 -0.778612 0
M  V30 16 C -1.027419 4.583982 0.191043 0
M  V30 17 N -1.997954 3.692150 -0.150337 0
M  V30 18 C -3.033696 3.549301 0.718857 0
M  V30 19 C -3.120711 4.257983 1.891123 0
M  V30 20 Cl -4.506488 3.985727 2.930219 0
M  V30 21 C -2.112836 5.128218 2.160310 0
M  V30 22 C -1.024364 5.341150 1.342658 0
M  V30 23 F -0.033321 6.213497 1.634356 0
M  V30 24 N 1.045374 -0.216062 0.341946 0
M  V30 25 C 0.920520 -1.553504 0.545031 0
M  V30 26 C 1.994318 -2.316485 0.959927 0
M  V30 27 C 1.098480 -5.581086 2.253480 0
M  V30 28 C 0.162617 -6.597125 2.246042 0
M  V30 29 N -0.713672 -6.785234 1.239391 0
M  V30 30 H -2.185299 -5.143273 -1.069448 0
M  V30 31 H -1.093888 -6.367462 -1.903588 0
M  V30 32 H -2.387889 -6.840977 -0.660851 0
M  V30 33 H 0.307851 -4.198793 -0.687255 0
M  V30 34 H 5.049474 -2.427410 1.778507 0
M  V30 35 H 4.272960 0.204258 1.110457 0
M  V30 36 H 3.206894 2.320132 0.466259 0
M  V30 37 H 2.252036 4.432073 -0.152810 0
M  V30 38 H -0.162854 4.298779 -1.777871 0
M  V30 39 H 0.323937 5.802823 -0.917259 0
M  V30 40 H -3.799381 2.836943 0.436254 0
M  V30 41 H -2.197172 5.686832 3.101292 0
M  V30 42 H -0.018204 -2.069865 0.390893 0
M  V30 43 H 1.741369 -5.543086 3.123391 0
M  V30 44 H 0.041617 -7.336957 3.041084 0
M  V30 END ATOM
M  V30 BEGIN BOND
M  V30 1 1 1 2
M  V30 2 2 2 3
M  V30 3 1 3 4
M  V30 4 1 4 5
M  V30 5 2 5 6
M  V30 6 1 6 7
M  V30 7 1 7 8
M  V30 8 2 8 9
M  V30 9 1 9 10
M  V30 10 1 10 11
M  V30 11 1 11 12
M  V30 12 2 12 13
M  V30 13 1 12 14
M  V30 14 1 14 15
M  V30 15 1 15 16
M  V30 16 2 16 17
M  V30 17 1 17 18
M  V30 18 2 18 19
M  V30 19 1 19 20
M  V30 20 1 19 21
M  V30 21 2 21 22
M  V30 22 1 22 23
M  V30 23 2 10 24
M  V30 24 1 24 25
M  V30 25 2 25 26
M  V30 26 2 4 27
M  V30 27 1 27 28
M  V30 28 2 28 29
M  V30 29 1 29 2
M  V30 30 1 26 5
M  V30 31 1 26 8
M  V30 32 1 22 16
M  V30 33 1 1 30
M  V30 34 1 1 31
M  V30 35 1 1 32
M  V30 36 1 3 33
M  V30 37 1 7 34
M  V30 38 1 9 35
M  V30 39 1 11 36
M  V30 40 1 14 37
M  V30 41 1 15 38
M  V30 42 1 15 39
M  V30 43 1 18 40
M  V30 44 1 21 41
M  V30 45 1 25 42
M  V30 46 1 27 43
M  V30 47 1 28 44
M  V30 END BOND
M  V30 END CTAB
M  END
>  <Dataset>  (95) 
ChEMBL_Kinases

>  <Ligand_Instance>  (95) 
nan

>  <PDB_ID>  (95) 
nan

>  <Standardized_SMILES>  (95) 
Cc1cc(-c2n[nH]c3cc(NC(=O)NCc4ncc(Cl)cc4F)ncc23)ccn1

>  <Name>  (95) 
nan

>  <Pocket>  (95) 
nan

>  <ATP_Site>  (95) 
nan

>  <Peripheral>  (95) 
nan

>  <Num_H_Atoms_ProtBoundConf>  (95) 
nan

>  <Num_Resolved_Atoms>  (95) 
nan

>  <Num_Not_Resolved_Atoms>  (95) 
nan

$$$$
CHEMBL3658841
     RDKit          3D

  0  0  0  0  0  0  0  0  0  0999 V3000
M  V30 BEGIN CTAB
M  V30 COUNTS 44 47 0 0 0
M  V30 BEGIN ATOM
M  V30 1 C -0.107221 -7.805513 0.824404 0
M  V30 2 C -0.226013 -6.575981 0.003488 0
M  V30 3 C 0.704605 -5.541862 -0.026201 0
M  V30 4 C 0.511008 -4.426907 -0.825410 0
M  V30 5 C 1.497348 -3.353090 -0.845434 0
M  V30 6 N 2.824568 -3.492746 -0.933753 0
M  V30 7 N 3.441749 -2.322975 -0.924942 0
M  V30 8 C 2.474893 -1.391612 -0.826981 0
M  V30 9 C 2.614585 -0.019686 -0.779019 0
M  V30 10 C 1.452331 0.716213 -0.675438 0
M  V30 11 N 1.322165 2.134226 -0.608931 0
M  V30 12 C 1.332189 2.862247 0.605347 0
M  V30 13 O 1.468769 2.141150 1.624220 0
M  V30 14 N 1.211475 4.243093 0.789991 0
M  V30 15 C 1.257275 4.712746 2.149790 0
M  V30 16 C 0.007885 4.468739 2.896192 0
M  V30 17 C -1.034379 5.398023 2.923576 0
M  V30 18 C -2.210036 5.167908 3.625214 0
M  V30 19 C -2.362274 3.970742 4.328670 0
M  V30 20 C -1.284136 3.122703 4.241029 0
M  V30 21 N -0.131728 3.307890 3.574354 0
M  V30 22 N 0.251856 0.119831 -0.624584 0
M  V30 23 C 0.092345 -1.232133 -0.670553 0
M  V30 24 C 1.234960 -1.998858 -0.774209 0
M  V30 25 C -0.622214 -4.325419 -1.613193 0
M  V30 26 C -1.521774 -5.363806 -1.561017 0
M  V30 27 N -1.316256 -6.443083 -0.775760 0
M  V30 28 H 0.254480 -8.614908 0.126129 0
M  V30 29 H -1.123751 -8.157795 1.126479 0
M  V30 30 H 0.544296 -7.708070 1.695366 0
M  V30 31 H 1.587527 -5.656367 0.608922 0
M  V30 32 H 4.480298 -2.140641 -0.982330 0
M  V30 33 H 3.513677 0.555889 -0.812118 0
M  V30 34 H 1.207062 2.744170 -1.464852 0
M  V30 35 H 1.097375 4.810778 -0.092381 0
M  V30 36 H 1.568076 5.776387 2.179277 0
M  V30 37 H 2.067922 4.158418 2.666751 0
M  V30 38 H -0.930308 6.332507 2.381749 0
M  V30 39 H -3.031371 5.869267 3.662906 0
M  V30 40 H -3.234306 3.685745 4.909099 0
M  V30 41 H -1.365014 2.172035 4.779984 0
M  V30 42 H -0.870227 -1.727403 -0.630685 0
M  V30 43 H -0.835467 -3.489629 -2.257205 0
M  V30 44 H -2.416359 -5.353041 -2.140352 0
M  V30 END ATOM
M  V30 BEGIN BOND
M  V30 1 1 1 2
M  V30 2 2 2 3
M  V30 3 1 3 4
M  V30 4 1 4 5
M  V30 5 2 5 6
M  V30 6 1 6 7
M  V30 7 1 7 8
M  V30 8 2 8 9
M  V30 9 1 9 10
M  V30 10 1 10 11
M  V30 11 1 11 12
M  V30 12 2 12 13
M  V30 13 1 12 14
M  V30 14 1 14 15
M  V30 15 1 15 16
M  V30 16 2 16 17
M  V30 17 1 17 18
M  V30 18 2 18 19
M  V30 19 1 19 20
M  V30 20 2 20 21
M  V30 21 2 10 22
M  V30 22 1 22 23
M  V30 23 2 23 24
M  V30 24 2 4 25
M  V30 25 1 25 26
M  V30 26 2 26 27
M  V30 27 1 27 2
M  V30 28 1 24 5
M  V30 29 1 24 8
M  V30 30 1 21 16
M  V30 31 1 1 28
M  V30 32 1 1 29
M  V30 33 1 1 30
M  V30 34 1 3 31
M  V30 35 1 7 32
M  V30 36 1 9 33
M  V30 37 1 11 34
M  V30 38 1 14 35
M  V30 39 1 15 36
M  V30 40 1 15 37
M  V30 41 1 17 38
M  V30 42 1 18 39
M  V30 43 1 19 40
M  V30 44 1 20 41
M  V30 45 1 23 42
M  V30 46 1 25 43
M  V30 47 1 26 44
M  V30 END BOND
M  V30 END CTAB
M  END
>  <Dataset>  (96) 
ChEMBL_Kinases

>  <Ligand_Instance>  (96) 
nan

>  <PDB_ID>  (96) 
nan

>  <Standardized_SMILES>  (96) 
Cc1cc(-c2n[nH]c3cc(NC(=O)NCc4ccccn4)ncc23)ccn1

>  <Name>  (96) 
nan

>  <Pocket>  (96) 
nan

>  <ATP_Site>  (96) 
nan

>  <Peripheral>  (96) 
nan

>  <Num_H_Atoms_ProtBoundConf>  (96) 
nan

>  <Num_Resolved_Atoms>  (96) 
nan

>  <Num_Not_Resolved_Atoms>  (96) 
nan

$$$$
CHEMBL3658842
     RDKit          3D

  0  0  0  0  0  0  0  0  0  0999 V3000
M  V30 BEGIN CTAB
M  V30 COUNTS 47 50 0 0 0
M  V30 BEGIN ATOM
M  V30 1 C -1.423651 -7.535965 3.502062 0
M  V30 2 C -1.333887 -6.715300 2.249231 0
M  V30 3 C -0.224837 -5.903308 2.070470 0
M  V30 4 C -0.083279 -5.126307 0.944658 0
M  V30 5 C 1.057626 -4.245464 0.676698 0
M  V30 6 N 2.387437 -4.498475 0.814195 0
M  V30 7 N 3.071440 -3.416658 0.459719 0
M  V30 8 C 2.227438 -2.439362 0.086012 0
M  V30 9 C 2.504938 -1.165108 -0.349928 0
M  V30 10 C 1.439065 -0.328038 -0.681296 0
M  V30 11 N 1.523250 1.016369 -1.150633 0
M  V30 12 C 1.530533 2.054692 -0.173118 0
M  V30 13 O 1.468704 1.826864 1.057196 0
M  V30 14 N 1.610275 3.434422 -0.549476 0
M  V30 15 C 1.619126 4.483741 0.450497 0
M  V30 16 C 0.397891 4.453328 1.265853 0
M  V30 17 N 0.412567 3.959777 2.514764 0
M  V30 18 C -0.716935 3.936287 3.253575 0
M  V30 19 C -1.964100 4.393394 2.837783 0
M  V30 20 C -1.941722 4.899980 1.533268 0
M  V30 21 C -0.808956 4.926941 0.784399 0
M  V30 22 C -0.812319 5.473110 -0.603229 0
M  V30 23 N 0.179410 -0.814344 -0.556412 0
M  V30 24 C -0.059625 -2.080731 -0.121856 0
M  V30 25 C 0.960560 -2.936339 0.214173 0
M  V30 26 C -1.085863 -5.185927 0.001303 0
M  V30 27 C -2.181398 -5.991360 0.183046 0
M  V30 28 N -2.304330 -6.754892 1.306221 0
M  V30 29 H -0.604269 -8.281714 3.554147 0
M  V30 30 H -1.284502 -6.819614 4.343336 0
M  V30 31 H -2.439980 -7.972055 3.533159 0
M  V30 32 H 0.569303 -5.851869 2.810181 0
M  V30 33 H 4.119818 -3.386184 0.487324 0
M  V30 34 H 3.484715 -0.722636 -0.469484 0
M  V30 35 H 1.577382 1.241472 -2.186838 0
M  V30 36 H 1.660299 3.603429 -1.595225 0
M  V30 37 H 2.484752 4.278922 1.107253 0
M  V30 38 H 1.715900 5.434283 -0.110938 0
M  V30 39 H -0.561296 3.513660 4.238475 0
M  V30 40 H -2.820724 4.337838 3.492934 0
M  V30 41 H -2.897288 5.271992 1.159794 0
M  V30 42 H -0.072057 6.285781 -0.740906 0
M  V30 43 H -1.816358 5.964367 -0.773682 0
M  V30 44 H -0.730191 4.644503 -1.316114 0
M  V30 45 H -1.083373 -2.424982 -0.037215 0
M  V30 46 H -1.122077 -4.647592 -0.920882 0
M  V30 47 H -3.039326 -6.135199 -0.472896 0
M  V30 END ATOM
M  V30 BEGIN BOND
M  V30 1 1 1 2
M  V30 2 2 2 3
M  V30 3 1 3 4
M  V30 4 1 4 5
M  V30 5 2 5 6
M  V30 6 1 6 7
M  V30 7 1 7 8
M  V30 8 2 8 9
M  V30 9 1 9 10
M  V30 10 1 10 11
M  V30 11 1 11 12
M  V30 12 2 12 13
M  V30 13 1 12 14
M  V30 14 1 14 15
M  V30 15 1 15 16
M  V30 16 2 16 17
M  V30 17 1 17 18
M  V30 18 2 18 19
M  V30 19 1 19 20
M  V30 20 2 20 21
M  V30 21 1 21 22
M  V30 22 2 10 23
M  V30 23 1 23 24
M  V30 24 2 24 25
M  V30 25 2 4 26
M  V30 26 1 26 27
M  V30 27 2 27 28
M  V30 28 1 28 2
M  V30 29 1 25 5
M  V30 30 1 25 8
M  V30 31 1 21 16
M  V30 32 1 1 29
M  V30 33 1 1 30
M  V30 34 1 1 31
M  V30 35 1 3 32
M  V30 36 1 7 33
M  V30 37 1 9 34
M  V30 38 1 11 35
M  V30 39 1 14 36
M  V30 40 1 15 37
M  V30 41 1 15 38
M  V30 42 1 18 39
M  V30 43 1 19 40
M  V30 44 1 20 41
M  V30 45 1 22 42
M  V30 46 1 22 43
M  V30 47 1 22 44
M  V30 48 1 24 45
M  V30 49 1 26 46
M  V30 50 1 27 47
M  V30 END BOND
M  V30 END CTAB
M  END
>  <Dataset>  (97) 
ChEMBL_Kinases

>  <Ligand_Instance>  (97) 
nan

>  <PDB_ID>  (97) 
nan

>  <Standardized_SMILES>  (97) 
Cc1cc(-c2n[nH]c3cc(NC(=O)NCc4ncccc4C)ncc23)ccn1

>  <Name>  (97) 
nan

>  <Pocket>  (97) 
nan

>  <ATP_Site>  (97) 
nan

>  <Peripheral>  (97) 
nan

>  <Num_H_Atoms_ProtBoundConf>  (97) 
nan

>  <Num_Resolved_Atoms>  (97) 
nan

>  <Num_Not_Resolved_Atoms>  (97) 
nan

$$$$
CHEMBL3658843
     RDKit          3D

  0  0  0  0  0  0  0  0  0  0999 V3000
M  V30 BEGIN CTAB
M  V30 COUNTS 56 59 0 0 0
M  V30 BEGIN ATOM
M  V30 1 C 3.175893 -6.760002 -2.497052 0
M  V30 2 C 4.247316 -5.852251 -1.998163 0
M  V30 3 C 4.054325 -4.994921 -0.936458 0
M  V30 4 C 5.014224 -4.136990 -0.440668 0
M  V30 5 C 4.738790 -3.255023 0.689253 0
M  V30 6 N 5.536242 -3.035589 1.757232 0
M  V30 7 N 4.972586 -2.171362 2.597363 0
M  V30 8 C 3.758775 -1.779782 2.107283 0
M  V30 9 C 2.794117 -0.906183 2.598157 0
M  V30 10 C 1.664836 -0.757245 1.805474 0
M  V30 11 N 0.599173 0.122178 2.215174 0
M  V30 12 C -0.562340 0.283053 1.414577 0
M  V30 13 O -0.627001 -0.366559 0.339419 0
M  V30 14 N -1.629647 1.142291 1.792086 0
M  V30 15 C -2.791220 1.237467 0.889013 0 CFG=1
M  V30 16 C -4.046935 0.826683 1.647284 0
M  V30 17 N -5.246358 0.875238 0.883667 0
M  V30 18 C -6.424207 0.478422 1.633039 0
M  V30 19 C -5.108832 -0.056749 -0.220087 0
M  V30 20 C -2.985125 2.652918 0.479374 0
M  V30 21 C -2.914959 3.636832 1.446244 0
M  V30 22 C -3.086546 4.964420 1.120575 0
M  V30 23 C -3.335140 5.374006 -0.177789 0
M  V30 24 C -3.405109 4.397419 -1.139770 0
M  V30 25 C -3.231697 3.079081 -0.797849 0
M  V30 26 N 1.528589 -1.421603 0.642009 0
M  V30 27 C 2.474846 -2.271016 0.172209 0
M  V30 28 C 3.625561 -2.470022 0.906132 0
M  V30 29 C 6.243879 -4.141262 -1.049504 0
M  V30 30 C 6.403942 -5.018851 -2.117774 0
M  V30 31 N 5.459644 -5.852989 -2.594575 0
M  V30 32 H 2.580621 -6.187079 -3.235381 0
M  V30 33 H 3.577538 -7.649945 -2.992254 0
M  V30 34 H 2.472674 -7.076606 -1.716147 0
M  V30 35 H 3.063502 -5.046485 -0.506559 0
M  V30 36 H 5.384891 -1.835230 3.498373 0
M  V30 37 H 2.912564 -0.382829 3.525515 0
M  V30 38 H 0.675360 0.650838 3.111621 0
M  V30 39 H -1.594290 1.687257 2.676069 0
M  V30 40 H -2.606468 0.573172 0.022941 0
M  V30 41 H -3.826716 -0.146225 2.122692 0
M  V30 42 H -4.169051 1.584341 2.475859 0
M  V30 43 H -6.554996 -0.617644 1.520099 0
M  V30 44 H -6.302581 0.642860 2.719991 0
M  V30 45 H -7.330989 0.949060 1.210580 0
M  V30 46 H -4.436660 -0.869879 0.119419 0
M  V30 47 H -4.629113 0.405662 -1.109858 0
M  V30 48 H -6.071717 -0.548168 -0.469549 0
M  V30 49 H -2.724232 3.413336 2.492977 0
M  V30 50 H -3.039116 5.779923 1.857269 0
M  V30 51 H -3.477590 6.396360 -0.492821 0
M  V30 52 H -3.597674 4.645066 -2.184435 0
M  V30 53 H -3.292761 2.342341 -1.575387 0
M  V30 54 H 2.317235 -2.780999 -0.769349 0
M  V30 55 H 7.037004 -3.509323 -0.725845 0
M  V30 56 H 7.358447 -5.047276 -2.618849 0
M  V30 END ATOM
M  V30 BEGIN BOND
M  V30 1 1 1 2
M  V30 2 2 2 3
M  V30 3 1 3 4
M  V30 4 1 4 5
M  V30 5 2 5 6
M  V30 6 1 6 7
M  V30 7 1 7 8
M  V30 8 2 8 9
M  V30 9 1 9 10
M  V30 10 1 10 11
M  V30 11 1 11 12
M  V30 12 2 12 13
M  V30 13 1 12 14
M  V30 14 1 14 15
M  V30 15 1 15 16
M  V30 16 1 16 17
M  V30 17 1 17 18
M  V30 18 1 17 19
M  V30 19 1 15 20
M  V30 20 2 20 21
M  V30 21 1 21 22
M  V30 22 2 22 23
M  V30 23 1 23 24
M  V30 24 2 24 25
M  V30 25 2 10 26
M  V30 26 1 26 27
M  V30 27 2 27 28
M  V30 28 2 4 29
M  V30 29 1 29 30
M  V30 30 2 30 31
M  V30 31 1 31 2
M  V30 32 1 28 5
M  V30 33 1 28 8
M  V30 34 1 25 20
M  V30 35 1 1 32
M  V30 36 1 1 33
M  V30 37 1 1 34
M  V30 38 1 3 35
M  V30 39 1 7 36
M  V30 40 1 9 37
M  V30 41 1 11 38
M  V30 42 1 14 39
M  V30 43 1 15 40 CFG=3
M  V30 44 1 16 41
M  V30 45 1 16 42
M  V30 46 1 18 43
M  V30 47 1 18 44
M  V30 48 1 18 45
M  V30 49 1 19 46
M  V30 50 1 19 47
M  V30 51 1 19 48
M  V30 52 1 21 49
M  V30 53 1 22 50
M  V30 54 1 23 51
M  V30 55 1 24 52
M  V30 56 1 25 53
M  V30 57 1 27 54
M  V30 58 1 29 55
M  V30 59 1 30 56
M  V30 END BOND
M  V30 END CTAB
M  END
>  <Dataset>  (98) 
ChEMBL_Kinases

>  <Ligand_Instance>  (98) 
nan

>  <PDB_ID>  (98) 
nan

>  <Standardized_SMILES>  (98) 
Cc1cc(-c2n[nH]c3cc(NC(=O)N[C@@H](CN(C)C)c4ccccc4)ncc23)ccn1

>  <Name>  (98) 
nan

>  <Pocket>  (98) 
nan

>  <ATP_Site>  (98) 
nan

>  <Peripheral>  (98) 
nan

>  <Num_H_Atoms_ProtBoundConf>  (98) 
nan

>  <Num_Resolved_Atoms>  (98) 
nan

>  <Num_Not_Resolved_Atoms>  (98) 
nan

$$$$
CHEMBL3658844
     RDKit          3D

  0  0  0  0  0  0  0  0  0  0999 V3000
M  V30 BEGIN CTAB
M  V30 COUNTS 56 59 0 0 0
M  V30 BEGIN ATOM
M  V30 1 C 4.620402 -8.903675 -2.145167 0
M  V30 2 C 3.495145 -7.995324 -1.756710 0
M  V30 3 C 3.748278 -6.970524 -0.852928 0
M  V30 4 C 2.721020 -6.127123 -0.490624 0
M  V30 5 C 2.794804 -5.007111 0.441608 0
M  V30 6 N 3.358961 -4.947264 1.668810 0
M  V30 7 N 3.206720 -3.718134 2.188474 0
M  V30 8 C 2.536867 -2.961052 1.296603 0
M  V30 9 C 2.148008 -1.638568 1.378393 0
M  V30 10 C 1.463974 -1.071540 0.321572 0
M  V30 11 N 0.975286 0.261346 0.202240 0
M  V30 12 C -0.347149 0.535154 0.648465 0
M  V30 13 O -1.033688 -0.419353 1.130972 0
M  V30 14 N -0.894117 1.827943 0.562881 0
M  V30 15 C -2.251658 2.141861 1.011160 0 CFG=2
M  V30 16 C -3.190416 2.487263 -0.083947 0
M  V30 17 N -2.882338 3.599692 -0.904149 0
M  V30 18 C -2.988395 4.877288 -0.251077 0
M  V30 19 C -3.770074 3.592322 -2.048320 0
M  V30 20 C -2.275463 2.998895 2.189210 0
M  V30 21 C -3.218043 2.762356 3.199781 0
M  V30 22 C -3.387414 3.444935 4.381289 0
M  V30 23 C -2.508772 4.498805 4.588974 0
M  V30 24 C -1.546338 4.809258 3.652287 0
M  V30 25 C -1.455530 4.065956 2.498197 0
M  V30 26 N 1.208362 -1.848879 -0.748688 0
M  V30 27 C 1.584232 -3.137001 -0.833973 0
M  V30 28 C 2.272585 -3.754733 0.198001 0
M  V30 29 C 1.465002 -6.350642 -1.058143 0
M  V30 30 C 1.282247 -7.397462 -1.957837 0
M  V30 31 N 2.289490 -8.205116 -2.297708 0
M  V30 32 H 4.435918 -9.955724 -1.888574 0
M  V30 33 H 4.847914 -8.798305 -3.228863 0
M  V30 34 H 5.551905 -8.604613 -1.615062 0
M  V30 35 H 4.691471 -6.778212 -0.406774 0
M  V30 36 H 3.557622 -3.421613 3.130045 0
M  V30 37 H 2.325684 -0.973581 2.206938 0
M  V30 38 H 1.594190 0.993662 -0.203500 0
M  V30 39 H -0.320967 2.626930 0.161391 0
M  V30 40 H -2.615570 1.117150 1.386685 0
M  V30 41 H -3.415369 1.564930 -0.702082 0
M  V30 42 H -4.190814 2.669298 0.423040 0
M  V30 43 H -2.009662 5.339305 -0.003278 0
M  V30 44 H -3.600990 5.574016 -0.890306 0
M  V30 45 H -3.572236 4.736666 0.682320 0
M  V30 46 H -3.219016 3.511484 -3.005781 0
M  V30 47 H -4.454389 2.693287 -2.048043 0
M  V30 48 H -4.437514 4.468230 -2.083577 0
M  V30 49 H -3.910844 1.928681 3.032519 0
M  V30 50 H -4.152910 3.159885 5.074005 0
M  V30 51 H -2.574775 5.083617 5.490021 0
M  V30 52 H -0.838661 5.633355 3.786398 0
M  V30 53 H -0.699688 4.295778 1.742732 0
M  V30 54 H 1.349830 -3.706335 -1.721207 0
M  V30 55 H 0.540116 -5.793003 -0.891453 0
M  V30 56 H 0.320271 -7.620325 -2.434397 0
M  V30 END ATOM
M  V30 BEGIN BOND
M  V30 1 1 1 2
M  V30 2 2 2 3
M  V30 3 1 3 4
M  V30 4 1 4 5
M  V30 5 2 5 6
M  V30 6 1 6 7
M  V30 7 1 7 8
M  V30 8 2 8 9
M  V30 9 1 9 10
M  V30 10 1 10 11
M  V30 11 1 11 12
M  V30 12 2 12 13
M  V30 13 1 12 14
M  V30 14 1 14 15
M  V30 15 1 15 16
M  V30 16 1 16 17
M  V30 17 1 17 18
M  V30 18 1 17 19
M  V30 19 1 15 20
M  V30 20 2 20 21
M  V30 21 1 21 22
M  V30 22 2 22 23
M  V30 23 1 23 24
M  V30 24 2 24 25
M  V30 25 2 10 26
M  V30 26 1 26 27
M  V30 27 2 27 28
M  V30 28 2 4 29
M  V30 29 1 29 30
M  V30 30 2 30 31
M  V30 31 1 31 2
M  V30 32 1 28 5
M  V30 33 1 28 8
M  V30 34 1 25 20
M  V30 35 1 1 32
M  V30 36 1 1 33
M  V30 37 1 1 34
M  V30 38 1 3 35
M  V30 39 1 7 36
M  V30 40 1 9 37
M  V30 41 1 11 38
M  V30 42 1 14 39
M  V30 43 1 15 40 CFG=1
M  V30 44 1 16 41
M  V30 45 1 16 42
M  V30 46 1 18 43
M  V30 47 1 18 44
M  V30 48 1 18 45
M  V30 49 1 19 46
M  V30 50 1 19 47
M  V30 51 1 19 48
M  V30 52 1 21 49
M  V30 53 1 22 50
M  V30 54 1 23 51
M  V30 55 1 24 52
M  V30 56 1 25 53
M  V30 57 1 27 54
M  V30 58 1 29 55
M  V30 59 1 30 56
M  V30 END BOND
M  V30 END CTAB
M  END
>  <Dataset>  (99) 
ChEMBL_Kinases

>  <Ligand_Instance>  (99) 
nan

>  <PDB_ID>  (99) 
nan

>  <Standardized_SMILES>  (99) 
Cc1cc(-c2n[nH]c3cc(NC(=O)N[C@H](CN(C)C)c4ccccc4)ncc23)ccn1

>  <Name>  (99) 
nan

>  <Pocket>  (99) 
nan

>  <ATP_Site>  (99) 
nan

>  <Peripheral>  (99) 
nan

>  <Num_H_Atoms_ProtBoundConf>  (99) 
nan

>  <Num_Resolved_Atoms>  (99) 
nan

>  <Num_Not_Resolved_Atoms>  (99) 
nan

$$$$
CHEMBL3658845
     RDKit          3D

  0  0  0  0  0  0  0  0  0  0999 V3000
M  V30 BEGIN CTAB
M  V30 COUNTS 50 53 0 0 0
M  V30 BEGIN ATOM
M  V30 1 C -1.001362 -2.150946 -7.089201 0
M  V30 2 C -0.291210 -3.115287 -6.219760 0
M  V30 3 C -0.250936 -3.027191 -4.848378 0
M  V30 4 C 0.424215 -3.957018 -4.090335 0
M  V30 5 C 0.451617 -3.840974 -2.634458 0
M  V30 6 N 0.229069 -4.913366 -1.818133 0
M  V30 7 N 0.321504 -4.489456 -0.556054 0
M  V30 8 C 0.596826 -3.175815 -0.558019 0
M  V30 9 C 0.800900 -2.223249 0.435424 0
M  V30 10 C 1.081172 -0.891985 0.108747 0
M  V30 11 N 1.257413 -0.060485 1.251303 0
M  V30 12 C 0.319863 0.729917 1.997783 0
M  V30 13 O -0.777329 0.569039 1.428123 0
M  V30 14 N 0.775630 1.451672 3.105764 0
M  V30 15 C -0.280619 2.217366 3.778757 0 CFG=2
M  V30 16 C 0.148389 3.669308 3.733025 0
M  V30 17 N -0.834379 4.532968 4.378757 0
M  V30 18 C -0.398263 1.844833 5.218233 0
M  V30 19 C 0.727147 1.738405 6.006351 0
M  V30 20 C 0.521527 1.379613 7.340076 0
M  V30 21 C -0.760500 1.141298 7.847205 0
M  V30 22 C -1.860647 1.261758 7.013128 0
M  V30 23 C -1.689841 1.615014 5.689363 0
M  V30 24 N 1.159712 -0.499800 -1.200250 0
M  V30 25 C 0.966363 -1.400208 -2.192395 0
M  V30 26 C 0.691928 -2.705683 -1.851566 0
M  V30 27 C 1.097894 -5.025842 -4.641115 0
M  V30 28 C 1.024094 -5.066352 -6.038946 0
M  V30 29 N 0.357496 -4.148389 -6.782105 0
M  V30 30 H -1.723204 -2.695291 -7.749033 0
M  V30 31 H -0.288966 -1.587417 -7.720855 0
M  V30 32 H -1.634586 -1.442173 -6.512135 0
M  V30 33 H -0.774770 -2.194334 -4.414603 0
M  V30 34 H 0.205057 -5.058128 0.327119 0
M  V30 35 H 0.726873 -2.589409 1.450110 0
M  V30 36 H 2.278598 -0.151735 1.459644 0
M  V30 37 H 1.759538 1.424989 3.393067 0
M  V30 38 H -1.240898 2.117517 3.250953 0
M  V30 39 H 1.149829 3.793934 4.215269 0
M  V30 40 H 0.292987 4.028814 2.683271 0
M  V30 41 H -1.221505 5.208420 3.689168 0
M  V30 42 H -0.449243 4.974208 5.236408 0
M  V30 43 H 1.725513 1.922005 5.622743 0
M  V30 44 H 1.384056 1.283802 8.003582 0
M  V30 45 H -0.912856 0.862392 8.886252 0
M  V30 46 H -2.861825 1.075173 7.412045 0
M  V30 47 H -2.540952 1.716450 5.013775 0
M  V30 48 H 1.027834 -1.097345 -3.226200 0
M  V30 49 H 1.651826 -5.797600 -4.130195 0
M  V30 50 H 1.540546 -5.894855 -6.532446 0
M  V30 END ATOM
M  V30 BEGIN BOND
M  V30 1 1 1 2
M  V30 2 2 2 3
M  V30 3 1 3 4
M  V30 4 1 4 5
M  V30 5 2 5 6
M  V30 6 1 6 7
M  V30 7 1 7 8
M  V30 8 2 8 9
M  V30 9 1 9 10
M  V30 10 1 10 11
M  V30 11 1 11 12
M  V30 12 2 12 13
M  V30 13 1 12 14
M  V30 14 1 14 15
M  V30 15 1 15 16
M  V30 16 1 16 17
M  V30 17 1 15 18
M  V30 18 2 18 19
M  V30 19 1 19 20
M  V30 20 2 20 21
M  V30 21 1 21 22
M  V30 22 2 22 23
M  V30 23 2 10 24
M  V30 24 1 24 25
M  V30 25 2 25 26
M  V30 26 2 4 27
M  V30 27 1 27 28
M  V30 28 2 28 29
M  V30 29 1 29 2
M  V30 30 1 26 5
M  V30 31 1 26 8
M  V30 32 1 23 18
M  V30 33 1 1 30
M  V30 34 1 1 31
M  V30 35 1 1 32
M  V30 36 1 3 33
M  V30 37 1 7 34
M  V30 38 1 9 35
M  V30 39 1 11 36
M  V30 40 1 14 37
M  V30 41 1 15 38 CFG=3
M  V30 42 1 16 39
M  V30 43 1 16 40
M  V30 44 1 17 41
M  V30 45 1 17 42
M  V30 46 1 19 43
M  V30 47 1 20 44
M  V30 48 1 21 45
M  V30 49 1 22 46
M  V30 50 1 23 47
M  V30 51 1 25 48
M  V30 52 1 27 49
M  V30 53 1 28 50
M  V30 END BOND
M  V30 END CTAB
M  END
>  <Dataset>  (100) 
ChEMBL_Kinases

>  <Ligand_Instance>  (100) 
nan

>  <PDB_ID>  (100) 
nan

>  <Standardized_SMILES>  (100) 
Cc1cc(-c2n[nH]c3cc(NC(=O)N[C@H](CN)c4ccccc4)ncc23)ccn1

>  <Name>  (100) 
nan

>  <Pocket>  (100) 
nan

>  <ATP_Site>  (100) 
nan

>  <Peripheral>  (100) 
nan

>  <Num_H_Atoms_ProtBoundConf>  (100) 
nan

>  <Num_Resolved_Atoms>  (100) 
nan

>  <Num_Not_Resolved_Atoms>  (100) 
nan

$$$$
CHEMBL3658846
     RDKit          3D

  0  0  0  0  0  0  0  0  0  0999 V3000
M  V30 BEGIN CTAB
M  V30 COUNTS 43 46 0 0 0
M  V30 BEGIN ATOM
M  V30 1 C -2.061161 -6.871847 1.391207 0
M  V30 2 C -0.835698 -6.532529 0.641590 0
M  V30 3 C -0.266108 -5.284871 0.777019 0
M  V30 4 C 0.883835 -4.905023 0.100862 0
M  V30 5 C 1.517231 -3.600312 0.214709 0
M  V30 6 N 2.809859 -3.263966 0.364100 0
M  V30 7 N 2.971069 -1.951945 0.428015 0
M  V30 8 C 1.760403 -1.380523 0.319699 0
M  V30 9 C 1.320829 -0.097360 0.318743 0
M  V30 10 C 0.022300 0.321442 0.195676 0
M  V30 11 N -0.501633 1.627945 0.186536 0
M  V30 12 C 0.151840 2.860616 0.299329 0
M  V30 13 O 1.391852 2.808876 0.428409 0
M  V30 14 N -0.482378 4.120445 0.277171 0
M  V30 15 C 0.148400 5.410786 0.398546 0
M  V30 16 C 0.860900 5.598401 1.700143 0
M  V30 17 C 0.116395 5.084832 2.916279 0
M  V30 18 C 1.418091 4.394173 3.293540 0
M  V30 19 O 1.886174 4.758182 2.032164 0
M  V30 20 N -0.855506 -0.710210 0.065591 0
M  V30 21 C -0.470812 -1.992222 0.060752 0
M  V30 22 C 0.840588 -2.398562 0.185632 0
M  V30 23 C 1.408232 -5.899651 -0.725906 0
M  V30 24 C 0.853316 -7.159820 -0.877666 0
M  V30 25 N -0.273082 -7.453101 -0.180383 0
M  V30 26 H -2.953218 -6.308591 1.005181 0
M  V30 27 H -2.326811 -7.937194 1.243480 0
M  V30 28 H -1.934250 -6.714094 2.491696 0
M  V30 29 H -0.725898 -4.562423 1.435529 0
M  V30 30 H 3.878062 -1.465561 0.541772 0
M  V30 31 H 2.077565 0.657664 0.426105 0
M  V30 32 H -1.530256 1.749479 0.082217 0
M  V30 33 H -1.537043 4.093046 0.157358 0
M  V30 34 H -0.631101 6.202977 0.345545 0
M  V30 35 H 0.866401 5.602123 -0.432758 0
M  V30 36 H 1.187091 6.652891 1.835396 0
M  V30 37 H -0.157214 5.839439 3.660615 0
M  V30 38 H -0.648845 4.355714 2.636847 0
M  V30 39 H 1.337352 3.300600 3.451093 0
M  V30 40 H 2.019094 4.880033 4.069534 0
M  V30 41 H -1.241557 -2.747959 -0.048125 0
M  V30 42 H 2.314126 -5.630638 -1.271965 0
M  V30 43 H 1.366530 -7.830642 -1.552484 0
M  V30 END ATOM
M  V30 BEGIN BOND
M  V30 1 1 1 2
M  V30 2 2 2 3
M  V30 3 1 3 4
M  V30 4 1 4 5
M  V30 5 2 5 6
M  V30 6 1 6 7
M  V30 7 1 7 8
M  V30 8 2 8 9
M  V30 9 1 9 10
M  V30 10 1 10 11
M  V30 11 1 11 12
M  V30 12 2 12 13
M  V30 13 1 12 14
M  V30 14 1 14 15
M  V30 15 1 15 16
M  V30 16 1 16 17
M  V30 17 1 17 18
M  V30 18 1 18 19
M  V30 19 2 10 20
M  V30 20 1 20 21
M  V30 21 2 21 22
M  V30 22 2 4 23
M  V30 23 1 23 24
M  V30 24 2 24 25
M  V30 25 1 25 2
M  V30 26 1 22 5
M  V30 27 1 22 8
M  V30 28 1 19 16
M  V30 29 1 1 26
M  V30 30 1 1 27
M  V30 31 1 1 28
M  V30 32 1 3 29
M  V30 33 1 7 30
M  V30 34 1 9 31
M  V30 35 1 11 32
M  V30 36 1 14 33
M  V30 37 1 15 34
M  V30 38 1 15 35
M  V30 39 1 16 36
M  V30 40 1 17 37
M  V30 41 1 17 38
M  V30 42 1 18 39
M  V30 43 1 18 40
M  V30 44 1 21 41
M  V30 45 1 23 42
M  V30 46 1 24 43
M  V30 END BOND
M  V30 END CTAB
M  END
>  <Dataset>  (101) 
ChEMBL_Kinases

>  <Ligand_Instance>  (101) 
nan

>  <PDB_ID>  (101) 
nan

>  <Standardized_SMILES>  (101) 
Cc1cc(-c2n[nH]c3cc(NC(=O)NCC4CCO4)ncc23)ccn1

>  <Name>  (101) 
nan

>  <Pocket>  (101) 
nan

>  <ATP_Site>  (101) 
nan

>  <Peripheral>  (101) 
nan

>  <Num_H_Atoms_ProtBoundConf>  (101) 
nan

>  <Num_Resolved_Atoms>  (101) 
nan

>  <Num_Not_Resolved_Atoms>  (101) 
nan

$$$$
CHEMBL3658847
     RDKit          3D

  0  0  0  0  0  0  0  0  0  0999 V3000
M  V30 BEGIN CTAB
M  V30 COUNTS 49 52 0 0 0
M  V30 BEGIN ATOM
M  V30 1 C 2.180481 1.835014 -3.084893 0
M  V30 2 O 2.849848 2.111915 -1.898039 0
M  V30 3 C 4.069178 1.667758 -1.484348 0
M  V30 4 C 4.890411 0.831682 -2.204407 0
M  V30 5 C 6.110503 0.415547 -1.750506 0
M  V30 6 C 6.521053 0.873840 -0.494116 0
M  V30 7 C 5.687733 1.715874 0.226578 0
M  V30 8 F 6.247800 2.060602 1.424715 0
M  V30 9 C 4.434388 2.138275 -0.247603 0
M  V30 10 C 3.766571 2.989443 0.763637 0
M  V30 11 N 2.900588 2.179995 1.576058 0
M  V30 12 C 1.780681 1.358279 1.569743 0
M  V30 13 O 1.256903 1.223478 0.439372 0
M  V30 14 N 1.219199 0.696487 2.692626 0
M  V30 15 C 0.066157 -0.100217 2.433538 0
M  V30 16 C 0.386684 -1.416662 2.121926 0
M  V30 17 C -0.587509 -2.356641 1.837113 0
M  V30 18 N -0.592787 -3.663813 1.512475 0
M  V30 19 N -1.845776 -4.039283 1.354635 0
M  V30 20 C -2.689046 -3.011093 1.566152 0
M  V30 21 C -4.149836 -3.065400 1.478647 0
M  V30 22 C -4.703034 -2.016787 0.771550 0
M  V30 23 C -6.088750 -1.942960 0.612902 0
M  V30 24 N -6.886398 -2.903928 1.155231 0
M  V30 25 C -6.345726 -3.926365 1.844589 0
M  V30 26 C -7.214730 -4.990020 2.446442 0
M  V30 27 C -4.972172 -4.033766 2.023602 0
M  V30 28 C -1.895583 -1.911776 1.880197 0
M  V30 29 C -2.224933 -0.606729 2.188835 0
M  V30 30 N -1.238317 0.279972 2.460996 0
M  V30 31 H 1.418369 2.626468 -3.243906 0
M  V30 32 H 1.661934 0.867960 -3.104449 0
M  V30 33 H 2.868026 1.891501 -3.972724 0
M  V30 34 H 4.450408 0.551890 -3.160310 0
M  V30 35 H 6.650787 -0.232569 -2.405650 0
M  V30 36 H 7.478072 0.526398 -0.178600 0
M  V30 37 H 3.037587 3.672302 0.188996 0
M  V30 38 H 4.451908 3.614469 1.324011 0
M  V30 39 H 3.274022 2.234853 2.585503 0
M  V30 40 H 1.672787 0.825263 3.622743 0
M  V30 41 H 1.410917 -1.811346 2.076036 0
M  V30 42 H 0.272708 -4.267357 1.407469 0
M  V30 43 H -4.247855 -1.172620 0.272083 0
M  V30 44 H -6.637244 -1.162105 0.075663 0
M  V30 45 H -6.721839 -5.963528 2.478598 0
M  V30 46 H -7.515941 -4.607013 3.439851 0
M  V30 47 H -8.147718 -5.024350 1.833320 0
M  V30 48 H -4.472920 -4.821828 2.561893 0
M  V30 49 H -3.244687 -0.248560 2.227425 0
M  V30 END ATOM
M  V30 BEGIN BOND
M  V30 1 1 1 2
M  V30 2 1 2 3
M  V30 3 2 3 4
M  V30 4 1 4 5
M  V30 5 2 5 6
M  V30 6 1 6 7
M  V30 7 1 7 8
M  V30 8 2 7 9
M  V30 9 1 9 10
M  V30 10 1 10 11
M  V30 11 1 11 12
M  V30 12 2 12 13
M  V30 13 1 12 14
M  V30 14 1 14 15
M  V30 15 2 15 16
M  V30 16 1 16 17
M  V30 17 1 17 18
M  V30 18 1 18 19
M  V30 19 2 19 20
M  V30 20 1 20 21
M  V30 21 2 21 22
M  V30 22 1 22 23
M  V30 23 2 23 24
M  V30 24 1 24 25
M  V30 25 1 25 26
M  V30 26 2 25 27
M  V30 27 1 20 28
M  V30 28 1 28 29
M  V30 29 2 29 30
M  V30 30 1 9 3
M  V30 31 1 30 15
M  V30 32 2 28 17
M  V30 33 1 27 21
M  V30 34 1 1 31
M  V30 35 1 1 32
M  V30 36 1 1 33
M  V30 37 1 4 34
M  V30 38 1 5 35
M  V30 39 1 6 36
M  V30 40 1 10 37
M  V30 41 1 10 38
M  V30 42 1 11 39
M  V30 43 1 14 40
M  V30 44 1 16 41
M  V30 45 1 18 42
M  V30 46 1 22 43
M  V30 47 1 23 44
M  V30 48 1 26 45
M  V30 49 1 26 46
M  V30 50 1 26 47
M  V30 51 1 27 48
M  V30 52 1 29 49
M  V30 END BOND
M  V30 END CTAB
M  END
>  <Dataset>  (102) 
ChEMBL_Kinases

>  <Ligand_Instance>  (102) 
nan

>  <PDB_ID>  (102) 
nan

>  <Standardized_SMILES>  (102) 
COc1cccc(F)c1CNC(=O)Nc1cc2[nH]nc(-c3ccnc(C)c3)c2cn1

>  <Name>  (102) 
nan

>  <Pocket>  (102) 
nan

>  <ATP_Site>  (102) 
nan

>  <Peripheral>  (102) 
nan

>  <Num_H_Atoms_ProtBoundConf>  (102) 
nan

>  <Num_Resolved_Atoms>  (102) 
nan

>  <Num_Not_Resolved_Atoms>  (102) 
nan

$$$$
CHEMBL3658848
     RDKit          3D

  0  0  0  0  0  0  0  0  0  0999 V3000
M  V30 BEGIN CTAB
M  V30 COUNTS 49 52 0 0 0
M  V30 BEGIN ATOM
M  V30 1 C 3.097759 -5.562538 -3.316721 0
M  V30 2 O 2.277281 -5.360946 -2.188873 0
M  V30 3 C 2.582707 -4.116219 -1.628681 0
M  V30 4 C 1.686152 -3.935751 -0.425898 0 CFG=2
M  V30 5 N 1.917890 -2.668672 0.238769 0
M  V30 6 C 0.897193 -1.697125 0.241485 0
M  V30 7 O -0.225539 -1.783523 -0.272066 0
M  V30 8 N 1.250686 -0.488297 0.931601 0
M  V30 9 C 0.367987 0.622107 1.054840 0
M  V30 10 C 0.467539 1.544743 0.033905 0
M  V30 11 C -0.353561 2.657540 0.071804 0
M  V30 12 N -0.539339 3.740710 -0.718622 0
M  V30 13 N -1.468804 4.523874 -0.217794 0
M  V30 14 C -1.958738 4.010481 0.936322 0
M  V30 15 C -2.999232 4.600788 1.772249 0
M  V30 16 C -4.072282 3.942452 2.336464 0
M  V30 17 C -4.955114 4.687176 3.103063 0
M  V30 18 C -4.773391 6.034280 3.297985 0
M  V30 19 F -5.656577 6.731842 4.053732 0
M  V30 20 C -3.700317 6.693279 2.733908 0
M  V30 21 C -2.820795 5.953053 1.970584 0
M  V30 22 C -1.254487 2.834432 1.116793 0
M  V30 23 C -1.321200 1.872939 2.130782 0
M  V30 24 N -0.512796 0.785751 2.085386 0
M  V30 25 C 1.750583 -5.072976 0.492901 0
M  V30 26 C 1.106567 -4.982756 1.707666 0
M  V30 27 C 1.203407 -6.099610 2.542261 0
M  V30 28 C 1.927150 -7.213155 2.110343 0
M  V30 29 C 2.559782 -7.251307 0.870510 0
M  V30 30 N 2.436526 -6.150991 0.104406 0
M  V30 31 H 2.943726 -4.781887 -4.085496 0
M  V30 32 H 4.179166 -5.551192 -3.044552 0
M  V30 33 H 2.854469 -6.534405 -3.777387 0
M  V30 34 H 2.268550 -3.370768 -2.392133 0
M  V30 35 H 3.650084 -4.111115 -1.402830 0
M  V30 36 H 0.651397 -3.886468 -0.841488 0
M  V30 37 H 2.852845 -2.551248 0.686768 0
M  V30 38 H 2.131217 -0.226281 1.421233 0
M  V30 39 H 1.146592 1.444866 -0.785877 0
M  V30 40 H 0.043427 3.823777 -1.584369 0
M  V30 41 H -4.118296 2.882210 2.118057 0
M  V30 42 H -5.792361 4.120936 3.530935 0
M  V30 43 H -3.578430 7.767846 2.904851 0
M  V30 44 H -2.002494 6.551493 1.562972 0
M  V30 45 H -2.014201 1.990471 2.952402 0
M  V30 46 H 0.543332 -4.136278 2.062347 0
M  V30 47 H 0.739751 -6.154945 3.527729 0
M  V30 48 H 2.057285 -8.127360 2.690990 0
M  V30 49 H 3.119806 -8.108680 0.532340 0
M  V30 END ATOM
M  V30 BEGIN BOND
M  V30 1 1 1 2
M  V30 2 1 2 3
M  V30 3 1 3 4
M  V30 4 1 4 5
M  V30 5 1 5 6
M  V30 6 2 6 7
M  V30 7 1 6 8
M  V30 8 1 8 9
M  V30 9 2 9 10
M  V30 10 1 10 11
M  V30 11 1 11 12
M  V30 12 1 12 13
M  V30 13 2 13 14
M  V30 14 1 14 15
M  V30 15 2 15 16
M  V30 16 1 16 17
M  V30 17 2 17 18
M  V30 18 1 18 19
M  V30 19 1 18 20
M  V30 20 2 20 21
M  V30 21 1 14 22
M  V30 22 1 22 23
M  V30 23 2 23 24
M  V30 24 1 4 25
M  V30 25 2 25 26
M  V30 26 1 26 27
M  V30 27 2 27 28
M  V30 28 1 28 29
M  V30 29 2 29 30
M  V30 30 1 24 9
M  V30 31 1 30 25
M  V30 32 2 22 11
M  V30 33 1 21 15
M  V30 34 1 1 31
M  V30 35 1 1 32
M  V30 36 1 1 33
M  V30 37 1 3 34
M  V30 38 1 3 35
M  V30 39 1 4 36 CFG=3
M  V30 40 1 5 37
M  V30 41 1 8 38
M  V30 42 1 10 39
M  V30 43 1 12 40
M  V30 44 1 16 41
M  V30 45 1 17 42
M  V30 46 1 20 43
M  V30 47 1 21 44
M  V30 48 1 23 45
M  V30 49 1 26 46
M  V30 50 1 27 47
M  V30 51 1 28 48
M  V30 52 1 29 49
M  V30 END BOND
M  V30 END CTAB
M  END
>  <Dataset>  (103) 
ChEMBL_Kinases

>  <Ligand_Instance>  (103) 
nan

>  <PDB_ID>  (103) 
nan

>  <Standardized_SMILES>  (103) 
COC[C@H](NC(=O)Nc1cc2[nH]nc(-c3ccc(F)cc3)c2cn1)c1ccccn1

>  <Name>  (103) 
nan

>  <Pocket>  (103) 
nan

>  <ATP_Site>  (103) 
nan

>  <Peripheral>  (103) 
nan

>  <Num_H_Atoms_ProtBoundConf>  (103) 
nan

>  <Num_Resolved_Atoms>  (103) 
nan

>  <Num_Not_Resolved_Atoms>  (103) 
nan

$$$$
CHEMBL3658840
     RDKit          3D

  0  0  0  0  0  0  0  0  0  0999 V3000
M  V30 BEGIN CTAB
M  V30 COUNTS 44 47 0 0 0
M  V30 BEGIN ATOM
M  V30 1 C -0.592185 -7.267617 0.099233 0
M  V30 2 C -1.317252 -6.709739 -1.084744 0
M  V30 3 C -1.403879 -5.325635 -1.209438 0
M  V30 4 C -2.079636 -4.812680 -2.312316 0
M  V30 5 C -2.146150 -3.356928 -2.408095 0
M  V30 6 N -3.290308 -2.716926 -2.709663 0
M  V30 7 N -3.121079 -1.405355 -2.743426 0
M  V30 8 C -1.833825 -1.132264 -2.459721 0
M  V30 9 C -1.001027 -0.037695 -2.328818 0
M  V30 10 C 0.341283 -0.145518 -2.012886 0
M  V30 11 N 1.159481 1.016261 -1.886358 0
M  V30 12 C 1.257716 1.614926 -0.591553 0
M  V30 13 O 0.632110 1.105382 0.368402 0
M  V30 14 N 2.036087 2.754834 -0.375741 0
M  V30 15 C 2.266416 3.507110 0.843668 0
M  V30 16 C 1.081133 4.348414 1.151320 0
M  V30 17 C 0.043068 3.873117 1.942857 0
M  V30 18 C -1.078598 4.651856 2.242723 0
M  V30 19 C -1.179904 5.941526 1.745728 0
M  V30 20 Cl -2.599057 6.862842 2.151934 0
M  V30 21 C -0.121648 6.386513 0.955657 0
M  V30 22 N 0.943149 5.604881 0.689345 0
M  V30 23 N 0.899599 -1.378444 -1.815211 0
M  V30 24 C 0.118570 -2.493983 -1.932785 0
M  V30 25 C -1.213639 -2.354321 -2.247525 0
M  V30 26 C -2.628349 -5.677830 -3.223135 0
M  V30 27 C -2.504820 -7.047574 -3.037957 0
M  V30 28 N -1.852090 -7.574559 -1.973507 0
M  V30 29 H 0.039507 -8.109175 -0.215375 0
M  V30 30 H 0.057939 -6.501366 0.571711 0
M  V30 31 H -1.306223 -7.575540 0.896158 0
M  V30 32 H -0.930341 -4.722856 -0.423413 0
M  V30 33 H -3.760445 -0.609655 -2.935873 0
M  V30 34 H -1.467585 0.941787 -2.490182 0
M  V30 35 H 1.675805 1.435828 -2.681627 0
M  V30 36 H 2.539524 3.134163 -1.231451 0
M  V30 37 H 2.412425 2.731160 1.654010 0
M  V30 38 H 3.206355 4.077105 0.809848 0
M  V30 39 H 0.050403 2.897331 2.360241 0
M  V30 40 H -1.878208 4.239348 2.872646 0
M  V30 41 H -0.210186 7.397368 0.571440 0
M  V30 42 H 0.588021 -3.454371 -1.771153 0
M  V30 43 H -3.152563 -5.260857 -4.077885 0
M  V30 44 H -2.952945 -7.721905 -3.780021 0
M  V30 END ATOM
M  V30 BEGIN BOND
M  V30 1 1 1 2
M  V30 2 2 2 3
M  V30 3 1 3 4
M  V30 4 1 4 5
M  V30 5 2 5 6
M  V30 6 1 6 7
M  V30 7 1 7 8
M  V30 8 2 8 9
M  V30 9 1 9 10
M  V30 10 1 10 11
M  V30 11 1 11 12
M  V30 12 2 12 13
M  V30 13 1 12 14
M  V30 14 1 14 15
M  V30 15 1 15 16
M  V30 16 2 16 17
M  V30 17 1 17 18
M  V30 18 2 18 19
M  V30 19 1 19 20
M  V30 20 1 19 21
M  V30 21 2 21 22
M  V30 22 2 10 23
M  V30 23 1 23 24
M  V30 24 2 24 25
M  V30 25 2 4 26
M  V30 26 1 26 27
M  V30 27 2 27 28
M  V30 28 1 28 2
M  V30 29 1 25 5
M  V30 30 1 25 8
M  V30 31 1 22 16
M  V30 32 1 1 29
M  V30 33 1 1 30
M  V30 34 1 1 31
M  V30 35 1 3 32
M  V30 36 1 7 33
M  V30 37 1 9 34
M  V30 38 1 11 35
M  V30 39 1 14 36
M  V30 40 1 15 37
M  V30 41 1 15 38
M  V30 42 1 17 39
M  V30 43 1 18 40
M  V30 44 1 21 41
M  V30 45 1 24 42
M  V30 46 1 26 43
M  V30 47 1 27 44
M  V30 END BOND
M  V30 END CTAB
M  END
>  <Dataset>  (104) 
ChEMBL_Kinases

>  <Ligand_Instance>  (104) 
nan

>  <PDB_ID>  (104) 
nan

>  <Standardized_SMILES>  (104) 
Cc1cc(-c2n[nH]c3cc(NC(=O)NCc4ccc(Cl)cn4)ncc23)ccn1

>  <Name>  (104) 
nan

>  <Pocket>  (104) 
nan

>  <ATP_Site>  (104) 
nan

>  <Peripheral>  (104) 
nan

>  <Num_H_Atoms_ProtBoundConf>  (104) 
nan

>  <Num_Resolved_Atoms>  (104) 
nan

>  <Num_Not_Resolved_Atoms>  (104) 
nan

$$$$
CHEMBL3658765
     RDKit          3D

  0  0  0  0  0  0  0  0  0  0999 V3000
M  V30 BEGIN CTAB
M  V30 COUNTS 60 64 0 0 0
M  V30 BEGIN ATOM
M  V30 1 C 6.480860 -5.102047 0.818783 0
M  V30 2 C 5.521054 -4.828187 1.901688 0
M  V30 3 C 5.143198 -3.525825 2.117184 0
M  V30 4 C 4.249455 -3.214412 3.115098 0
M  V30 5 C 3.737218 -1.902184 3.488050 0
M  V30 6 N 3.613823 -1.420157 4.753667 0
M  V30 7 N 3.119701 -0.211819 4.707577 0
M  V30 8 C 2.906955 0.129707 3.420571 0
M  V30 9 C 2.400083 1.299001 2.897852 0
M  V30 10 C 2.303308 1.341828 1.528661 0
M  V30 11 N 1.805200 2.447075 0.761076 0
M  V30 12 C 0.425880 2.511912 0.469184 0
M  V30 13 O -0.274311 1.572501 0.919306 0
M  V30 14 N -0.243749 3.516804 -0.272019 0
M  V30 15 C -1.598156 3.738438 -0.657739 0
M  V30 16 C -2.245051 2.701316 -1.494150 0
M  V30 17 N -2.388450 1.414691 -0.927066 0
M  V30 18 C -3.328825 1.269962 0.135780 0
M  V30 19 C -4.532276 0.522339 -0.355554 0
M  V30 20 C -4.181754 0.213116 -1.780345 0
M  V30 21 C -4.665636 -1.143226 -2.159964 0
M  V30 22 C -5.492138 -1.486373 -3.212235 0
M  V30 23 C -5.837407 -2.810085 -3.407443 0
M  V30 24 C -5.343090 -3.784495 -2.534368 0
M  V30 25 C -4.518235 -3.447050 -1.483209 0
M  V30 26 C -4.169212 -2.116615 -1.283996 0
M  V30 27 C -2.707465 0.353557 -1.828206 0
M  V30 28 N 2.681553 0.303742 0.756599 0
M  V30 29 C 3.178065 -0.843540 1.259239 0
M  V30 30 C 3.289573 -0.924094 2.619926 0
M  V30 31 C 3.745564 -4.258359 3.892887 0
M  V30 32 C 4.131020 -5.570077 3.670395 0
M  V30 33 N 5.020203 -5.802172 2.663606 0
M  V30 34 H 7.493371 -4.782869 1.129325 0
M  V30 35 H 6.529375 -6.186511 0.584427 0
M  V30 36 H 6.202643 -4.534539 -0.104329 0
M  V30 37 H 5.483963 -2.663757 1.563420 0
M  V30 38 H 2.914751 0.407499 5.543351 0
M  V30 39 H 2.081975 2.156786 3.436071 0
M  V30 40 H 2.405870 3.213428 0.399648 0
M  V30 41 H 0.496488 4.230481 -0.574796 0
M  V30 42 H -1.626914 4.689862 -1.226176 0
M  V30 43 H -2.248262 3.924930 0.235684 0
M  V30 44 H -3.220489 3.148360 -1.843502 0
M  V30 45 H -1.680177 2.567920 -2.463747 0
M  V30 46 H -3.619649 2.230771 0.607554 0
M  V30 47 H -2.850555 0.669634 0.946598 0
M  V30 48 H -4.696981 -0.394489 0.245909 0
M  V30 49 H -5.451065 1.136793 -0.326114 0
M  V30 50 H -4.647053 0.903174 -2.507007 0
M  V30 51 H -5.788902 -0.626228 -3.793674 0
M  V30 52 H -6.487448 -3.000485 -4.251290 0
M  V30 53 H -5.672606 -4.805447 -2.772182 0
M  V30 54 H -4.218723 -4.286184 -0.901534 0
M  V30 55 H -3.526851 -1.957807 -0.445176 0
M  V30 56 H -2.161427 -0.549201 -1.424154 0
M  V30 57 H -2.293421 0.491148 -2.847457 0
M  V30 58 H 3.475494 -1.664183 0.626669 0
M  V30 59 H 3.041058 -4.179632 4.708462 0
M  V30 60 H 3.795253 -6.429690 4.218053 0
M  V30 END ATOM
M  V30 BEGIN BOND
M  V30 1 1 1 2
M  V30 2 2 2 3
M  V30 3 1 3 4
M  V30 4 1 4 5
M  V30 5 2 5 6
M  V30 6 1 6 7
M  V30 7 1 7 8
M  V30 8 2 8 9
M  V30 9 1 9 10
M  V30 10 1 10 11
M  V30 11 1 11 12
M  V30 12 2 12 13
M  V30 13 1 12 14
M  V30 14 1 14 15
M  V30 15 1 15 16
M  V30 16 1 16 17
M  V30 17 1 17 18
M  V30 18 1 18 19
M  V30 19 1 19 20
M  V30 20 1 20 21
M  V30 21 2 21 22
M  V30 22 1 22 23
M  V30 23 2 23 24
M  V30 24 1 24 25
M  V30 25 2 25 26
M  V30 26 1 20 27
M  V30 27 2 10 28
M  V30 28 1 28 29
M  V30 29 2 29 30
M  V30 30 2 4 31
M  V30 31 1 31 32
M  V30 32 2 32 33
M  V30 33 1 33 2
M  V30 34 1 30 5
M  V30 35 1 30 8
M  V30 36 1 27 17
M  V30 37 1 26 21
M  V30 38 1 1 34
M  V30 39 1 1 35
M  V30 40 1 1 36
M  V30 41 1 3 37
M  V30 42 1 7 38
M  V30 43 1 9 39
M  V30 44 1 11 40
M  V30 45 1 14 41
M  V30 46 1 15 42
M  V30 47 1 15 43
M  V30 48 1 16 44
M  V30 49 1 16 45
M  V30 50 1 18 46
M  V30 51 1 18 47
M  V30 52 1 19 48
M  V30 53 1 19 49
M  V30 54 1 20 50
M  V30 55 1 22 51
M  V30 56 1 23 52
M  V30 57 1 24 53
M  V30 58 1 25 54
M  V30 59 1 26 55
M  V30 60 1 27 56
M  V30 61 1 27 57
M  V30 62 1 29 58
M  V30 63 1 31 59
M  V30 64 1 32 60
M  V30 END BOND
M  V30 END CTAB
M  END
>  <Dataset>  (105) 
ChEMBL_Kinases

>  <Ligand_Instance>  (105) 
nan

>  <PDB_ID>  (105) 
nan

>  <Standardized_SMILES>  (105) 
Cc1cc(-c2n[nH]c3cc(NC(=O)NCCN4CCC(c5ccccc5)C4)ncc23)ccn1

>  <Name>  (105) 
nan

>  <Pocket>  (105) 
nan

>  <ATP_Site>  (105) 
nan

>  <Peripheral>  (105) 
nan

>  <Num_H_Atoms_ProtBoundConf>  (105) 
nan

>  <Num_Resolved_Atoms>  (105) 
nan

>  <Num_Not_Resolved_Atoms>  (105) 
nan

$$$$
CHEMBL3658764
     RDKit          3D

  0  0  0  0  0  0  0  0  0  0999 V3000
M  V30 BEGIN CTAB
M  V30 COUNTS 51 55 0 0 0
M  V30 BEGIN ATOM
M  V30 1 C 2.750702 -8.029840 -0.512803 0
M  V30 2 C 3.755155 -6.949798 -0.329671 0
M  V30 3 C 3.494572 -5.627240 -0.623394 0
M  V30 4 C 4.378005 -4.584804 -0.476530 0
M  V30 5 C 4.028536 -3.207834 -0.809404 0
M  V30 6 N 4.799393 -2.341462 -1.503696 0
M  V30 7 N 4.173098 -1.160587 -1.629325 0
M  V30 8 C 2.992684 -1.303844 -0.999216 0
M  V30 9 C 1.988821 -0.366415 -0.850986 0
M  V30 10 C 0.850075 -0.745519 -0.154964 0
M  V30 11 N -0.304530 0.047599 0.119796 0
M  V30 12 C -0.386679 0.833398 1.299681 0
M  V30 13 O 0.521319 0.872728 2.138573 0
M  V30 14 N -1.602075 1.550484 1.401356 0
M  V30 15 C -2.026937 2.445853 2.462702 0
M  V30 16 C -3.207547 1.875210 3.197715 0
M  V30 17 C -4.517849 2.038391 2.519867 0
M  V30 18 C -4.681211 3.323297 1.810890 0
M  V30 19 C -5.941906 3.681325 1.376692 0
M  V30 20 C -6.077227 4.893656 0.711375 0
M  V30 21 N -5.031084 5.730201 0.474186 0
M  V30 22 C -3.816064 5.352119 0.910059 0
M  V30 23 C -3.593925 4.165387 1.578789 0
M  V30 24 C -2.217146 3.859286 2.008236 0
M  V30 25 N 0.720983 -1.998033 0.366570 0
M  V30 26 C 1.709286 -2.917115 0.219238 0
M  V30 27 C 2.853907 -2.570366 -0.467822 0
M  V30 28 C 5.644595 -4.918376 0.014859 0
M  V30 29 C 5.889503 -6.244661 0.303709 0
M  V30 30 N 4.992945 -7.252605 0.146987 0
M  V30 31 H 2.938391 -8.471808 -1.508109 0
M  V30 32 H 2.890477 -8.816092 0.283017 0
M  V30 33 H 1.746042 -7.597828 -0.389554 0
M  V30 34 H 2.495020 -5.457662 -0.996880 0
M  V30 35 H 4.528589 -0.306891 -2.115706 0
M  V30 36 H 1.972090 0.651300 -1.215232 0
M  V30 37 H -0.998738 -0.067242 -0.656435 0
M  V30 38 H -2.397060 1.549637 0.720196 0
M  V30 39 H -1.201431 2.470707 3.208667 0
M  V30 40 H -3.013785 0.775268 3.285712 0
M  V30 41 H -3.263348 2.237681 4.259394 0
M  V30 42 H -4.754765 1.163532 1.849754 0
M  V30 43 H -5.316383 2.009407 3.301970 0
M  V30 44 H -6.788003 3.032797 1.553732 0
M  V30 45 H -7.082380 5.166503 0.371830 0
M  V30 46 H -3.044573 6.093888 0.669337 0
M  V30 47 H -1.539403 4.038006 1.144849 0
M  V30 48 H -1.933562 4.607119 2.782025 0
M  V30 49 H 1.627440 -3.916722 0.625140 0
M  V30 50 H 6.395690 -4.158421 0.159117 0
M  V30 51 H 6.847997 -6.580319 0.688370 0
M  V30 END ATOM
M  V30 BEGIN BOND
M  V30 1 1 1 2
M  V30 2 2 2 3
M  V30 3 1 3 4
M  V30 4 1 4 5
M  V30 5 2 5 6
M  V30 6 1 6 7
M  V30 7 1 7 8
M  V30 8 2 8 9
M  V30 9 1 9 10
M  V30 10 1 10 11
M  V30 11 1 11 12
M  V30 12 2 12 13
M  V30 13 1 12 14
M  V30 14 1 14 15
M  V30 15 1 15 16
M  V30 16 1 16 17
M  V30 17 1 17 18
M  V30 18 2 18 19
M  V30 19 1 19 20
M  V30 20 2 20 21
M  V30 21 1 21 22
M  V30 22 2 22 23
M  V30 23 1 23 24
M  V30 24 2 10 25
M  V30 25 1 25 26
M  V30 26 2 26 27
M  V30 27 2 4 28
M  V30 28 1 28 29
M  V30 29 2 29 30
M  V30 30 1 30 2
M  V30 31 1 27 5
M  V30 32 1 27 8
M  V30 33 1 24 15
M  V30 34 1 23 18
M  V30 35 1 1 31
M  V30 36 1 1 32
M  V30 37 1 1 33
M  V30 38 1 3 34
M  V30 39 1 7 35
M  V30 40 1 9 36
M  V30 41 1 11 37
M  V30 42 1 14 38
M  V30 43 1 15 39
M  V30 44 1 16 40
M  V30 45 1 16 41
M  V30 46 1 17 42
M  V30 47 1 17 43
M  V30 48 1 19 44
M  V30 49 1 20 45
M  V30 50 1 22 46
M  V30 51 1 24 47
M  V30 52 1 24 48
M  V30 53 1 26 49
M  V30 54 1 28 50
M  V30 55 1 29 51
M  V30 END BOND
M  V30 END CTAB
M  END
>  <Dataset>  (106) 
ChEMBL_Kinases

>  <Ligand_Instance>  (106) 
nan

>  <PDB_ID>  (106) 
nan

>  <Standardized_SMILES>  (106) 
Cc1cc(-c2n[nH]c3cc(NC(=O)NC4CCc5ccncc5C4)ncc23)ccn1

>  <Name>  (106) 
nan

>  <Pocket>  (106) 
nan

>  <ATP_Site>  (106) 
nan

>  <Peripheral>  (106) 
nan

>  <Num_H_Atoms_ProtBoundConf>  (106) 
nan

>  <Num_Resolved_Atoms>  (106) 
nan

>  <Num_Not_Resolved_Atoms>  (106) 
nan

$$$$
CHEMBL3658763
     RDKit          3D

  0  0  0  0  0  0  0  0  0  0999 V3000
M  V30 BEGIN CTAB
M  V30 COUNTS 52 55 0 0 0
M  V30 BEGIN ATOM
M  V30 1 C 3.937109 -7.908802 2.747429 0
M  V30 2 C 4.275647 -6.839622 1.764274 0
M  V30 3 C 4.215901 -5.522034 2.171769 0
M  V30 4 C 4.528701 -4.503040 1.268167 0
M  V30 5 C 4.426713 -3.156382 1.823514 0
M  V30 6 N 4.868418 -2.676790 3.007979 0
M  V30 7 N 4.583122 -1.396515 3.147296 0
M  V30 8 C 3.938836 -1.038282 2.021226 0
M  V30 9 C 3.445888 0.214901 1.716561 0
M  V30 10 C 2.810345 0.385228 0.501689 0
M  V30 11 N 2.210923 1.545291 -0.075725 0
M  V30 12 C 0.824537 1.798300 0.180240 0
M  V30 13 O 0.191512 0.990370 0.901897 0
M  V30 14 N 0.183722 2.920116 -0.359552 0
M  V30 15 C -1.215886 3.217610 -0.128685 0
M  V30 16 C -2.119973 2.116573 -0.626029 0
M  V30 17 C -3.507098 2.552898 -0.326478 0
M  V30 18 O -3.599374 3.668212 0.236533 0
M  V30 19 N -4.668023 1.817729 -0.625879 0
M  V30 20 C -6.018422 2.152662 -0.379165 0
M  V30 21 C -6.508054 3.282917 0.214633 0
M  V30 22 C -7.826317 3.564330 0.432712 0
M  V30 23 C -8.772479 2.648593 0.030450 0
M  V30 24 C -8.328428 1.491974 -0.573852 0
M  V30 25 C -6.985254 1.256080 -0.770637 0
M  V30 26 Br -6.469114 -0.391956 -1.624821 0
M  V30 27 N 2.680403 -0.664442 -0.363530 0
M  V30 28 C 3.172619 -1.894473 -0.047211 0
M  V30 29 C 3.815322 -2.108078 1.157829 0
M  V30 30 C 4.892054 -4.822141 -0.014898 0
M  V30 31 C 4.940735 -6.165476 -0.388823 0
M  V30 32 N 4.634797 -7.140669 0.498281 0
M  V30 33 H 4.472377 -7.675095 3.708440 0
M  V30 34 H 4.316717 -8.899102 2.450209 0
M  V30 35 H 2.841400 -7.896266 2.949147 0
M  V30 36 H 3.923039 -5.317674 3.197716 0
M  V30 37 H 4.822259 -0.799171 3.980630 0
M  V30 38 H 3.471700 1.113592 2.280984 0
M  V30 39 H 2.750535 2.206103 -0.672618 0
M  V30 40 H 0.781063 3.560223 -0.960463 0
M  V30 41 H -1.492081 4.192753 -0.523520 0
M  V30 42 H -1.348064 3.245314 0.986134 0
M  V30 43 H -1.968688 1.193852 -0.028363 0
M  V30 44 H -1.943991 1.971168 -1.698058 0
M  V30 45 H -4.426626 0.916869 -1.090435 0
M  V30 46 H -5.813402 4.034741 0.549711 0
M  V30 47 H -8.150168 4.471412 0.905207 0
M  V30 48 H -9.842927 2.767023 0.152501 0
M  V30 49 H -9.030673 0.749117 -0.904007 0
M  V30 50 H 3.082482 -2.741881 -0.715238 0
M  V30 51 H 5.123947 -4.003990 -0.675001 0
M  V30 52 H 5.236559 -6.380610 -1.426484 0
M  V30 END ATOM
M  V30 BEGIN BOND
M  V30 1 1 1 2
M  V30 2 2 2 3
M  V30 3 1 3 4
M  V30 4 1 4 5
M  V30 5 2 5 6
M  V30 6 1 6 7
M  V30 7 1 7 8
M  V30 8 2 8 9
M  V30 9 1 9 10
M  V30 10 1 10 11
M  V30 11 1 11 12
M  V30 12 2 12 13
M  V30 13 1 12 14
M  V30 14 1 14 15
M  V30 15 1 15 16
M  V30 16 1 16 17
M  V30 17 2 17 18
M  V30 18 1 17 19
M  V30 19 1 19 20
M  V30 20 2 20 21
M  V30 21 1 21 22
M  V30 22 2 22 23
M  V30 23 1 23 24
M  V30 24 2 24 25
M  V30 25 1 25 26
M  V30 26 2 10 27
M  V30 27 1 27 28
M  V30 28 2 28 29
M  V30 29 2 4 30
M  V30 30 1 30 31
M  V30 31 2 31 32
M  V30 32 1 32 2
M  V30 33 1 29 5
M  V30 34 1 29 8
M  V30 35 1 25 20
M  V30 36 1 1 33
M  V30 37 1 1 34
M  V30 38 1 1 35
M  V30 39 1 3 36
M  V30 40 1 7 37
M  V30 41 1 9 38
M  V30 42 1 11 39
M  V30 43 1 14 40
M  V30 44 1 15 41
M  V30 45 1 15 42
M  V30 46 1 16 43
M  V30 47 1 16 44
M  V30 48 1 19 45
M  V30 49 1 21 46
M  V30 50 1 22 47
M  V30 51 1 23 48
M  V30 52 1 24 49
M  V30 53 1 28 50
M  V30 54 1 30 51
M  V30 55 1 31 52
M  V30 END BOND
M  V30 END CTAB
M  END
>  <Dataset>  (107) 
ChEMBL_Kinases

>  <Ligand_Instance>  (107) 
nan

>  <PDB_ID>  (107) 
nan

>  <Standardized_SMILES>  (107) 
Cc1cc(-c2n[nH]c3cc(NC(=O)NCCC(=O)Nc4ccccc4Br)ncc23)ccn1

>  <Name>  (107) 
nan

>  <Pocket>  (107) 
nan

>  <ATP_Site>  (107) 
nan

>  <Peripheral>  (107) 
nan

>  <Num_H_Atoms_ProtBoundConf>  (107) 
nan

>  <Num_Resolved_Atoms>  (107) 
nan

>  <Num_Not_Resolved_Atoms>  (107) 
nan

$$$$
CHEMBL3658762
     RDKit          3D

  0  0  0  0  0  0  0  0  0  0999 V3000
M  V30 BEGIN CTAB
M  V30 COUNTS 61 65 0 0 0
M  V30 BEGIN ATOM
M  V30 1 C 5.829697 -3.316820 6.568311 0
M  V30 2 C 5.005091 -2.098699 6.745465 0
M  V30 3 C 4.690364 -1.281622 5.661504 0
M  V30 4 C 3.907302 -0.148577 5.905752 0
M  V30 5 C 3.554223 0.738784 4.784248 0
M  V30 6 N 3.627692 2.080327 4.834413 0
M  V30 7 N 3.249790 2.630407 3.681886 0
M  V30 8 C 2.915504 1.629364 2.841004 0
M  V30 9 C 2.459826 1.571758 1.537366 0
M  V30 10 C 2.206696 0.339573 0.957169 0
M  V30 11 N 1.736290 0.249754 -0.385854 0
M  V30 12 C 0.327338 0.262201 -0.560686 0
M  V30 13 O -0.414540 0.350856 0.445673 0
M  V30 14 N -0.314824 0.180466 -1.805525 0
M  V30 15 C -1.626372 0.135201 -2.393277 0
M  V30 16 C -2.483208 -1.038476 -2.090725 0
M  V30 17 N -3.737774 -0.851089 -2.799655 0
M  V30 18 C -4.289182 -0.714794 -4.095749 0
M  V30 19 C -5.657515 -0.539725 -4.344153 0
M  V30 20 C -6.063691 -0.419814 -5.646383 0
M  V30 21 C -5.197361 -0.463337 -6.704577 0
M  V30 22 C -3.858493 -0.632872 -6.494541 0
M  V30 23 C -3.441366 -0.754589 -5.184088 0
M  V30 24 C -2.736303 -1.261339 -0.607232 0
M  V30 25 C -3.829248 -2.323709 -0.497704 0
M  V30 26 O -3.860951 -3.125897 -1.610739 0
M  V30 27 C -2.572630 -3.518854 -1.990866 0
M  V30 28 C -1.772161 -2.324797 -2.534809 0
M  V30 29 N 2.402697 -0.799072 1.657461 0
M  V30 30 C 2.850112 -0.802615 2.944675 0
M  V30 31 C 3.097405 0.432766 3.507708 0
M  V30 32 C 3.477472 0.114560 7.213185 0
M  V30 33 C 3.846088 -0.765318 8.231571 0
M  V30 34 N 4.598679 -1.856926 8.005046 0
M  V30 35 H 5.450531 -4.118123 7.267828 0
M  V30 36 H 5.722366 -3.772429 5.543683 0
M  V30 37 H 6.883696 -3.154773 6.856225 0
M  V30 38 H 5.051909 -1.542525 4.696688 0
M  V30 39 H 3.179512 3.607370 3.362342 0
M  V30 40 H 2.302883 2.485989 0.976504 0
M  V30 41 H 2.355839 0.177399 -1.204184 0
M  V30 42 H 0.415912 0.131947 -2.588996 0
M  V30 43 H -2.184006 1.016843 -1.876258 0
M  V30 44 H -1.641193 0.450260 -3.434100 0
M  V30 45 H -4.526185 -0.789949 -2.084983 0
M  V30 46 H -6.347071 -0.506119 -3.487610 0
M  V30 47 H -7.133221 -0.290122 -5.725083 0
M  V30 48 H -5.696412 -0.352525 -7.642154 0
M  V30 49 H -3.272382 -0.652067 -7.391793 0
M  V30 50 H -2.368930 -0.880443 -5.192161 0
M  V30 51 H -2.973904 -0.368645 -0.044110 0
M  V30 52 H -1.829171 -1.762527 -0.202457 0
M  V30 53 H -4.807246 -1.826723 -0.379379 0
M  V30 54 H -3.679713 -2.935450 0.439391 0
M  V30 55 H -2.095318 -3.939142 -1.068088 0
M  V30 56 H -2.646796 -4.341206 -2.712265 0
M  V30 57 H -0.809738 -2.308859 -1.969024 0
M  V30 58 H -1.655680 -2.405482 -3.604387 0
M  V30 59 H 2.995843 -1.736893 3.478852 0
M  V30 60 H 2.871267 0.990346 7.405826 0
M  V30 61 H 3.482747 -0.513843 9.239251 0
M  V30 END ATOM
M  V30 BEGIN BOND
M  V30 1 1 1 2
M  V30 2 2 2 3
M  V30 3 1 3 4
M  V30 4 1 4 5
M  V30 5 2 5 6
M  V30 6 1 6 7
M  V30 7 1 7 8
M  V30 8 2 8 9
M  V30 9 1 9 10
M  V30 10 1 10 11
M  V30 11 1 11 12
M  V30 12 2 12 13
M  V30 13 1 12 14
M  V30 14 1 14 15
M  V30 15 1 15 16
M  V30 16 1 16 17
M  V30 17 1 17 18
M  V30 18 2 18 19
M  V30 19 1 19 20
M  V30 20 2 20 21
M  V30 21 1 21 22
M  V30 22 2 22 23
M  V30 23 1 16 24
M  V30 24 1 24 25
M  V30 25 1 25 26
M  V30 26 1 26 27
M  V30 27 1 27 28
M  V30 28 2 10 29
M  V30 29 1 29 30
M  V30 30 2 30 31
M  V30 31 2 4 32
M  V30 32 1 32 33
M  V30 33 2 33 34
M  V30 34 1 34 2
M  V30 35 1 31 5
M  V30 36 1 31 8
M  V30 37 1 28 16
M  V30 38 1 23 18
M  V30 39 1 1 35
M  V30 40 1 1 36
M  V30 41 1 1 37
M  V30 42 1 3 38
M  V30 43 1 7 39
M  V30 44 1 9 40
M  V30 45 1 11 41
M  V30 46 1 14 42
M  V30 47 1 15 43
M  V30 48 1 15 44
M  V30 49 1 17 45
M  V30 50 1 19 46
M  V30 51 1 20 47
M  V30 52 1 21 48
M  V30 53 1 22 49
M  V30 54 1 23 50
M  V30 55 1 24 51
M  V30 56 1 24 52
M  V30 57 1 25 53
M  V30 58 1 25 54
M  V30 59 1 27 55
M  V30 60 1 27 56
M  V30 61 1 28 57
M  V30 62 1 28 58
M  V30 63 1 30 59
M  V30 64 1 32 60
M  V30 65 1 33 61
M  V30 END BOND
M  V30 END CTAB
M  END
>  <Dataset>  (108) 
ChEMBL_Kinases

>  <Ligand_Instance>  (108) 
nan

>  <PDB_ID>  (108) 
nan

>  <Standardized_SMILES>  (108) 
Cc1cc(-c2n[nH]c3cc(NC(=O)NCC4(Nc5ccccc5)CCOCC4)ncc23)ccn1

>  <Name>  (108) 
nan

>  <Pocket>  (108) 
nan

>  <ATP_Site>  (108) 
nan

>  <Peripheral>  (108) 
nan

>  <Num_H_Atoms_ProtBoundConf>  (108) 
nan

>  <Num_Resolved_Atoms>  (108) 
nan

>  <Num_Not_Resolved_Atoms>  (108) 
nan

$$$$
CHEMBL3658761
     RDKit          3D

  0  0  0  0  0  0  0  0  0  0999 V3000
M  V30 BEGIN CTAB
M  V30 COUNTS 51 55 0 0 0
M  V30 BEGIN ATOM
M  V30 1 C 0.697371 -5.502129 6.252717 0
M  V30 2 C 1.476243 -5.172136 5.020668 0
M  V30 3 C 1.846950 -3.871742 4.727937 0
M  V30 4 C 2.575015 -3.638356 3.556977 0
M  V30 5 C 2.916183 -2.236781 3.340175 0
M  V30 6 N 3.403303 -1.361112 4.250768 0
M  V30 7 N 3.591442 -0.183053 3.691939 0
M  V30 8 C 3.221923 -0.285671 2.392271 0
M  V30 9 C 3.241238 0.687365 1.411096 0
M  V30 10 C 2.805305 0.297577 0.169172 0
M  V30 11 N 2.745101 1.153179 -0.988347 0
M  V30 12 C 1.560845 1.916183 -1.275293 0
M  V30 13 O 0.630999 1.777284 -0.467967 0
M  V30 14 N 1.448891 2.763632 -2.387276 0
M  V30 15 C 0.288113 3.551970 -2.725321 0
M  V30 16 C -0.934931 2.787105 -2.960109 0
M  V30 17 N -1.294354 2.313162 -4.167427 0
M  V30 18 N -2.443494 1.681102 -3.995374 0
M  V30 19 C -2.818475 1.742801 -2.716019 0
M  V30 20 C -4.016678 1.173415 -2.127372 0
M  V30 21 C -4.282439 1.313319 -0.781765 0
M  V30 22 C -5.405172 0.791859 -0.175156 0
M  V30 23 C -6.314502 0.087688 -0.970263 0
M  V30 24 C -6.075948 -0.072259 -2.334980 0
M  V30 25 C -4.929291 0.474496 -2.889769 0
M  V30 26 N -1.876503 2.434692 -2.063752 0
M  V30 27 N 2.380079 -0.962237 -0.088624 0
M  V30 28 C 2.358383 -1.917470 0.864162 0
M  V30 29 C 2.787569 -1.570967 2.127251 0
M  V30 30 C 2.889994 -4.702569 2.751117 0
M  V30 31 C 2.509833 -5.988157 3.063633 0
M  V30 32 N 1.808454 -6.185981 4.198609 0
M  V30 33 H 1.396718 -5.702494 7.114910 0
M  V30 34 H 0.083212 -4.638996 6.563520 0
M  V30 35 H 0.033380 -6.366268 6.092402 0
M  V30 36 H 1.556923 -3.106327 5.414872 0
M  V30 37 H 3.958527 0.661182 4.178295 0
M  V30 38 H 3.559466 1.705891 1.521938 0
M  V30 39 H 3.549694 1.242976 -1.644400 0
M  V30 40 H 2.313376 2.784653 -2.986449 0
M  V30 41 H 0.135903 4.242197 -1.846335 0
M  V30 42 H 0.520891 4.158617 -3.617622 0
M  V30 43 H -3.595477 1.858687 -0.119959 0
M  V30 44 H -5.624075 0.896288 0.883854 0
M  V30 45 H -7.207242 -0.335795 -0.528308 0
M  V30 46 H -6.804684 -0.624400 -2.916590 0
M  V30 47 H -4.773116 0.333310 -3.949699 0
M  V30 48 H -1.914405 2.635107 -1.049070 0
M  V30 49 H 2.023308 -2.914934 0.666154 0
M  V30 50 H 3.456225 -4.460254 1.856055 0
M  V30 51 H 2.787633 -6.792358 2.387413 0
M  V30 END ATOM
M  V30 BEGIN BOND
M  V30 1 1 1 2
M  V30 2 2 2 3
M  V30 3 1 3 4
M  V30 4 1 4 5
M  V30 5 2 5 6
M  V30 6 1 6 7
M  V30 7 1 7 8
M  V30 8 2 8 9
M  V30 9 1 9 10
M  V30 10 1 10 11
M  V30 11 1 11 12
M  V30 12 2 12 13
M  V30 13 1 12 14
M  V30 14 1 14 15
M  V30 15 1 15 16
M  V30 16 2 16 17
M  V30 17 1 17 18
M  V30 18 2 18 19
M  V30 19 1 19 20
M  V30 20 2 20 21
M  V30 21 1 21 22
M  V30 22 2 22 23
M  V30 23 1 23 24
M  V30 24 2 24 25
M  V30 25 1 19 26
M  V30 26 2 10 27
M  V30 27 1 27 28
M  V30 28 2 28 29
M  V30 29 2 4 30
M  V30 30 1 30 31
M  V30 31 2 31 32
M  V30 32 1 32 2
M  V30 33 1 29 5
M  V30 34 1 29 8
M  V30 35 1 26 16
M  V30 36 1 25 20
M  V30 37 1 1 33
M  V30 38 1 1 34
M  V30 39 1 1 35
M  V30 40 1 3 36
M  V30 41 1 7 37
M  V30 42 1 9 38
M  V30 43 1 11 39
M  V30 44 1 14 40
M  V30 45 1 15 41
M  V30 46 1 15 42
M  V30 47 1 21 43
M  V30 48 1 22 44
M  V30 49 1 23 45
M  V30 50 1 24 46
M  V30 51 1 25 47
M  V30 52 1 26 48
M  V30 53 1 28 49
M  V30 54 1 30 50
M  V30 55 1 31 51
M  V30 END BOND
M  V30 END CTAB
M  END
>  <Dataset>  (109) 
ChEMBL_Kinases

>  <Ligand_Instance>  (109) 
nan

>  <PDB_ID>  (109) 
nan

>  <Standardized_SMILES>  (109) 
Cc1cc(-c2n[nH]c3cc(NC(=O)NCc4nnc(-c5ccccc5)[nH]4)ncc23)ccn1

>  <Name>  (109) 
nan

>  <Pocket>  (109) 
nan

>  <ATP_Site>  (109) 
nan

>  <Peripheral>  (109) 
nan

>  <Num_H_Atoms_ProtBoundConf>  (109) 
nan

>  <Num_Resolved_Atoms>  (109) 
nan

>  <Num_Not_Resolved_Atoms>  (109) 
nan

$$$$
CHEMBL3658760
     RDKit          3D

  0  0  0  0  0  0  0  0  0  0999 V3000
M  V30 BEGIN CTAB
M  V30 COUNTS 50 54 0 0 0
M  V30 BEGIN ATOM
M  V30 1 C 2.344728 -7.140571 -1.295262 0
M  V30 2 C 3.412011 -6.126308 -1.521981 0
M  V30 3 C 3.304367 -4.911056 -0.849833 0
M  V30 4 C 4.277470 -3.922220 -1.024983 0
M  V30 5 C 4.243830 -2.623707 -0.362198 0
M  V30 6 N 5.258018 -1.986479 0.243407 0
M  V30 7 N 4.858218 -0.817521 0.739547 0
M  V30 8 C 3.565638 -0.725285 0.435689 0
M  V30 9 C 2.717379 0.307631 0.739444 0
M  V30 10 C 1.399656 0.221621 0.336506 0
M  V30 11 N 0.320053 1.142508 0.519368 0
M  V30 12 C -0.490969 1.009720 1.706212 0
M  V30 13 O -0.284558 0.122494 2.576355 0
M  V30 14 N -1.528118 1.977074 1.776676 0
M  V30 15 C -2.518894 2.120811 2.837153 0
M  V30 16 C -2.340985 3.510146 3.416044 0
M  V30 17 C -2.814975 4.563809 2.510183 0
M  V30 18 O -2.233824 5.640991 2.209549 0
M  V30 19 N -4.087264 4.377719 1.874360 0
M  V30 20 C -4.604289 3.047246 1.706275 0
M  V30 21 C -5.813958 2.811340 1.105935 0
M  V30 22 C -6.307611 1.518621 0.947004 0
M  V30 23 C -5.519486 0.502821 1.422261 0
M  V30 24 F -5.977235 -0.778685 1.280826 0
M  V30 25 C -4.290489 0.666124 2.037687 0
M  V30 26 C -3.849886 1.987327 2.167498 0
M  V30 27 N 0.957498 -0.870858 -0.349075 0
M  V30 28 C 1.797379 -1.898497 -0.652381 0
M  V30 29 C 3.116788 -1.834853 -0.260558 0
M  V30 30 C 5.332415 -4.178131 -1.869249 0
M  V30 31 C 5.416669 -5.403736 -2.530575 0
M  V30 32 N 4.456937 -6.325649 -2.331550 0
M  V30 33 H 2.169923 -7.159798 -0.204189 0
M  V30 34 H 2.637827 -8.104980 -1.714244 0
M  V30 35 H 1.413134 -6.797694 -1.809272 0
M  V30 36 H 2.485671 -4.703743 -0.190334 0
M  V30 37 H 5.472213 -0.142232 1.255999 0
M  V30 38 H 2.919455 1.225000 1.269097 0
M  V30 39 H 0.248965 1.833478 -0.270832 0
M  V30 40 H -1.702146 2.708811 1.063804 0
M  V30 41 H -2.361185 1.363412 3.602953 0
M  V30 42 H -1.270244 3.680066 3.622684 0
M  V30 43 H -2.946967 3.525102 4.363920 0
M  V30 44 H -4.682820 5.156165 1.514452 0
M  V30 45 H -6.428037 3.643995 0.732675 0
M  V30 46 H -7.261416 1.303182 0.475764 0
M  V30 47 H -3.706870 -0.182571 2.396561 0
M  V30 48 H 1.470618 -2.774755 -1.194699 0
M  V30 49 H 6.128547 -3.485317 -2.069816 0
M  V30 50 H 6.198340 -5.714006 -3.215594 0
M  V30 END ATOM
M  V30 BEGIN BOND
M  V30 1 1 1 2
M  V30 2 2 2 3
M  V30 3 1 3 4
M  V30 4 1 4 5
M  V30 5 2 5 6
M  V30 6 1 6 7
M  V30 7 1 7 8
M  V30 8 2 8 9
M  V30 9 1 9 10
M  V30 10 1 10 11
M  V30 11 1 11 12
M  V30 12 2 12 13
M  V30 13 1 12 14
M  V30 14 1 14 15
M  V30 15 1 15 16
M  V30 16 1 16 17
M  V30 17 2 17 18
M  V30 18 1 17 19
M  V30 19 1 19 20
M  V30 20 2 20 21
M  V30 21 1 21 22
M  V30 22 2 22 23
M  V30 23 1 23 24
M  V30 24 1 23 25
M  V30 25 2 25 26
M  V30 26 2 10 27
M  V30 27 1 27 28
M  V30 28 2 28 29
M  V30 29 2 4 30
M  V30 30 1 30 31
M  V30 31 2 31 32
M  V30 32 1 32 2
M  V30 33 1 29 5
M  V30 34 1 29 8
M  V30 35 1 26 15
M  V30 36 1 26 20
M  V30 37 1 1 33
M  V30 38 1 1 34
M  V30 39 1 1 35
M  V30 40 1 3 36
M  V30 41 1 7 37
M  V30 42 1 9 38
M  V30 43 1 11 39
M  V30 44 1 14 40
M  V30 45 1 15 41
M  V30 46 1 16 42
M  V30 47 1 16 43
M  V30 48 1 19 44
M  V30 49 1 21 45
M  V30 50 1 22 46
M  V30 51 1 25 47
M  V30 52 1 28 48
M  V30 53 1 30 49
M  V30 54 1 31 50
M  V30 END BOND
M  V30 END CTAB
M  END
>  <Dataset>  (110) 
ChEMBL_Kinases

>  <Ligand_Instance>  (110) 
nan

>  <PDB_ID>  (110) 
nan

>  <Standardized_SMILES>  (110) 
Cc1cc(-c2n[nH]c3cc(NC(=O)NC4CC(=O)Nc5ccc(F)cc54)ncc23)ccn1

>  <Name>  (110) 
nan

>  <Pocket>  (110) 
nan

>  <ATP_Site>  (110) 
nan

>  <Peripheral>  (110) 
nan

>  <Num_H_Atoms_ProtBoundConf>  (110) 
nan

>  <Num_Resolved_Atoms>  (110) 
nan

>  <Num_Not_Resolved_Atoms>  (110) 
nan

$$$$
CHEMBL3658759
     RDKit          3D

  0  0  0  0  0  0  0  0  0  0999 V3000
M  V30 BEGIN CTAB
M  V30 COUNTS 50 54 0 0 0
M  V30 BEGIN ATOM
M  V30 1 C -7.585016 0.472799 -5.179524 0
M  V30 2 C -6.376019 -0.394460 -5.406636 0
M  V30 3 C -5.513977 -0.717279 -4.354167 0
M  V30 4 C -4.394097 -1.524674 -4.584512 0
M  V30 5 C -3.545415 -1.812939 -3.430236 0
M  V30 6 N -3.094502 -3.076652 -3.190901 0
M  V30 7 N -2.349507 -3.069311 -2.089966 0
M  V30 8 C -2.298692 -1.837184 -1.600195 0
M  V30 9 C -1.719124 -1.179684 -0.524174 0
M  V30 10 C -1.870723 0.175961 -0.291328 0
M  V30 11 N -1.212044 0.696279 0.857559 0
M  V30 12 C 0.097797 1.211180 0.908712 0
M  V30 13 O 0.752306 1.212799 -0.163618 0
M  V30 14 N 0.582893 1.687154 2.153533 0
M  V30 15 C 1.918879 2.235514 2.312689 0
M  V30 16 C 2.973324 1.193041 2.345050 0
M  V30 17 C 3.684722 0.669564 1.296631 0
M  V30 18 C 4.636307 -0.303787 1.502004 0
M  V30 19 C 5.335991 -0.810933 0.424742 0
M  V30 20 C 6.306179 -1.798235 0.603704 0
M  V30 21 C 6.593932 -2.297017 1.869898 0
M  V30 22 C 5.888440 -1.779885 2.922314 0
M  V30 23 C 4.921442 -0.800330 2.770241 0
M  V30 24 C 4.178357 -0.240768 3.790898 0
M  V30 25 N 3.257664 0.701826 3.586694 0
M  V30 26 N -2.619408 0.904347 -1.150172 0
M  V30 27 C -3.217208 0.329851 -2.225030 0
M  V30 28 C -3.049660 -1.005272 -2.427409 0
M  V30 29 C -4.187247 -1.976023 -5.871425 0
M  V30 30 C -5.074829 -1.625886 -6.881813 0
M  V30 31 N -6.155290 -0.846135 -6.656410 0
M  V30 32 H -7.319715 1.549740 -5.370064 0
M  V30 33 H -7.956969 0.362130 -4.152297 0
M  V30 34 H -8.377220 0.208177 -5.877389 0
M  V30 35 H -5.810161 -0.287315 -3.401383 0
M  V30 36 H -1.850068 -3.858916 -1.619391 0
M  V30 37 H -1.124317 -1.797580 0.144826 0
M  V30 38 H -1.883909 0.622634 1.649111 0
M  V30 39 H -0.043208 1.643985 2.996021 0
M  V30 40 H 2.107132 2.872545 1.407081 0
M  V30 41 H 2.010343 2.867389 3.201348 0
M  V30 42 H 3.444469 1.070417 0.339567 0
M  V30 43 H 5.125767 -0.435890 -0.562556 0
M  V30 44 H 6.859152 -2.204955 -0.212840 0
M  V30 45 H 7.325588 -3.051231 2.062460 0
M  V30 46 H 5.999147 -2.065960 3.965364 0
M  V30 47 H 4.370920 -0.600658 4.791939 0
M  V30 48 H -3.809675 0.933472 -2.895858 0
M  V30 49 H -3.328844 -2.592236 -6.038152 0
M  V30 50 H -4.919218 -1.975867 -7.893454 0
M  V30 END ATOM
M  V30 BEGIN BOND
M  V30 1 1 1 2
M  V30 2 2 2 3
M  V30 3 1 3 4
M  V30 4 1 4 5
M  V30 5 2 5 6
M  V30 6 1 6 7
M  V30 7 1 7 8
M  V30 8 2 8 9
M  V30 9 1 9 10
M  V30 10 1 10 11
M  V30 11 1 11 12
M  V30 12 2 12 13
M  V30 13 1 12 14
M  V30 14 1 14 15
M  V30 15 1 15 16
M  V30 16 2 16 17
M  V30 17 1 17 18
M  V30 18 2 18 19
M  V30 19 1 19 20
M  V30 20 2 20 21
M  V30 21 1 21 22
M  V30 22 2 22 23
M  V30 23 1 23 24
M  V30 24 2 24 25
M  V30 25 2 10 26
M  V30 26 1 26 27
M  V30 27 2 27 28
M  V30 28 2 4 29
M  V30 29 1 29 30
M  V30 30 2 30 31
M  V30 31 1 31 2
M  V30 32 1 28 5
M  V30 33 1 28 8
M  V30 34 1 25 16
M  V30 35 1 23 18
M  V30 36 1 1 32
M  V30 37 1 1 33
M  V30 38 1 1 34
M  V30 39 1 3 35
M  V30 40 1 7 36
M  V30 41 1 9 37
M  V30 42 1 11 38
M  V30 43 1 14 39
M  V30 44 1 15 40
M  V30 45 1 15 41
M  V30 46 1 17 42
M  V30 47 1 19 43
M  V30 48 1 20 44
M  V30 49 1 21 45
M  V30 50 1 22 46
M  V30 51 1 24 47
M  V30 52 1 27 48
M  V30 53 1 29 49
M  V30 54 1 30 50
M  V30 END BOND
M  V30 END CTAB
M  END
>  <Dataset>  (111) 
ChEMBL_Kinases

>  <Ligand_Instance>  (111) 
nan

>  <PDB_ID>  (111) 
nan

>  <Standardized_SMILES>  (111) 
Cc1cc(-c2n[nH]c3cc(NC(=O)NCc4cc5ccccc5cn4)ncc23)ccn1

>  <Name>  (111) 
nan

>  <Pocket>  (111) 
nan

>  <ATP_Site>  (111) 
nan

>  <Peripheral>  (111) 
nan

>  <Num_H_Atoms_ProtBoundConf>  (111) 
nan

>  <Num_Resolved_Atoms>  (111) 
nan

>  <Num_Not_Resolved_Atoms>  (111) 
nan

$$$$
CHEMBL3658758
     RDKit          3D

  0  0  0  0  0  0  0  0  0  0999 V3000
M  V30 BEGIN CTAB
M  V30 COUNTS 45 48 0 0 0
M  V30 BEGIN ATOM
M  V30 1 C -3.578255 -5.042199 1.839378 0
M  V30 2 C -3.756139 -4.455937 0.485844 0
M  V30 3 C -2.736882 -3.733209 -0.079863 0
M  V30 4 C -2.820241 -3.158269 -1.326129 0
M  V30 5 C -1.772244 -2.381283 -1.976852 0
M  V30 6 N -1.348855 -2.463771 -3.234970 0
M  V30 7 N -0.377300 -1.601341 -3.481414 0
M  V30 8 C -0.121442 -0.903524 -2.364522 0
M  V30 9 C 0.769687 0.116443 -2.015791 0
M  V30 10 C 0.727991 0.591449 -0.719672 0
M  V30 11 N 1.609674 1.630167 -0.300395 0
M  V30 12 C 1.593866 2.141505 1.022639 0
M  V30 13 O 0.759946 1.623537 1.792218 0
M  V30 14 N 2.412177 3.161301 1.551722 0
M  V30 15 C 2.232529 3.530914 2.925603 0
M  V30 16 C 2.456126 2.424036 3.919877 0
M  V30 17 C 3.836554 1.876142 3.844112 0
M  V30 18 C 4.070457 0.806661 2.973182 0
M  V30 19 N 5.376153 0.513903 3.099632 0
M  V30 20 N 5.961175 1.319112 3.979005 0
M  V30 21 C 5.031448 2.182059 4.464007 0
M  V30 22 N -0.139614 0.096442 0.191234 0
M  V30 23 C -1.011088 -0.887447 -0.115711 0
M  V30 24 C -0.989178 -1.378770 -1.403681 0
M  V30 25 C -4.012361 -3.336765 -2.023789 0
M  V30 26 C -5.023430 -4.063376 -1.442876 0
M  V30 27 N -4.890019 -4.608110 -0.213614 0
M  V30 28 H -3.273028 -6.099937 1.685269 0
M  V30 29 H -4.590426 -5.086619 2.298440 0
M  V30 30 H -2.844724 -4.493353 2.443234 0
M  V30 31 H -1.822383 -3.600572 0.464071 0
M  V30 32 H 0.186395 -1.387017 -4.342621 0
M  V30 33 H 1.452836 0.497586 -2.754678 0
M  V30 34 H 2.305160 2.063040 -0.939984 0
M  V30 35 H 3.110791 3.580935 0.871127 0
M  V30 36 H 1.236532 3.969939 3.140373 0
M  V30 37 H 2.956613 4.335685 3.174313 0
M  V30 38 H 1.684776 1.646827 3.938859 0
M  V30 39 H 2.382642 2.914579 4.922185 0
M  V30 40 H 3.493555 0.207955 2.277633 0
M  V30 41 H 6.940455 1.384151 4.323903 0
M  V30 42 H 5.078065 2.988528 5.186284 0
M  V30 43 H -1.663931 -1.215609 0.680979 0
M  V30 44 H -4.134897 -2.903236 -3.016671 0
M  V30 45 H -5.930333 -4.175557 -2.021746 0
M  V30 END ATOM
M  V30 BEGIN BOND
M  V30 1 1 1 2
M  V30 2 2 2 3
M  V30 3 1 3 4
M  V30 4 1 4 5
M  V30 5 2 5 6
M  V30 6 1 6 7
M  V30 7 1 7 8
M  V30 8 2 8 9
M  V30 9 1 9 10
M  V30 10 1 10 11
M  V30 11 1 11 12
M  V30 12 2 12 13
M  V30 13 1 12 14
M  V30 14 1 14 15
M  V30 15 1 15 16
M  V30 16 1 16 17
M  V30 17 1 17 18
M  V30 18 2 18 19
M  V30 19 1 19 20
M  V30 20 1 20 21
M  V30 21 2 10 22
M  V30 22 1 22 23
M  V30 23 2 23 24
M  V30 24 2 4 25
M  V30 25 1 25 26
M  V30 26 2 26 27
M  V30 27 1 27 2
M  V30 28 1 24 5
M  V30 29 1 24 8
M  V30 30 2 21 17
M  V30 31 1 1 28
M  V30 32 1 1 29
M  V30 33 1 1 30
M  V30 34 1 3 31
M  V30 35 1 7 32
M  V30 36 1 9 33
M  V30 37 1 11 34
M  V30 38 1 14 35
M  V30 39 1 15 36
M  V30 40 1 15 37
M  V30 41 1 16 38
M  V30 42 1 16 39
M  V30 43 1 18 40
M  V30 44 1 20 41
M  V30 45 1 21 42
M  V30 46 1 23 43
M  V30 47 1 25 44
M  V30 48 1 26 45
M  V30 END BOND
M  V30 END CTAB
M  END
>  <Dataset>  (112) 
ChEMBL_Kinases

>  <Ligand_Instance>  (112) 
nan

>  <PDB_ID>  (112) 
nan

>  <Standardized_SMILES>  (112) 
Cc1cc(-c2n[nH]c3cc(NC(=O)NCCc4cn[nH]c4)ncc23)ccn1

>  <Name>  (112) 
nan

>  <Pocket>  (112) 
nan

>  <ATP_Site>  (112) 
nan

>  <Peripheral>  (112) 
nan

>  <Num_H_Atoms_ProtBoundConf>  (112) 
nan

>  <Num_Resolved_Atoms>  (112) 
nan

>  <Num_Not_Resolved_Atoms>  (112) 
nan

$$$$
CHEMBL3658757
     RDKit          3D

  0  0  0  0  0  0  0  0  0  0999 V3000
M  V30 BEGIN CTAB
M  V30 COUNTS 51 55 0 0 0
M  V30 BEGIN ATOM
M  V30 1 C -1.367042 -5.677247 2.937830 0
M  V30 2 C 0.090030 -5.808335 2.690401 0
M  V30 3 C 0.832095 -4.682219 2.388362 0
M  V30 4 C 2.201566 -4.756906 2.148140 0
M  V30 5 C 3.001841 -3.564306 1.823684 0
M  V30 6 N 4.201684 -3.237961 2.346994 0
M  V30 7 N 4.656053 -2.095370 1.839303 0
M  V30 8 C 3.698068 -1.712772 0.975829 0
M  V30 9 C 3.711818 -0.573716 0.194830 0
M  V30 10 C 2.623345 -0.366689 -0.628898 0
M  V30 11 N 2.368787 0.712547 -1.535758 0
M  V30 12 C 1.666020 1.843664 -0.987437 0
M  V30 13 O 1.313190 1.838207 0.240348 0
M  V30 14 N 1.296290 3.028605 -1.679226 0
M  V30 15 C 0.579964 4.046271 -0.895446 0
M  V30 16 C -0.841486 3.597279 -0.708471 0
M  V30 17 C -1.929124 3.865534 -1.544079 0
M  V30 18 N -2.981639 3.273616 -0.990621 0
M  V30 19 C -4.264671 3.225694 -1.393435 0
M  V30 20 C -5.247124 2.547450 -0.675487 0
M  V30 21 C -4.889939 1.891757 0.506971 0
M  V30 22 C -3.559419 1.966275 0.884855 0
M  V30 23 C -3.109373 1.287545 2.139673 0
M  V30 24 C -2.605680 2.657093 0.136069 0
M  V30 25 N -1.285963 2.847186 0.325189 0
M  V30 26 N 1.579801 -1.242098 -0.674307 0
M  V30 27 C 1.559071 -2.361782 0.088778 0
M  V30 28 C 2.633360 -2.589748 0.918251 0
M  V30 29 C 2.816764 -5.994130 2.217582 0
M  V30 30 C 2.033689 -7.099986 2.524225 0
M  V30 31 N 0.713692 -6.983759 2.749255 0
M  V30 32 H -1.859009 -5.004081 2.204676 0
M  V30 33 H -1.799166 -6.684495 2.762962 0
M  V30 34 H -1.607089 -5.390974 3.972467 0
M  V30 35 H 0.325727 -3.727398 2.341532 0
M  V30 36 H 5.538676 -1.634275 2.071335 0
M  V30 37 H 4.455697 0.207397 0.118086 0
M  V30 38 H 2.598717 0.844143 -2.547866 0
M  V30 39 H 1.579260 3.056456 -2.702957 0
M  V30 40 H 0.646681 5.021521 -1.392060 0
M  V30 41 H 1.028683 4.110882 0.099513 0
M  V30 42 H -1.849377 4.452707 -2.453216 0
M  V30 43 H -4.601316 3.712404 -2.297462 0
M  V30 44 H -6.283206 2.475394 -0.947172 0
M  V30 45 H -5.550366 1.333493 1.153089 0
M  V30 46 H -2.426177 1.974597 2.669392 0
M  V30 47 H -3.960665 1.110345 2.803899 0
M  V30 48 H -2.612676 0.338284 1.815816 0
M  V30 49 H 0.747294 -3.074992 0.075109 0
M  V30 50 H 3.887757 -6.071702 2.032749 0
M  V30 51 H 2.492593 -8.058112 2.581363 0
M  V30 END ATOM
M  V30 BEGIN BOND
M  V30 1 1 1 2
M  V30 2 2 2 3
M  V30 3 1 3 4
M  V30 4 1 4 5
M  V30 5 2 5 6
M  V30 6 1 6 7
M  V30 7 1 7 8
M  V30 8 2 8 9
M  V30 9 1 9 10
M  V30 10 1 10 11
M  V30 11 1 11 12
M  V30 12 2 12 13
M  V30 13 1 12 14
M  V30 14 1 14 15
M  V30 15 1 15 16
M  V30 16 2 16 17
M  V30 17 1 17 18
M  V30 18 1 18 19
M  V30 19 2 19 20
M  V30 20 1 20 21
M  V30 21 2 21 22
M  V30 22 1 22 23
M  V30 23 1 22 24
M  V30 24 2 24 25
M  V30 25 2 10 26
M  V30 26 1 26 27
M  V30 27 2 27 28
M  V30 28 2 4 29
M  V30 29 1 29 30
M  V30 30 2 30 31
M  V30 31 1 31 2
M  V30 32 1 28 5
M  V30 33 1 28 8
M  V30 34 1 25 16
M  V30 35 1 24 18
M  V30 36 1 1 32
M  V30 37 1 1 33
M  V30 38 1 1 34
M  V30 39 1 3 35
M  V30 40 1 7 36
M  V30 41 1 9 37
M  V30 42 1 11 38
M  V30 43 1 14 39
M  V30 44 1 15 40
M  V30 45 1 15 41
M  V30 46 1 17 42
M  V30 47 1 19 43
M  V30 48 1 20 44
M  V30 49 1 21 45
M  V30 50 1 23 46
M  V30 51 1 23 47
M  V30 52 1 23 48
M  V30 53 1 27 49
M  V30 54 1 29 50
M  V30 55 1 30 51
M  V30 END BOND
M  V30 END CTAB
M  END
>  <Dataset>  (113) 
ChEMBL_Kinases

>  <Ligand_Instance>  (113) 
nan

>  <PDB_ID>  (113) 
nan

>  <Standardized_SMILES>  (113) 
Cc1cc(-c2n[nH]c3cc(NC(=O)NCc4cn5cccc(C)c5n4)ncc23)ccn1

>  <Name>  (113) 
nan

>  <Pocket>  (113) 
nan

>  <ATP_Site>  (113) 
nan

>  <Peripheral>  (113) 
nan

>  <Num_H_Atoms_ProtBoundConf>  (113) 
nan

>  <Num_Resolved_Atoms>  (113) 
nan

>  <Num_Not_Resolved_Atoms>  (113) 
nan

$$$$
CHEMBL3658756
     RDKit          3D

  0  0  0  0  0  0  0  0  0  0999 V3000
M  V30 BEGIN CTAB
M  V30 COUNTS 51 55 0 0 0
M  V30 BEGIN ATOM
M  V30 1 C 3.141133 -6.551756 6.071552 0
M  V30 2 C 2.433311 -5.414569 5.400718 0
M  V30 3 C 3.076627 -4.394928 4.715174 0
M  V30 4 C 2.334704 -3.390146 4.130748 0
M  V30 5 C 2.987297 -2.303303 3.403668 0
M  V30 6 N 4.071420 -1.607878 3.805525 0
M  V30 7 N 4.418670 -0.686899 2.922226 0
M  V30 8 C 3.520134 -0.806627 1.927200 0
M  V30 9 C 3.450930 -0.065708 0.763153 0
M  V30 10 C 2.429669 -0.375756 -0.115660 0
M  V30 11 N 2.151906 0.241324 -1.372509 0
M  V30 12 C 1.284568 1.362683 -1.443844 0
M  V30 13 O 0.771850 1.790221 -0.363902 0
M  V30 14 N 0.937197 2.059477 -2.653518 0
M  V30 15 C 0.021323 3.185837 -2.449620 0
M  V30 16 C -1.365786 2.699044 -2.220083 0
M  V30 17 C -2.405241 2.436633 -3.090526 0
M  V30 18 N -3.486003 2.006339 -2.389577 0
M  V30 19 C -4.728618 1.623366 -2.720962 0
M  V30 20 C -5.128387 1.629136 -4.139015 0
M  V30 21 C -5.605640 1.231414 -1.714754 0
M  V30 22 C -5.246692 1.218822 -0.362924 0
M  V30 23 C -3.960783 1.616497 -0.033368 0
M  V30 24 C -3.142585 1.993594 -1.088254 0
M  V30 25 N -1.866489 2.410381 -0.984890 0
M  V30 26 N 1.529783 -1.361960 0.143493 0
M  V30 27 C 1.590332 -2.089315 1.276635 0
M  V30 28 C 2.598094 -1.804949 2.175154 0
M  V30 29 C 0.959477 -3.459964 4.265829 0
M  V30 30 C 0.330046 -4.489432 4.956620 0
M  V30 31 N 1.074549 -5.471137 5.526357 0
M  V30 32 H 3.085297 -6.460635 7.178784 0
M  V30 33 H 2.755230 -7.535526 5.745126 0
M  V30 34 H 4.201901 -6.487001 5.786116 0
M  V30 35 H 4.153268 -4.423258 4.661781 0
M  V30 36 H 5.215013 -0.015938 2.985192 0
M  V30 37 H 4.097266 0.737876 0.438935 0
M  V30 38 H 2.569073 -0.102257 -2.271426 0
M  V30 39 H 1.389132 1.664158 -3.520709 0
M  V30 40 H 0.039176 3.895207 -3.305215 0
M  V30 41 H 0.361147 3.726423 -1.543559 0
M  V30 42 H -2.331758 2.565002 -4.147559 0
M  V30 43 H -5.175563 2.649097 -4.544234 0
M  V30 44 H -6.137560 1.133582 -4.216190 0
M  V30 45 H -4.405391 0.965931 -4.679564 0
M  V30 46 H -6.612561 0.919382 -1.967014 0
M  V30 47 H -5.947907 0.909298 0.402313 0
M  V30 48 H -3.640470 1.624134 0.981624 0
M  V30 49 H 0.888340 -2.878836 1.507613 0
M  V30 50 H 0.320813 -2.703020 3.831225 0
M  V30 51 H -0.753537 -4.540772 5.060774 0
M  V30 END ATOM
M  V30 BEGIN BOND
M  V30 1 1 1 2
M  V30 2 2 2 3
M  V30 3 1 3 4
M  V30 4 1 4 5
M  V30 5 2 5 6
M  V30 6 1 6 7
M  V30 7 1 7 8
M  V30 8 2 8 9
M  V30 9 1 9 10
M  V30 10 1 10 11
M  V30 11 1 11 12
M  V30 12 2 12 13
M  V30 13 1 12 14
M  V30 14 1 14 15
M  V30 15 1 15 16
M  V30 16 2 16 17
M  V30 17 1 17 18
M  V30 18 1 18 19
M  V30 19 1 19 20
M  V30 20 2 19 21
M  V30 21 1 21 22
M  V30 22 2 22 23
M  V30 23 1 23 24
M  V30 24 2 24 25
M  V30 25 2 10 26
M  V30 26 1 26 27
M  V30 27 2 27 28
M  V30 28 2 4 29
M  V30 29 1 29 30
M  V30 30 2 30 31
M  V30 31 1 31 2
M  V30 32 1 28 5
M  V30 33 1 28 8
M  V30 34 1 25 16
M  V30 35 1 24 18
M  V30 36 1 1 32
M  V30 37 1 1 33
M  V30 38 1 1 34
M  V30 39 1 3 35
M  V30 40 1 7 36
M  V30 41 1 9 37
M  V30 42 1 11 38
M  V30 43 1 14 39
M  V30 44 1 15 40
M  V30 45 1 15 41
M  V30 46 1 17 42
M  V30 47 1 20 43
M  V30 48 1 20 44
M  V30 49 1 20 45
M  V30 50 1 21 46
M  V30 51 1 22 47
M  V30 52 1 23 48
M  V30 53 1 27 49
M  V30 54 1 29 50
M  V30 55 1 30 51
M  V30 END BOND
M  V30 END CTAB
M  END
>  <Dataset>  (114) 
ChEMBL_Kinases

>  <Ligand_Instance>  (114) 
nan

>  <PDB_ID>  (114) 
nan

>  <Standardized_SMILES>  (114) 
Cc1cc(-c2n[nH]c3cc(NC(=O)NCc4cn5c(C)cccc5n4)ncc23)ccn1

>  <Name>  (114) 
nan

>  <Pocket>  (114) 
nan

>  <ATP_Site>  (114) 
nan

>  <Peripheral>  (114) 
nan

>  <Num_H_Atoms_ProtBoundConf>  (114) 
nan

>  <Num_Resolved_Atoms>  (114) 
nan

>  <Num_Not_Resolved_Atoms>  (114) 
nan

$$$$
CHEMBL3658755
     RDKit          3D

  0  0  0  0  0  0  0  0  0  0999 V3000
M  V30 BEGIN CTAB
M  V30 COUNTS 51 55 0 0 0
M  V30 BEGIN ATOM
M  V30 1 C 2.287628 -4.545271 6.097528 0
M  V30 2 C 3.139138 -3.535406 5.425258 0
M  V30 3 C 4.498896 -3.624338 5.218119 0
M  V30 4 C 5.217869 -2.634766 4.580593 0
M  V30 5 C 4.518708 -1.521593 4.143431 0
M  V30 6 N 4.939976 -0.402266 3.494656 0
M  V30 7 C 3.888740 0.416027 3.272795 0
M  V30 8 C 3.928061 1.752724 2.582922 0
M  V30 9 N 3.717924 1.597630 1.159720 0
M  V30 10 C 2.445893 1.345546 0.581496 0
M  V30 11 O 1.457913 1.255281 1.355032 0
M  V30 12 N 2.300600 1.199177 -0.844838 0
M  V30 13 C 0.972132 0.949675 -1.287545 0
M  V30 14 C 0.694658 -0.416858 -1.333711 0
M  V30 15 C -0.560846 -0.856912 -1.744737 0
M  V30 16 N -1.174209 -2.023037 -1.911792 0
M  V30 17 N -2.410719 -1.806198 -2.339323 0
M  V30 18 C -2.630133 -0.466097 -2.461220 0
M  V30 19 C -3.923790 0.029014 -2.917905 0
M  V30 20 C -4.140123 1.023065 -3.860254 0
M  V30 21 C -5.431589 1.393483 -4.199093 0
M  V30 22 N -6.498259 0.804230 -3.628286 0
M  V30 23 C -6.328035 -0.163090 -2.710799 0
M  V30 24 C -7.489020 -0.845462 -2.050401 0
M  V30 25 C -5.065927 -0.541204 -2.364395 0
M  V30 26 C -1.454650 0.139257 -2.083455 0
M  V30 27 C -1.183518 1.487487 -2.038811 0
M  V30 28 N 0.042837 1.858463 -1.635245 0
M  V30 29 C 2.802436 -0.239558 3.808741 0
M  V30 30 N 3.175892 -1.420520 4.341278 0
M  V30 31 C 2.470543 -2.395316 4.968729 0
M  V30 32 H 1.541594 -4.996946 5.392348 0
M  V30 33 H 2.848730 -5.383544 6.524533 0
M  V30 34 H 1.654043 -4.067975 6.885465 0
M  V30 35 H 4.960743 -4.543307 5.600453 0
M  V30 36 H 6.287162 -2.763535 4.447744 0
M  V30 37 H 3.114549 2.412246 2.957445 0
M  V30 38 H 4.880218 2.281103 2.780153 0
M  V30 39 H 4.522943 1.672232 0.530202 0
M  V30 40 H 3.153268 1.283410 -1.439270 0
M  V30 41 H 1.389927 -1.210862 -1.069648 0
M  V30 42 H -0.665712 -2.911846 -1.707614 0
M  V30 43 H -3.235002 1.451932 -4.276829 0
M  V30 44 H -5.509954 2.184803 -4.950402 0
M  V30 45 H -7.659990 -0.363783 -1.063696 0
M  V30 46 H -8.397775 -0.808273 -2.665322 0
M  V30 47 H -7.184950 -1.885901 -1.843084 0
M  V30 48 H -4.942440 -1.332415 -1.613843 0
M  V30 49 H -1.915954 2.222787 -2.313542 0
M  V30 50 H 1.799040 0.097912 3.823271 0
M  V30 51 H 1.398235 -2.277913 5.107810 0
M  V30 END ATOM
M  V30 BEGIN BOND
M  V30 1 1 1 2
M  V30 2 1 2 3
M  V30 3 2 3 4
M  V30 4 1 4 5
M  V30 5 2 5 6
M  V30 6 1 6 7
M  V30 7 1 7 8
M  V30 8 1 8 9
M  V30 9 1 9 10
M  V30 10 2 10 11
M  V30 11 1 10 12
M  V30 12 1 12 13
M  V30 13 2 13 14
M  V30 14 1 14 15
M  V30 15 1 15 16
M  V30 16 1 16 17
M  V30 17 2 17 18
M  V30 18 1 18 19
M  V30 19 2 19 20
M  V30 20 1 20 21
M  V30 21 2 21 22
M  V30 22 1 22 23
M  V30 23 1 23 24
M  V30 24 2 23 25
M  V30 25 1 18 26
M  V30 26 1 26 27
M  V30 27 2 27 28
M  V30 28 2 7 29
M  V30 29 1 29 30
M  V30 30 1 30 31
M  V30 31 2 31 2
M  V30 32 1 30 5
M  V30 33 1 28 13
M  V30 34 2 26 15
M  V30 35 1 25 19
M  V30 36 1 1 32
M  V30 37 1 1 33
M  V30 38 1 1 34
M  V30 39 1 3 35
M  V30 40 1 4 36
M  V30 41 1 8 37
M  V30 42 1 8 38
M  V30 43 1 9 39
M  V30 44 1 12 40
M  V30 45 1 14 41
M  V30 46 1 16 42
M  V30 47 1 20 43
M  V30 48 1 21 44
M  V30 49 1 24 45
M  V30 50 1 24 46
M  V30 51 1 24 47
M  V30 52 1 25 48
M  V30 53 1 27 49
M  V30 54 1 29 50
M  V30 55 1 31 51
M  V30 END BOND
M  V30 END CTAB
M  END
>  <Dataset>  (115) 
ChEMBL_Kinases

>  <Ligand_Instance>  (115) 
nan

>  <PDB_ID>  (115) 
nan

>  <Standardized_SMILES>  (115) 
Cc1ccc2nc(CNC(=O)Nc3cc4[nH]nc(-c5ccnc(C)c5)c4cn3)cn2c1

>  <Name>  (115) 
nan

>  <Pocket>  (115) 
nan

>  <ATP_Site>  (115) 
nan

>  <Peripheral>  (115) 
nan

>  <Num_H_Atoms_ProtBoundConf>  (115) 
nan

>  <Num_Resolved_Atoms>  (115) 
nan

>  <Num_Not_Resolved_Atoms>  (115) 
nan

$$$$
CHEMBL3658754
     RDKit          3D

  0  0  0  0  0  0  0  0  0  0999 V3000
M  V30 BEGIN CTAB
M  V30 COUNTS 50 54 0 0 0
M  V30 BEGIN ATOM
M  V30 1 C 1.307652 -1.595180 -6.652407 0
M  V30 2 C 1.960457 -2.514778 -5.685785 0
M  V30 3 C 1.696338 -2.499495 -4.347236 0
M  V30 4 C 2.341961 -3.379586 -3.534330 0
M  V30 5 C 2.048926 -3.349169 -2.097179 0
M  V30 6 N 1.808145 -4.389995 -1.269279 0
M  V30 7 N 1.586214 -3.960903 -0.037695 0
M  V30 8 C 1.678504 -2.620036 -0.037077 0
M  V30 9 C 1.534280 -1.705110 0.980839 0
M  V30 10 C 1.680201 -0.356817 0.725061 0
M  V30 11 N 1.567809 0.727590 1.642117 0
M  V30 12 C 0.255195 1.299865 1.790731 0
M  V30 13 O -0.750776 0.897968 1.171409 0
M  V30 14 N 0.060478 2.387437 2.687146 0
M  V30 15 C -1.271862 2.929786 2.802325 0
M  V30 16 C -2.292383 1.974757 3.257396 0
M  V30 17 N -3.166832 1.462082 2.384766 0
M  V30 18 C -4.088874 0.589902 2.855452 0
M  V30 19 C -4.161351 0.215366 4.176389 0
M  V30 20 C -3.261377 0.742713 5.075038 0
M  V30 21 C -3.398584 0.314642 6.391259 0
M  V30 22 C -2.475379 0.859009 7.292010 0
M  V30 23 C -1.520294 1.744176 6.879695 0
M  V30 24 C -1.451970 2.117892 5.554226 0
M  V30 25 C -2.322592 1.631067 4.593999 0
M  V30 26 N 1.963603 0.046443 -0.526029 0
M  V30 27 C 2.106692 -0.861410 -1.536362 0
M  V30 28 C 1.968466 -2.212805 -1.319449 0
M  V30 29 C 3.264625 -4.307533 -3.971739 0
M  V30 30 C 3.494002 -4.275674 -5.352531 0
M  V30 31 N 2.858011 -3.405608 -6.168150 0
M  V30 32 H 0.278198 -1.974982 -6.881569 0
M  V30 33 H 1.249938 -0.561468 -6.220276 0
M  V30 34 H 1.849061 -1.577187 -7.603961 0
M  V30 35 H 0.975340 -1.767067 -4.048560 0
M  V30 36 H 1.376847 -4.565618 0.783511 0
M  V30 37 H 1.308992 -1.944497 2.002156 0
M  V30 38 H 2.403189 1.072961 2.166499 0
M  V30 39 H 0.886752 2.758555 3.233186 0
M  V30 40 H -1.563030 3.311256 1.783834 0
M  V30 41 H -1.229455 3.760331 3.535868 0
M  V30 42 H -4.769265 0.209096 2.100652 0
M  V30 43 H -4.949787 -0.486724 4.397113 0
M  V30 44 H -4.164183 -0.382015 6.669205 0
M  V30 45 H -2.570655 0.534768 8.320302 0
M  V30 46 H -0.831043 2.137004 7.608724 0
M  V30 47 H -0.689800 2.817801 5.243314 0
M  V30 48 H 2.335021 -0.509438 -2.531135 0
M  V30 49 H 3.773289 -5.002271 -3.324292 0
M  V30 50 H 4.212827 -4.978539 -5.789917 0
M  V30 END ATOM
M  V30 BEGIN BOND
M  V30 1 1 1 2
M  V30 2 2 2 3
M  V30 3 1 3 4
M  V30 4 1 4 5
M  V30 5 2 5 6
M  V30 6 1 6 7
M  V30 7 1 7 8
M  V30 8 2 8 9
M  V30 9 1 9 10
M  V30 10 1 10 11
M  V30 11 1 11 12
M  V30 12 2 12 13
M  V30 13 1 12 14
M  V30 14 1 14 15
M  V30 15 1 15 16
M  V30 16 2 16 17
M  V30 17 1 17 18
M  V30 18 2 18 19
M  V30 19 1 19 20
M  V30 20 2 20 21
M  V30 21 1 21 22
M  V30 22 2 22 23
M  V30 23 1 23 24
M  V30 24 2 24 25
M  V30 25 2 10 26
M  V30 26 1 26 27
M  V30 27 2 27 28
M  V30 28 2 4 29
M  V30 29 1 29 30
M  V30 30 2 30 31
M  V30 31 1 31 2
M  V30 32 1 28 5
M  V30 33 1 28 8
M  V30 34 1 25 16
M  V30 35 1 25 20
M  V30 36 1 1 32
M  V30 37 1 1 33
M  V30 38 1 1 34
M  V30 39 1 3 35
M  V30 40 1 7 36
M  V30 41 1 9 37
M  V30 42 1 11 38
M  V30 43 1 14 39
M  V30 44 1 15 40
M  V30 45 1 15 41
M  V30 46 1 18 42
M  V30 47 1 19 43
M  V30 48 1 21 44
M  V30 49 1 22 45
M  V30 50 1 23 46
M  V30 51 1 24 47
M  V30 52 1 27 48
M  V30 53 1 29 49
M  V30 54 1 30 50
M  V30 END BOND
M  V30 END CTAB
M  END
>  <Dataset>  (116) 
ChEMBL_Kinases

>  <Ligand_Instance>  (116) 
nan

>  <PDB_ID>  (116) 
nan

>  <Standardized_SMILES>  (116) 
Cc1cc(-c2n[nH]c3cc(NC(=O)NCc4nccc5ccccc45)ncc23)ccn1

>  <Name>  (116) 
nan

>  <Pocket>  (116) 
nan

>  <ATP_Site>  (116) 
nan

>  <Peripheral>  (116) 
nan

>  <Num_H_Atoms_ProtBoundConf>  (116) 
nan

>  <Num_Resolved_Atoms>  (116) 
nan

>  <Num_Not_Resolved_Atoms>  (116) 
nan

$$$$
CHEMBL3658753
     RDKit          3D

  0  0  0  0  0  0  0  0  0  0999 V3000
M  V30 BEGIN CTAB
M  V30 COUNTS 55 58 0 0 0
M  V30 BEGIN ATOM
M  V30 1 C 2.756011 -9.287296 1.331440 0
M  V30 2 C 3.407209 -8.004963 0.968592 0
M  V30 3 C 2.979721 -6.869548 1.652741 0
M  V30 4 C 3.571897 -5.662298 1.332063 0
M  V30 5 C 3.114983 -4.479514 2.056284 0
M  V30 6 N 2.914953 -4.418546 3.399595 0
M  V30 7 N 2.497296 -3.199967 3.753743 0
M  V30 8 C 2.438392 -2.495718 2.608152 0
M  V30 9 C 2.058211 -1.175985 2.458128 0
M  V30 10 C 2.083811 -0.684854 1.166080 0
M  V30 11 N 1.744296 0.631766 0.723463 0
M  V30 12 C 0.455719 1.080547 0.315032 0
M  V30 13 O -0.412436 0.174241 0.377836 0
M  V30 14 N 0.270409 2.422240 -0.100836 0
M  V30 15 C -1.055584 2.837150 -0.507992 0
M  V30 16 C -2.066469 2.674496 0.601565 0
M  V30 17 O -1.698802 3.446803 1.706399 0
M  V30 18 C -3.439437 3.106215 0.232245 0
M  V30 19 C -3.494921 4.576334 -0.162495 0
M  V30 20 C -4.958477 4.914082 -0.352269 0
M  V30 21 C -5.429543 4.334511 -1.677832 0
M  V30 22 C -4.534894 3.188587 -2.026376 0
M  V30 23 C -4.133241 2.344067 -0.831873 0
M  V30 24 N 2.454528 -1.437701 0.113324 0
M  V30 25 C 2.831622 -2.734715 0.235149 0
M  V30 26 C 2.814539 -3.247232 1.512276 0
M  V30 27 C 4.539589 -5.602547 0.376554 0
M  V30 28 C 4.943968 -6.750344 -0.287247 0
M  V30 29 N 4.368981 -7.923157 0.023986 0
M  V30 30 H 2.443361 -9.274364 2.403451 0
M  V30 31 H 1.811009 -9.410251 0.756531 0
M  V30 32 H 3.417172 -10.161193 1.178614 0
M  V30 33 H 2.200263 -6.954015 2.414203 0
M  V30 34 H 2.268608 -2.876458 4.719500 0
M  V30 35 H 1.746290 -0.475841 3.193895 0
M  V30 36 H 2.582244 1.227273 0.740951 0
M  V30 37 H 1.120447 3.038740 -0.086605 0
M  V30 38 H -1.385245 2.429855 -1.463648 0
M  V30 39 H -0.970809 3.938410 -0.670109 0
M  V30 40 H -2.124172 1.639723 0.999171 0
M  V30 41 H -2.012851 3.054804 2.549107 0
M  V30 42 H -4.045999 3.065300 1.182584 0
M  V30 43 H -2.914218 4.779345 -1.087006 0
M  V30 44 H -3.103783 5.154039 0.697665 0
M  V30 45 H -5.509639 4.351787 0.446879 0
M  V30 46 H -5.190898 5.973144 -0.261209 0
M  V30 47 H -6.485335 3.992175 -1.621104 0
M  V30 48 H -5.296301 5.145974 -2.422229 0
M  V30 49 H -5.147417 2.497752 -2.670745 0
M  V30 50 H -3.666757 3.454054 -2.660016 0
M  V30 51 H -3.592526 1.480503 -1.249155 0
M  V30 52 H -5.092770 1.914527 -0.449135 0
M  V30 53 H 3.133181 -3.358200 -0.596286 0
M  V30 54 H 5.016805 -4.669256 0.109195 0
M  V30 55 H 5.722093 -6.655419 -1.044981 0
M  V30 END ATOM
M  V30 BEGIN BOND
M  V30 1 1 1 2
M  V30 2 2 2 3
M  V30 3 1 3 4
M  V30 4 1 4 5
M  V30 5 2 5 6
M  V30 6 1 6 7
M  V30 7 1 7 8
M  V30 8 2 8 9
M  V30 9 1 9 10
M  V30 10 1 10 11
M  V30 11 1 11 12
M  V30 12 2 12 13
M  V30 13 1 12 14
M  V30 14 1 14 15
M  V30 15 1 15 16
M  V30 16 1 16 17
M  V30 17 1 16 18
M  V30 18 1 18 19
M  V30 19 1 19 20
M  V30 20 1 20 21
M  V30 21 1 21 22
M  V30 22 1 22 23
M  V30 23 2 10 24
M  V30 24 1 24 25
M  V30 25 2 25 26
M  V30 26 2 4 27
M  V30 27 1 27 28
M  V30 28 2 28 29
M  V30 29 1 29 2
M  V30 30 1 26 5
M  V30 31 1 26 8
M  V30 32 1 23 18
M  V30 33 1 1 30
M  V30 34 1 1 31
M  V30 35 1 1 32
M  V30 36 1 3 33
M  V30 37 1 7 34
M  V30 38 1 9 35
M  V30 39 1 11 36
M  V30 40 1 14 37
M  V30 41 1 15 38
M  V30 42 1 15 39
M  V30 43 1 16 40
M  V30 44 1 17 41
M  V30 45 1 18 42
M  V30 46 1 19 43
M  V30 47 1 19 44
M  V30 48 1 20 45
M  V30 49 1 20 46
M  V30 50 1 21 47
M  V30 51 1 21 48
M  V30 52 1 22 49
M  V30 53 1 22 50
M  V30 54 1 23 51
M  V30 55 1 23 52
M  V30 56 1 25 53
M  V30 57 1 27 54
M  V30 58 1 28 55
M  V30 END BOND
M  V30 END CTAB
M  END
>  <Dataset>  (117) 
ChEMBL_Kinases

>  <Ligand_Instance>  (117) 
nan

>  <PDB_ID>  (117) 
nan

>  <Standardized_SMILES>  (117) 
Cc1cc(-c2n[nH]c3cc(NC(=O)NCC(O)C4CCCCC4)ncc23)ccn1

>  <Name>  (117) 
nan

>  <Pocket>  (117) 
nan

>  <ATP_Site>  (117) 
nan

>  <Peripheral>  (117) 
nan

>  <Num_H_Atoms_ProtBoundConf>  (117) 
nan

>  <Num_Resolved_Atoms>  (117) 
nan

>  <Num_Not_Resolved_Atoms>  (117) 
nan

$$$$
CHEMBL3658752
     RDKit          3D

  0  0  0  0  0  0  0  0  0  0999 V3000
M  V30 BEGIN CTAB
M  V30 COUNTS 54 57 0 0 0
M  V30 BEGIN ATOM
M  V30 1 C -0.997442 -6.889451 2.012647 0
M  V30 2 C 0.409136 -6.905940 1.478054 0
M  V30 3 C 1.084666 -5.725236 1.316842 0
M  V30 4 C 2.370732 -5.593679 0.839855 0
M  V30 5 C 3.044827 -4.309255 0.687460 0
M  V30 6 N 4.304369 -3.988472 1.042125 0
M  V30 7 N 4.596212 -2.739574 0.763006 0
M  V30 8 C 3.499348 -2.197484 0.201474 0
M  V30 9 C 3.296046 -0.915895 -0.265954 0
M  V30 10 C 2.059040 -0.601593 -0.807905 0
M  V30 11 N 1.643085 0.652111 -1.343441 0
M  V30 12 C 1.044922 1.566572 -0.440742 0
M  V30 13 O 0.917185 1.227865 0.758217 0
M  V30 14 N 0.569006 2.841709 -0.754574 0
M  V30 15 C -0.069784 4.014501 -0.241316 0
M  V30 16 C -1.456370 3.886134 0.278685 0
M  V30 17 O -1.844917 5.211430 0.675938 0
M  V30 18 C -1.675129 3.010630 1.457255 0
M  V30 19 C -2.292150 1.683294 1.087831 0
M  V30 20 N -3.641116 1.865853 0.564224 0
M  V30 21 C -4.660175 1.694580 1.555370 0
M  V30 22 C -3.745362 3.134472 -0.136966 0
M  V30 23 C -2.442125 3.503816 -0.804779 0
M  V30 24 N 1.112175 -1.555494 -0.855282 0
M  V30 25 C 1.315399 -2.814369 -0.394865 0
M  V30 26 C 2.518328 -3.165071 0.146012 0
M  V30 27 C 2.989815 -6.803535 0.507923 0
M  V30 28 C 2.307760 -7.990009 0.671145 0
M  V30 29 N 1.050791 -8.052903 1.142620 0
M  V30 30 H -0.941494 -6.175735 2.884577 0
M  V30 31 H -1.630697 -6.465224 1.205102 0
M  V30 32 H -1.265232 -7.899860 2.331172 0
M  V30 33 H 0.558986 -4.817482 1.589099 0
M  V30 34 H 5.502321 -2.247894 0.937894 0
M  V30 35 H 4.002555 -0.113362 -0.258523 0
M  V30 36 H 1.750297 0.932471 -2.342231 0
M  V30 37 H 0.749481 3.011844 -1.802195 0
M  V30 38 H 0.556264 4.272402 0.697666 0
M  V30 39 H 0.087636 4.897312 -0.873399 0
M  V30 40 H -2.611195 5.083061 1.282742 0
M  V30 41 H -0.739302 2.841393 1.998113 0
M  V30 42 H -2.369449 3.509741 2.214888 0
M  V30 43 H -1.736352 1.175307 0.279759 0
M  V30 44 H -2.366206 0.996834 1.941624 0
M  V30 45 H -5.329480 0.866627 1.187750 0
M  V30 46 H -4.308656 1.381397 2.546754 0
M  V30 47 H -5.340557 2.581579 1.623266 0
M  V30 48 H -4.121160 3.953088 0.509152 0
M  V30 49 H -4.496308 2.988165 -0.949655 0
M  V30 50 H -2.046934 2.616557 -1.332981 0
M  V30 51 H -2.617374 4.338784 -1.497313 0
M  V30 52 H 0.527757 -3.553794 -0.450922 0
M  V30 53 H 3.998103 -6.795843 0.126289 0
M  V30 54 H 2.769680 -8.945825 0.419208 0
M  V30 END ATOM
M  V30 BEGIN BOND
M  V30 1 1 1 2
M  V30 2 2 2 3
M  V30 3 1 3 4
M  V30 4 1 4 5
M  V30 5 2 5 6
M  V30 6 1 6 7
M  V30 7 1 7 8
M  V30 8 2 8 9
M  V30 9 1 9 10
M  V30 10 1 10 11
M  V30 11 1 11 12
M  V30 12 2 12 13
M  V30 13 1 12 14
M  V30 14 1 14 15
M  V30 15 1 15 16
M  V30 16 1 16 17
M  V30 17 1 16 18
M  V30 18 1 18 19
M  V30 19 1 19 20
M  V30 20 1 20 21
M  V30 21 1 20 22
M  V30 22 1 22 23
M  V30 23 2 10 24
M  V30 24 1 24 25
M  V30 25 2 25 26
M  V30 26 2 4 27
M  V30 27 1 27 28
M  V30 28 2 28 29
M  V30 29 1 29 2
M  V30 30 1 26 5
M  V30 31 1 26 8
M  V30 32 1 23 16
M  V30 33 1 1 30
M  V30 34 1 1 31
M  V30 35 1 1 32
M  V30 36 1 3 33
M  V30 37 1 7 34
M  V30 38 1 9 35
M  V30 39 1 11 36
M  V30 40 1 14 37
M  V30 41 1 15 38
M  V30 42 1 15 39
M  V30 43 1 17 40
M  V30 44 1 18 41
M  V30 45 1 18 42
M  V30 46 1 19 43
M  V30 47 1 19 44
M  V30 48 1 21 45
M  V30 49 1 21 46
M  V30 50 1 21 47
M  V30 51 1 22 48
M  V30 52 1 22 49
M  V30 53 1 23 50
M  V30 54 1 23 51
M  V30 55 1 25 52
M  V30 56 1 27 53
M  V30 57 1 28 54
M  V30 END BOND
M  V30 END CTAB
M  END
>  <Dataset>  (118) 
ChEMBL_Kinases

>  <Ligand_Instance>  (118) 
nan

>  <PDB_ID>  (118) 
nan

>  <Standardized_SMILES>  (118) 
Cc1cc(-c2n[nH]c3cc(NC(=O)NCC4(O)CCN(C)CC4)ncc23)ccn1

>  <Name>  (118) 
nan

>  <Pocket>  (118) 
nan

>  <ATP_Site>  (118) 
nan

>  <Peripheral>  (118) 
nan

>  <Num_H_Atoms_ProtBoundConf>  (118) 
nan

>  <Num_Resolved_Atoms>  (118) 
nan

>  <Num_Not_Resolved_Atoms>  (118) 
nan

$$$$
CHEMBL3658751
     RDKit          3D

  0  0  0  0  0  0  0  0  0  0999 V3000
M  V30 BEGIN CTAB
M  V30 COUNTS 49 52 0 0 0
M  V30 BEGIN ATOM
M  V30 1 C -2.970695 -5.952978 -0.650555 0
M  V30 2 C -1.961424 -5.694474 -1.693167 0
M  V30 3 C -1.008876 -4.692424 -1.586141 0
M  V30 4 C -0.042581 -4.411199 -2.535815 0
M  V30 5 C 0.923370 -3.342083 -2.351115 0
M  V30 6 N 2.247079 -3.393715 -2.581348 0
M  V30 7 N 2.823324 -2.223736 -2.301599 0
M  V30 8 C 1.887052 -1.357254 -1.874286 0
M  V30 9 C 1.906666 -0.040491 -1.457877 0
M  V30 10 C 0.744999 0.600812 -1.065926 0
M  V30 11 N 0.679077 1.954474 -0.624005 0
M  V30 12 C 0.831736 2.260346 0.742357 0
M  V30 13 O 1.022422 1.281803 1.503534 0
M  V30 14 N 0.794382 3.519056 1.334959 0
M  V30 15 C 0.903442 4.076224 2.654297 0
M  V30 16 C -0.091020 3.710509 3.659407 0
M  V30 17 C -0.289744 2.344016 4.116971 0
M  V30 18 C 0.866394 1.650816 4.755759 0
M  V30 19 C 0.096386 0.450765 5.335690 0
M  V30 20 O -1.120480 0.960531 5.753684 0
M  V30 21 C -1.223774 2.283507 5.360323 0
M  V30 22 N -0.419396 -0.097134 -1.100271 0
M  V30 23 C -0.461212 -1.388546 -1.505014 0
M  V30 24 C 0.684695 -2.041216 -1.898046 0
M  V30 25 C -0.066061 -5.223406 -3.671855 0
M  V30 26 C -1.026066 -6.229803 -3.774687 0
M  V30 27 N -1.941694 -6.451451 -2.810287 0
M  V30 28 H -2.684829 -6.854799 -0.038908 0
M  V30 29 H -3.935683 -6.215472 -1.140066 0
M  V30 30 H -3.133556 -5.063968 0.005835 0
M  V30 31 H -1.078087 -4.122920 -0.669498 0
M  V30 32 H 3.848425 -1.983805 -2.390699 0
M  V30 33 H 2.830201 0.521229 -1.428040 0
M  V30 34 H 0.519145 2.744954 -1.283557 0
M  V30 35 H 0.637827 4.242848 0.555523 0
M  V30 36 H 1.966929 3.836714 2.960237 0
M  V30 37 H 0.944934 5.193758 2.559888 0
M  V30 38 H -1.100631 4.089490 3.293496 0
M  V30 39 H 0.049709 4.356102 4.586039 0
M  V30 40 H -0.785133 1.641787 3.419802 0
M  V30 41 H 1.211153 2.172032 5.695109 0
M  V30 42 H 1.679469 1.331909 4.123906 0
M  V30 43 H -0.103761 -0.225374 4.479707 0
M  V30 44 H 0.685332 -0.035747 6.140643 0
M  V30 45 H -2.230555 2.619468 5.130989 0
M  V30 46 H -0.723947 2.904140 6.131525 0
M  V30 47 H -1.414028 -1.901468 -1.514571 0
M  V30 48 H 0.670293 -5.046793 -4.449780 0
M  V30 49 H -1.048308 -6.864484 -4.656968 0
M  V30 END ATOM
M  V30 BEGIN BOND
M  V30 1 1 1 2
M  V30 2 2 2 3
M  V30 3 1 3 4
M  V30 4 1 4 5
M  V30 5 2 5 6
M  V30 6 1 6 7
M  V30 7 1 7 8
M  V30 8 2 8 9
M  V30 9 1 9 10
M  V30 10 1 10 11
M  V30 11 1 11 12
M  V30 12 2 12 13
M  V30 13 1 12 14
M  V30 14 1 14 15
M  V30 15 1 15 16
M  V30 16 1 16 17
M  V30 17 1 17 18
M  V30 18 1 18 19
M  V30 19 1 19 20
M  V30 20 1 20 21
M  V30 21 2 10 22
M  V30 22 1 22 23
M  V30 23 2 23 24
M  V30 24 2 4 25
M  V30 25 1 25 26
M  V30 26 2 26 27
M  V30 27 1 27 2
M  V30 28 1 24 5
M  V30 29 1 24 8
M  V30 30 1 21 17
M  V30 31 1 1 28
M  V30 32 1 1 29
M  V30 33 1 1 30
M  V30 34 1 3 31
M  V30 35 1 7 32
M  V30 36 1 9 33
M  V30 37 1 11 34
M  V30 38 1 14 35
M  V30 39 1 15 36
M  V30 40 1 15 37
M  V30 41 1 16 38
M  V30 42 1 16 39
M  V30 43 1 17 40
M  V30 44 1 18 41
M  V30 45 1 18 42
M  V30 46 1 19 43
M  V30 47 1 19 44
M  V30 48 1 21 45
M  V30 49 1 21 46
M  V30 50 1 23 47
M  V30 51 1 25 48
M  V30 52 1 26 49
M  V30 END BOND
M  V30 END CTAB
M  END
>  <Dataset>  (119) 
ChEMBL_Kinases

>  <Ligand_Instance>  (119) 
nan

>  <PDB_ID>  (119) 
nan

>  <Standardized_SMILES>  (119) 
Cc1cc(-c2n[nH]c3cc(NC(=O)NCCC4CCOC4)ncc23)ccn1

>  <Name>  (119) 
nan

>  <Pocket>  (119) 
nan

>  <ATP_Site>  (119) 
nan

>  <Peripheral>  (119) 
nan

>  <Num_H_Atoms_ProtBoundConf>  (119) 
nan

>  <Num_Resolved_Atoms>  (119) 
nan

>  <Num_Not_Resolved_Atoms>  (119) 
nan

$$$$
CHEMBL3658799
     RDKit          3D

  0  0  0  0  0  0  0  0  0  0999 V3000
M  V30 BEGIN CTAB
M  V30 COUNTS 41 44 0 0 0
M  V30 BEGIN ATOM
M  V30 1 C 0.153197 -5.567648 3.109301 0
M  V30 2 C 0.712128 -5.549323 1.728663 0
M  V30 3 C 1.061743 -4.329126 1.181075 0
M  V30 4 C 1.589578 -4.181981 -0.088809 0
M  V30 5 C 1.962261 -2.915059 -0.681386 0
M  V30 6 N 3.089644 -2.622191 -1.368576 0
M  V30 7 N 3.091179 -1.355402 -1.765027 0
M  V30 8 C 1.935279 -0.829497 -1.318487 0
M  V30 9 C 1.479274 0.462734 -1.481123 0
M  V30 10 C 0.253075 0.782872 -0.933172 0
M  V30 11 N -0.421798 2.040214 -0.969287 0
M  V30 12 C -0.141982 2.943595 0.113203 0
M  V30 13 O 0.639086 2.708150 1.068918 0
M  V30 14 N -0.797398 4.184912 0.093320 0
M  V30 15 C -0.562898 5.164511 1.167208 0
M  V30 16 C -0.989221 4.499829 2.484516 0
M  V30 17 N -0.617568 3.873088 3.340469 0
M  V30 18 C -1.247010 3.420998 4.403751 0
M  V30 19 C -2.550331 3.760353 4.487754 0
M  V30 20 S -2.792718 4.785359 2.906358 0
M  V30 21 N -0.452682 -0.151373 -0.268458 0
M  V30 22 C -0.028622 -1.415771 -0.097637 0
M  V30 23 C 1.192959 -1.770065 -0.632478 0
M  V30 24 C 1.752632 -5.349741 -0.798272 0
M  V30 25 C 1.411043 -6.571316 -0.270941 0
M  V30 26 N 0.901154 -6.661945 0.969237 0
M  V30 27 H -0.421727 -6.490927 3.241187 0
M  V30 28 H 0.953538 -5.486003 3.880692 0
M  V30 29 H -0.538969 -4.702504 3.272550 0
M  V30 30 H 0.914919 -3.433000 1.779279 0
M  V30 31 H 3.835335 -0.861434 -2.312514 0
M  V30 32 H 1.966462 1.280543 -1.993978 0
M  V30 33 H -1.078378 2.257818 -1.757930 0
M  V30 34 H -1.455665 4.426265 -0.679929 0
M  V30 35 H 0.532587 5.320010 1.301056 0
M  V30 36 H -1.108646 6.088319 0.989286 0
M  V30 37 H -0.627663 2.820929 5.092376 0
M  V30 38 H -3.111825 3.315276 5.505625 0
M  V30 39 H -0.605359 -2.150166 0.436484 0
M  V30 40 H 2.161675 -5.318984 -1.804117 0
M  V30 41 H 1.514547 -7.518372 -0.775108 0
M  V30 END ATOM
M  V30 BEGIN BOND
M  V30 1 1 1 2
M  V30 2 2 2 3
M  V30 3 1 3 4
M  V30 4 1 4 5
M  V30 5 2 5 6
M  V30 6 1 6 7
M  V30 7 1 7 8
M  V30 8 2 8 9
M  V30 9 1 9 10
M  V30 10 1 10 11
M  V30 11 1 11 12
M  V30 12 2 12 13
M  V30 13 1 12 14
M  V30 14 1 14 15
M  V30 15 1 15 16
M  V30 16 2 16 17
M  V30 17 1 17 18
M  V30 18 2 18 19
M  V30 19 1 19 20
M  V30 20 2 10 21
M  V30 21 1 21 22
M  V30 22 2 22 23
M  V30 23 2 4 24
M  V30 24 1 24 25
M  V30 25 2 25 26
M  V30 26 1 26 2
M  V30 27 1 23 5
M  V30 28 1 23 8
M  V30 29 1 20 16
M  V30 30 1 1 27
M  V30 31 1 1 28
M  V30 32 1 1 29
M  V30 33 1 3 30
M  V30 34 1 7 31
M  V30 35 1 9 32
M  V30 36 1 11 33
M  V30 37 1 14 34
M  V30 38 1 15 35
M  V30 39 1 15 36
M  V30 40 1 18 37
M  V30 41 1 19 38
M  V30 42 1 22 39
M  V30 43 1 24 40
M  V30 44 1 25 41
M  V30 END BOND
M  V30 END CTAB
M  END
>  <Dataset>  (120) 
ChEMBL_Kinases

>  <Ligand_Instance>  (120) 
nan

>  <PDB_ID>  (120) 
nan

>  <Standardized_SMILES>  (120) 
Cc1cc(-c2n[nH]c3cc(NC(=O)NCc4nccs4)ncc23)ccn1

>  <Name>  (120) 
nan

>  <Pocket>  (120) 
nan

>  <ATP_Site>  (120) 
nan

>  <Peripheral>  (120) 
nan

>  <Num_H_Atoms_ProtBoundConf>  (120) 
nan

>  <Num_Resolved_Atoms>  (120) 
nan

>  <Num_Not_Resolved_Atoms>  (120) 
nan

$$$$
CHEMBL3658734
     RDKit          3D

  0  0  0  0  0  0  0  0  0  0999 V3000
M  V30 BEGIN CTAB
M  V30 COUNTS 61 64 0 0 0
M  V30 BEGIN ATOM
M  V30 1 C 3.707718 -5.054142 7.818326 0
M  V30 2 C 4.074624 -4.790927 6.403440 0
M  V30 3 C 3.970640 -3.567507 5.774644 0
M  V30 4 C 4.342488 -3.420346 4.431695 0
M  V30 5 C 4.202028 -2.092255 3.841925 0
M  V30 6 N 4.601882 -0.957217 4.459044 0
M  V30 7 N 4.355840 0.095605 3.701063 0
M  V30 8 C 3.782564 -0.312419 2.553305 0
M  V30 9 C 3.327370 0.368319 1.426453 0
M  V30 10 C 2.782099 -0.411612 0.420799 0
M  V30 11 N 2.305857 0.257642 -0.743663 0
M  V30 12 C 0.964262 0.698393 -0.803914 0
M  V30 13 O 0.288927 0.455860 0.203303 0
M  V30 14 N 0.329162 1.362094 -1.849381 0
M  V30 15 C -0.922012 1.911619 -2.263960 0
M  V30 16 C -2.094469 1.041603 -2.457737 0
M  V30 17 C -3.223498 2.013218 -2.925988 0
M  V30 18 C -4.441980 1.224108 -3.243016 0
M  V30 19 C -5.679453 1.865280 -2.599686 0
M  V30 20 C -4.684842 1.368161 -4.750733 0
M  V30 21 O -4.356184 -0.112108 -2.998342 0
M  V30 22 C -3.833807 -0.493849 -1.806134 0
M  V30 23 C -4.802174 -0.807669 -0.712738 0
M  V30 24 C -3.100554 -1.821891 -2.076457 0
M  V30 25 C -2.742820 0.423384 -1.259027 0
M  V30 26 N 2.692835 -1.772094 0.521741 0
M  V30 27 C 3.129170 -2.444684 1.606032 0
M  V30 28 C 3.680160 -1.686282 2.629480 0
M  V30 29 C 4.810239 -4.544415 3.783673 0
M  V30 30 C 4.897723 -5.760831 4.462518 0
M  V30 31 N 4.532011 -5.867466 5.752076 0
M  V30 32 H 2.917334 -5.820407 7.887450 0
M  V30 33 H 4.600303 -5.298720 8.436694 0
M  V30 34 H 3.283268 -4.078357 8.194402 0
M  V30 35 H 3.588394 -2.765680 6.400170 0
M  V30 36 H 4.563853 1.087270 3.935184 0
M  V30 37 H 3.417604 1.430412 1.388162 0
M  V30 38 H 2.907168 0.438355 -1.561127 0
M  V30 39 H 1.074801 1.496075 -2.618311 0
M  V30 40 H -0.750458 2.589876 -3.134568 0
M  V30 41 H -1.269220 2.681748 -1.469126 0
M  V30 42 H -1.979432 0.291718 -3.275066 0
M  V30 43 H -3.415204 2.644946 -2.035145 0
M  V30 44 H -2.866420 2.659832 -3.735709 0
M  V30 45 H -6.550032 1.183115 -2.682666 0
M  V30 46 H -5.459178 2.196125 -1.564586 0
M  V30 47 H -5.939398 2.778213 -3.174902 0
M  V30 48 H -3.713242 1.181448 -5.277491 0
M  V30 49 H -5.479019 0.692841 -5.086547 0
M  V30 50 H -4.959752 2.434235 -4.892536 0
M  V30 51 H -4.173900 -1.068919 0.188889 0
M  V30 52 H -5.430823 -1.690189 -0.983892 0
M  V30 53 H -5.477028 -0.003587 -0.415718 0
M  V30 54 H -3.806284 -2.672836 -1.981606 0
M  V30 55 H -2.716592 -1.839310 -3.116112 0
M  V30 56 H -2.304987 -1.983052 -1.329468 0
M  V30 57 H -2.115850 -0.084244 -0.546064 0
M  V30 58 H -3.317956 1.194027 -0.661953 0
M  V30 59 H 3.062087 -3.521325 1.694732 0
M  V30 60 H 5.100593 -4.419373 2.731157 0
M  V30 61 H 5.285746 -6.562427 3.822440 0
M  V30 END ATOM
M  V30 BEGIN BOND
M  V30 1 1 1 2
M  V30 2 2 2 3
M  V30 3 1 3 4
M  V30 4 1 4 5
M  V30 5 2 5 6
M  V30 6 1 6 7
M  V30 7 1 7 8
M  V30 8 2 8 9
M  V30 9 1 9 10
M  V30 10 1 10 11
M  V30 11 1 11 12
M  V30 12 2 12 13
M  V30 13 1 12 14
M  V30 14 1 14 15
M  V30 15 1 15 16
M  V30 16 1 16 17
M  V30 17 1 17 18
M  V30 18 1 18 19
M  V30 19 1 18 20
M  V30 20 1 18 21
M  V30 21 1 21 22
M  V30 22 1 22 23
M  V30 23 1 22 24
M  V30 24 1 22 25
M  V30 25 2 10 26
M  V30 26 1 26 27
M  V30 27 2 27 28
M  V30 28 2 4 29
M  V30 29 1 29 30
M  V30 30 2 30 31
M  V30 31 1 31 2
M  V30 32 1 28 5
M  V30 33 1 28 8
M  V30 34 1 25 16
M  V30 35 1 1 32
M  V30 36 1 1 33
M  V30 37 1 1 34
M  V30 38 1 3 35
M  V30 39 1 7 36
M  V30 40 1 9 37
M  V30 41 1 11 38
M  V30 42 1 14 39
M  V30 43 1 15 40
M  V30 44 1 15 41
M  V30 45 1 16 42
M  V30 46 1 17 43
M  V30 47 1 17 44
M  V30 48 1 19 45
M  V30 49 1 19 46
M  V30 50 1 19 47
M  V30 51 1 20 48
M  V30 52 1 20 49
M  V30 53 1 20 50
M  V30 54 1 23 51
M  V30 55 1 23 52
M  V30 56 1 23 53
M  V30 57 1 24 54
M  V30 58 1 24 55
M  V30 59 1 24 56
M  V30 60 1 25 57
M  V30 61 1 25 58
M  V30 62 1 27 59
M  V30 63 1 29 60
M  V30 64 1 30 61
M  V30 END BOND
M  V30 END CTAB
M  END
>  <Dataset>  (121) 
ChEMBL_Kinases

>  <Ligand_Instance>  (121) 
nan

>  <PDB_ID>  (121) 
nan

>  <Standardized_SMILES>  (121) 
Cc1cc(-c2n[nH]c3cc(NC(=O)NCC4CC(C)(C)OC(C)(C)C4)ncc23)ccn1

>  <Name>  (121) 
nan

>  <Pocket>  (121) 
nan

>  <ATP_Site>  (121) 
nan

>  <Peripheral>  (121) 
nan

>  <Num_H_Atoms_ProtBoundConf>  (121) 
nan

>  <Num_Resolved_Atoms>  (121) 
nan

>  <Num_Not_Resolved_Atoms>  (121) 
nan

$$$$
CHEMBL3658735
     RDKit          3D

  0  0  0  0  0  0  0  0  0  0999 V3000
M  V30 BEGIN CTAB
M  V30 COUNTS 52 56 0 0 0
M  V30 BEGIN ATOM
M  V30 1 C 1.434561 -5.720843 4.190194 0
M  V30 2 C 2.841400 -5.227562 3.976635 0
M  V30 3 C 3.045050 -3.905160 3.614885 0
M  V30 4 C 4.310053 -3.354243 3.394305 0
M  V30 5 C 4.440519 -1.948774 3.012813 0
M  V30 6 N 5.304117 -1.019348 3.509345 0
M  V30 7 N 5.115437 0.149860 2.904876 0
M  V30 8 C 4.119316 0.065525 1.975003 0
M  V30 9 C 3.549567 0.967499 1.098553 0
M  V30 10 C 2.533062 0.520310 0.278614 0
M  V30 11 N 1.880499 1.370610 -0.659470 0
M  V30 12 C 0.823284 0.898603 -1.509827 0
M  V30 13 O 0.541368 -0.335239 -1.334188 0
M  V30 14 N 0.187793 1.739801 -2.429280 0
M  V30 15 C -0.882752 1.301829 -3.303000 0
M  V30 16 C -2.177109 1.160162 -2.636695 0
M  V30 17 C -2.698565 0.047161 -2.018750 0
M  V30 18 C -3.927370 -0.034998 -1.403262 0
M  V30 19 C -4.668811 1.148148 -1.439798 0
M  V30 20 C -5.989078 1.155394 -0.810389 0
M  V30 21 N -6.598506 0.156484 -0.188507 0
M  V30 22 C -7.813092 0.512454 0.274792 0
M  V30 23 C -7.953641 1.842126 -0.097677 0
M  V30 24 N -6.838766 2.222514 -0.756809 0
M  V30 25 C -4.201633 2.311020 -2.048213 0
M  V30 26 C -2.955895 2.319681 -2.647540 0
M  V30 27 N 2.149302 -0.765762 0.373032 0
M  V30 28 C 2.690858 -1.661422 1.219992 0
M  V30 29 C 3.719115 -1.252746 2.065460 0
M  V30 30 C 5.392245 -4.199458 3.553810 0
M  V30 31 C 5.150923 -5.519021 3.917082 0
M  V30 32 N 3.920931 -6.038696 4.127318 0
M  V30 33 H 1.156133 -5.379849 5.218423 0
M  V30 34 H 1.359842 -6.804108 4.145263 0
M  V30 35 H 0.746354 -5.178200 3.497414 0
M  V30 36 H 2.141676 -3.291413 3.508213 0
M  V30 37 H 5.647053 1.046581 3.093457 0
M  V30 38 H 3.885098 1.984726 1.054718 0
M  V30 39 H 2.200959 2.360107 -0.708848 0
M  V30 40 H 0.497070 2.748037 -2.497848 0
M  V30 41 H -0.964875 1.918946 -4.210812 0
M  V30 42 H -0.556350 0.282661 -3.665177 0
M  V30 43 H -2.066590 -0.829480 -2.031606 0
M  V30 44 H -4.269370 -0.944694 -0.938160 0
M  V30 45 H -8.497261 -0.130239 0.814528 0
M  V30 46 H -8.845723 2.442817 0.130186 0
M  V30 47 H -6.693133 3.190623 -1.146536 0
M  V30 48 H -4.838151 3.189149 -2.034233 0
M  V30 49 H -2.679136 3.263411 -3.092242 0
M  V30 50 H 2.302928 -2.670591 1.207696 0
M  V30 51 H 6.383430 -3.813512 3.393004 0
M  V30 52 H 6.010204 -6.187422 4.042945 0
M  V30 END ATOM
M  V30 BEGIN BOND
M  V30 1 1 1 2
M  V30 2 2 2 3
M  V30 3 1 3 4
M  V30 4 1 4 5
M  V30 5 2 5 6
M  V30 6 1 6 7
M  V30 7 1 7 8
M  V30 8 2 8 9
M  V30 9 1 9 10
M  V30 10 1 10 11
M  V30 11 1 11 12
M  V30 12 2 12 13
M  V30 13 1 12 14
M  V30 14 1 14 15
M  V30 15 1 15 16
M  V30 16 2 16 17
M  V30 17 1 17 18
M  V30 18 2 18 19
M  V30 19 1 19 20
M  V30 20 2 20 21
M  V30 21 1 21 22
M  V30 22 2 22 23
M  V30 23 1 23 24
M  V30 24 1 19 25
M  V30 25 2 25 26
M  V30 26 2 10 27
M  V30 27 1 27 28
M  V30 28 2 28 29
M  V30 29 2 4 30
M  V30 30 1 30 31
M  V30 31 2 31 32
M  V30 32 1 32 2
M  V30 33 1 29 5
M  V30 34 1 29 8
M  V30 35 1 26 16
M  V30 36 1 24 20
M  V30 37 1 1 33
M  V30 38 1 1 34
M  V30 39 1 1 35
M  V30 40 1 3 36
M  V30 41 1 7 37
M  V30 42 1 9 38
M  V30 43 1 11 39
M  V30 44 1 14 40
M  V30 45 1 15 41
M  V30 46 1 15 42
M  V30 47 1 17 43
M  V30 48 1 18 44
M  V30 49 1 22 45
M  V30 50 1 23 46
M  V30 51 1 24 47
M  V30 52 1 25 48
M  V30 53 1 26 49
M  V30 54 1 28 50
M  V30 55 1 30 51
M  V30 56 1 31 52
M  V30 END BOND
M  V30 END CTAB
M  END
>  <Dataset>  (122) 
ChEMBL_Kinases

>  <Ligand_Instance>  (122) 
nan

>  <PDB_ID>  (122) 
nan

>  <Standardized_SMILES>  (122) 
Cc1cc(-c2n[nH]c3cc(NC(=O)NCc4ccc(-c5ncc[nH]5)cc4)ncc23)ccn1

>  <Name>  (122) 
nan

>  <Pocket>  (122) 
nan

>  <ATP_Site>  (122) 
nan

>  <Peripheral>  (122) 
nan

>  <Num_H_Atoms_ProtBoundConf>  (122) 
nan

>  <Num_Resolved_Atoms>  (122) 
nan

>  <Num_Not_Resolved_Atoms>  (122) 
nan

$$$$
CHEMBL3658736
     RDKit          3D

  0  0  0  0  0  0  0  0  0  0999 V3000
M  V30 BEGIN CTAB
M  V30 COUNTS 52 56 0 0 0
M  V30 BEGIN ATOM
M  V30 1 C 0.184338 -5.988615 2.988274 0
M  V30 2 C 1.616263 -5.735576 2.607568 0
M  V30 3 C 2.142966 -4.447072 2.482653 0
M  V30 4 C 3.462366 -4.244695 2.131262 0
M  V30 5 C 3.925344 -2.863240 2.022785 0
M  V30 6 N 5.085305 -2.344465 2.523742 0
M  V30 7 N 5.177890 -1.056376 2.234585 0
M  V30 8 C 4.102965 -0.646132 1.534932 0
M  V30 9 C 3.704562 0.577469 0.991921 0
M  V30 10 C 2.497548 0.593898 0.322896 0
M  V30 11 N 2.022661 1.809749 -0.259330 0
M  V30 12 C 0.776570 1.827103 -0.948139 0
M  V30 13 O 0.148041 0.739835 -1.005971 0
M  V30 14 N 0.243163 2.977630 -1.545264 0
M  V30 15 C -0.990299 3.126177 -2.261246 0
M  V30 16 C -2.195545 3.173195 -1.430961 0
M  V30 17 C -2.697072 4.375463 -0.939639 0
M  V30 18 C -3.850618 4.377320 -0.150916 0
M  V30 19 C -4.514780 3.209432 0.158657 0
M  V30 20 C -4.061046 1.995587 -0.301694 0
M  V30 21 C -4.688488 0.697107 -0.033656 0
M  V30 22 N -5.798841 0.509653 0.701825 0
M  V30 23 C -6.086329 -0.823164 0.733436 0
M  V30 24 C -5.090686 -1.442465 -0.023384 0
M  V30 25 N -4.242754 -0.508818 -0.487154 0
M  V30 26 C -2.914263 2.050878 -1.078654 0
M  V30 27 N 1.763085 -0.529762 0.215412 0
M  V30 28 C 2.120688 -1.722011 0.727640 0
M  V30 29 C 3.319509 -1.781040 1.403725 0
M  V30 30 C 4.233422 -5.369276 1.909961 0
M  V30 31 C 3.675213 -6.639135 2.043457 0
M  V30 32 N 2.377182 -6.827840 2.389378 0
M  V30 33 H 0.126648 -6.540145 3.942449 0
M  V30 34 H -0.293484 -6.507252 2.132124 0
M  V30 35 H -0.366555 -5.016527 3.080983 0
M  V30 36 H 1.404777 -3.684044 2.691836 0
M  V30 37 H 5.992132 -0.434854 2.518814 0
M  V30 38 H 4.319214 1.444106 1.101012 0
M  V30 39 H 2.591046 2.672806 -0.175459 0
M  V30 40 H 0.859441 3.832985 -1.433457 0
M  V30 41 H -0.911395 4.000262 -2.959448 0
M  V30 42 H -1.125028 2.251680 -2.964326 0
M  V30 43 H -2.215703 5.320232 -1.152627 0
M  V30 44 H -4.296352 5.289207 0.266424 0
M  V30 45 H -5.417719 3.192970 0.774070 0
M  V30 46 H -6.853898 -1.414593 1.184763 0
M  V30 47 H -4.979967 -2.502744 -0.229773 0
M  V30 48 H -3.415879 -0.699881 -1.075678 0
M  V30 49 H -2.538568 1.103829 -1.453036 0
M  V30 50 H 1.455798 -2.559066 0.581272 0
M  V30 51 H 5.266626 -5.205951 1.634923 0
M  V30 52 H 4.314849 -7.510375 1.860725 0
M  V30 END ATOM
M  V30 BEGIN BOND
M  V30 1 1 1 2
M  V30 2 2 2 3
M  V30 3 1 3 4
M  V30 4 1 4 5
M  V30 5 2 5 6
M  V30 6 1 6 7
M  V30 7 1 7 8
M  V30 8 2 8 9
M  V30 9 1 9 10
M  V30 10 1 10 11
M  V30 11 1 11 12
M  V30 12 2 12 13
M  V30 13 1 12 14
M  V30 14 1 14 15
M  V30 15 1 15 16
M  V30 16 2 16 17
M  V30 17 1 17 18
M  V30 18 2 18 19
M  V30 19 1 19 20
M  V30 20 1 20 21
M  V30 21 2 21 22
M  V30 22 1 22 23
M  V30 23 2 23 24
M  V30 24 1 24 25
M  V30 25 2 20 26
M  V30 26 2 10 27
M  V30 27 1 27 28
M  V30 28 2 28 29
M  V30 29 2 4 30
M  V30 30 1 30 31
M  V30 31 2 31 32
M  V30 32 1 32 2
M  V30 33 1 29 5
M  V30 34 1 29 8
M  V30 35 1 26 16
M  V30 36 1 25 21
M  V30 37 1 1 33
M  V30 38 1 1 34
M  V30 39 1 1 35
M  V30 40 1 3 36
M  V30 41 1 7 37
M  V30 42 1 9 38
M  V30 43 1 11 39
M  V30 44 1 14 40
M  V30 45 1 15 41
M  V30 46 1 15 42
M  V30 47 1 17 43
M  V30 48 1 18 44
M  V30 49 1 19 45
M  V30 50 1 23 46
M  V30 51 1 24 47
M  V30 52 1 25 48
M  V30 53 1 26 49
M  V30 54 1 28 50
M  V30 55 1 30 51
M  V30 56 1 31 52
M  V30 END BOND
M  V30 END CTAB
M  END
>  <Dataset>  (123) 
ChEMBL_Kinases

>  <Ligand_Instance>  (123) 
nan

>  <PDB_ID>  (123) 
nan

>  <Standardized_SMILES>  (123) 
Cc1cc(-c2n[nH]c3cc(NC(=O)NCc4cccc(-c5ncc[nH]5)c4)ncc23)ccn1

>  <Name>  (123) 
nan

>  <Pocket>  (123) 
nan

>  <ATP_Site>  (123) 
nan

>  <Peripheral>  (123) 
nan

>  <Num_H_Atoms_ProtBoundConf>  (123) 
nan

>  <Num_Resolved_Atoms>  (123) 
nan

>  <Num_Not_Resolved_Atoms>  (123) 
nan

$$$$
CHEMBL3658737
     RDKit          3D

  0  0  0  0  0  0  0  0  0  0999 V3000
M  V30 BEGIN CTAB
M  V30 COUNTS 54 58 0 0 0
M  V30 BEGIN ATOM
M  V30 1 C 1.352827 -6.357548 -2.536675 0
M  V30 2 C 2.592610 -5.949524 -1.822086 0
M  V30 3 C 2.636122 -4.878423 -0.988790 0
M  V30 4 C 3.767843 -4.465363 -0.305433 0
M  V30 5 C 3.783475 -3.300008 0.590905 0
M  V30 6 N 4.358894 -3.294226 1.808758 0
M  V30 7 N 4.236056 -2.130245 2.412056 0
M  V30 8 C 3.556127 -1.330788 1.570370 0
M  V30 9 C 3.131959 -0.018891 1.647758 0
M  V30 10 C 2.439211 0.503945 0.574111 0
M  V30 11 N 1.951540 1.840778 0.536002 0
M  V30 12 C 0.648006 2.179330 1.011913 0
M  V30 13 O -0.022107 1.194231 1.463611 0
M  V30 14 N 0.132624 3.480256 0.991614 0
M  V30 15 C -1.206596 3.828206 1.480534 0
M  V30 16 C -2.236374 3.075578 0.704013 0
M  V30 17 C -3.659561 3.365349 1.133222 0
M  V30 18 C -3.851196 3.002407 2.568253 0
M  V30 19 O -4.874616 2.043721 2.788414 0
M  V30 20 C -5.014944 1.009847 1.879109 0
M  V30 21 C -5.348485 -0.299335 2.226242 0
M  V30 22 C -5.469257 -1.277234 1.251192 0
M  V30 23 C -5.264532 -0.993473 -0.097465 0
M  V30 24 C -4.935683 0.306832 -0.418871 0
M  V30 25 C -4.807465 1.305289 0.529482 0
M  V30 26 O -4.480290 2.613763 0.242022 0
M  V30 27 N 2.159612 -0.215763 -0.548783 0
M  V30 28 C 2.564164 -1.515903 -0.658831 0
M  V30 29 C 3.256851 -2.031906 0.419752 0
M  V30 30 C 4.939599 -5.176772 -0.469060 0
M  V30 31 C 4.872378 -6.274382 -1.330328 0
M  V30 32 N 3.744857 -6.653968 -1.986722 0
M  V30 33 H 1.592358 -7.005224 -3.382604 0
M  V30 34 H 0.682177 -6.853770 -1.787750 0
M  V30 35 H 0.809113 -5.419569 -2.829392 0
M  V30 36 H 1.721788 -4.329465 -0.865823 0
M  V30 37 H 4.565111 -1.807982 3.344800 0
M  V30 38 H 3.324475 0.600373 2.512574 0
M  V30 39 H 2.566084 2.573211 0.152301 0
M  V30 40 H 0.754180 4.224778 0.602861 0
M  V30 41 H -1.369147 4.902562 1.343549 0
M  V30 42 H -1.241026 3.607075 2.566638 0
M  V30 43 H -2.108758 1.976359 0.757969 0
M  V30 44 H -2.130496 3.391192 -0.369610 0
M  V30 45 H -3.876315 4.464755 0.995245 0
M  V30 46 H -4.042972 3.902942 3.218875 0
M  V30 47 H -2.923433 2.533304 2.988429 0
M  V30 48 H -5.508608 -0.520644 3.282430 0
M  V30 49 H -5.727293 -2.295562 1.507683 0
M  V30 50 H -5.366634 -1.780033 -0.834052 0
M  V30 51 H -4.763551 0.582943 -1.470826 0
M  V30 52 H 2.347189 -2.095811 -1.546076 0
M  V30 53 H 5.851258 -4.921701 0.022024 0
M  V30 54 H 5.781810 -6.838967 -1.466837 0
M  V30 END ATOM
M  V30 BEGIN BOND
M  V30 1 1 1 2
M  V30 2 2 2 3
M  V30 3 1 3 4
M  V30 4 1 4 5
M  V30 5 2 5 6
M  V30 6 1 6 7
M  V30 7 1 7 8
M  V30 8 2 8 9
M  V30 9 1 9 10
M  V30 10 1 10 11
M  V30 11 1 11 12
M  V30 12 2 12 13
M  V30 13 1 12 14
M  V30 14 1 14 15
M  V30 15 1 15 16
M  V30 16 1 16 17
M  V30 17 1 17 18
M  V30 18 1 18 19
M  V30 19 1 19 20
M  V30 20 2 20 21
M  V30 21 1 21 22
M  V30 22 2 22 23
M  V30 23 1 23 24
M  V30 24 2 24 25
M  V30 25 1 25 26
M  V30 26 2 10 27
M  V30 27 1 27 28
M  V30 28 2 28 29
M  V30 29 2 4 30
M  V30 30 1 30 31
M  V30 31 2 31 32
M  V30 32 1 32 2
M  V30 33 1 29 5
M  V30 34 1 29 8
M  V30 35 1 26 17
M  V30 36 1 25 20
M  V30 37 1 1 33
M  V30 38 1 1 34
M  V30 39 1 1 35
M  V30 40 1 3 36
M  V30 41 1 7 37
M  V30 42 1 9 38
M  V30 43 1 11 39
M  V30 44 1 14 40
M  V30 45 1 15 41
M  V30 46 1 15 42
M  V30 47 1 16 43
M  V30 48 1 16 44
M  V30 49 1 17 45
M  V30 50 1 18 46
M  V30 51 1 18 47
M  V30 52 1 21 48
M  V30 53 1 22 49
M  V30 54 1 23 50
M  V30 55 1 24 51
M  V30 56 1 28 52
M  V30 57 1 30 53
M  V30 58 1 31 54
M  V30 END BOND
M  V30 END CTAB
M  END
>  <Dataset>  (124) 
ChEMBL_Kinases

>  <Ligand_Instance>  (124) 
nan

>  <PDB_ID>  (124) 
nan

>  <Standardized_SMILES>  (124) 
Cc1cc(-c2n[nH]c3cc(NC(=O)NCCC4COc5ccccc5O4)ncc23)ccn1

>  <Name>  (124) 
nan

>  <Pocket>  (124) 
nan

>  <ATP_Site>  (124) 
nan

>  <Peripheral>  (124) 
nan

>  <Num_H_Atoms_ProtBoundConf>  (124) 
nan

>  <Num_Resolved_Atoms>  (124) 
nan

>  <Num_Not_Resolved_Atoms>  (124) 
nan

$$$$
CHEMBL3658738
     RDKit          3D

  0  0  0  0  0  0  0  0  0  0999 V3000
M  V30 BEGIN CTAB
M  V30 COUNTS 54 58 0 0 0
M  V30 BEGIN ATOM
M  V30 1 C 3.446690 -8.848284 3.637726 0
M  V30 2 C 3.013340 -8.193647 2.380545 0
M  V30 3 C 3.395447 -6.897567 2.144842 0
M  V30 4 C 3.033621 -6.199546 0.986440 0
M  V30 5 C 3.458034 -4.819517 0.767352 0
M  V30 6 N 4.686854 -4.314771 0.967780 0
M  V30 7 N 4.749550 -3.026624 0.676123 0
M  V30 8 C 3.506964 -2.700544 0.273417 0
M  V30 9 C 3.028284 -1.473672 -0.145070 0
M  V30 10 C 1.702836 -1.372701 -0.515602 0
M  V30 11 N 1.005854 -0.213994 -0.974856 0
M  V30 12 C 0.380501 0.586534 0.048618 0
M  V30 13 O 0.464634 0.253986 1.261084 0
M  V30 14 N -0.327258 1.742932 -0.296503 0
M  V30 15 C -0.943356 2.522556 0.766286 0 CFG=1
M  V30 16 C -0.535595 3.954469 0.707302 0
M  V30 17 N -1.760487 4.744193 0.657667 0
M  V30 18 C -2.575404 3.909463 -0.203623 0 CFG=2
M  V30 19 C -3.976537 4.371019 -0.297434 0
M  V30 20 C -4.611498 4.730920 0.874658 0
M  V30 21 C -5.936365 5.173993 0.839561 0
M  V30 22 C -6.617353 5.253435 -0.373428 0
M  V30 23 C -5.948731 4.882240 -1.544929 0
M  V30 24 C -4.633128 4.439609 -1.531475 0
M  V30 25 C -2.431546 2.559298 0.464456 0
M  V30 26 N 0.902556 -2.475247 -0.461081 0
M  V30 27 C 1.336405 -3.668337 -0.062387 0
M  V30 28 C 2.658676 -3.789915 0.312240 0
M  V30 29 C 2.255017 -6.894105 0.069993 0
M  V30 30 C 1.872168 -8.211511 0.319655 0
M  V30 31 N 2.256611 -8.829266 1.461555 0
M  V30 32 H 2.868203 -8.371414 4.471448 0
M  V30 33 H 3.091039 -9.911049 3.593979 0
M  V30 34 H 4.521650 -8.861450 3.807870 0
M  V30 35 H 3.997199 -6.336555 2.835755 0
M  V30 36 H 5.564609 -2.376794 0.733731 0
M  V30 37 H 3.584601 -0.549303 -0.220740 0
M  V30 38 H 0.905402 0.108967 -1.977564 0
M  V30 39 H -0.443258 2.086164 -1.276148 0
M  V30 40 H -0.742699 2.046245 1.756078 0
M  V30 41 H -0.014799 4.152869 -0.262707 0
M  V30 42 H 0.125120 4.284280 1.526268 0
M  V30 43 H -1.608976 5.692783 0.299355 0
M  V30 44 H -2.101171 3.929365 -1.193877 0
M  V30 45 H -4.098701 4.677277 1.837851 0
M  V30 46 H -6.488571 5.469872 1.720988 0
M  V30 47 H -7.646931 5.589956 -0.463572 0
M  V30 48 H -6.500425 4.953193 -2.474502 0
M  V30 49 H -4.127058 4.155325 -2.445020 0
M  V30 50 H -2.723485 1.738398 -0.240573 0
M  V30 51 H -3.043859 2.546061 1.381795 0
M  V30 52 H 0.697756 -4.540346 -0.020757 0
M  V30 53 H 1.941577 -6.423467 -0.837308 0
M  V30 54 H 1.276953 -8.779231 -0.354569 0
M  V30 END ATOM
M  V30 BEGIN BOND
M  V30 1 1 1 2
M  V30 2 2 2 3
M  V30 3 1 3 4
M  V30 4 1 4 5
M  V30 5 2 5 6
M  V30 6 1 6 7
M  V30 7 1 7 8
M  V30 8 2 8 9
M  V30 9 1 9 10
M  V30 10 1 10 11
M  V30 11 1 11 12
M  V30 12 2 12 13
M  V30 13 1 12 14
M  V30 14 1 14 15
M  V30 15 1 15 16
M  V30 16 1 16 17
M  V30 17 1 17 18
M  V30 18 1 18 19
M  V30 19 2 19 20
M  V30 20 1 20 21
M  V30 21 2 21 22
M  V30 22 1 22 23
M  V30 23 2 23 24
M  V30 24 1 18 25
M  V30 25 2 10 26
M  V30 26 1 26 27
M  V30 27 2 27 28
M  V30 28 2 4 29
M  V30 29 1 29 30
M  V30 30 2 30 31
M  V30 31 1 31 2
M  V30 32 1 28 5
M  V30 33 1 28 8
M  V30 34 1 25 15
M  V30 35 1 24 19
M  V30 36 1 1 32
M  V30 37 1 1 33
M  V30 38 1 1 34
M  V30 39 1 3 35
M  V30 40 1 7 36
M  V30 41 1 9 37
M  V30 42 1 11 38
M  V30 43 1 14 39
M  V30 44 1 15 40 CFG=1
M  V30 45 1 16 41
M  V30 46 1 16 42
M  V30 47 1 17 43
M  V30 48 1 18 44 CFG=3
M  V30 49 1 20 45
M  V30 50 1 21 46
M  V30 51 1 22 47
M  V30 52 1 23 48
M  V30 53 1 24 49
M  V30 54 1 25 50
M  V30 55 1 25 51
M  V30 56 1 27 52
M  V30 57 1 29 53
M  V30 58 1 30 54
M  V30 END BOND
M  V30 END CTAB
M  END
>  <Dataset>  (125) 
ChEMBL_Kinases

>  <Ligand_Instance>  (125) 
nan

>  <PDB_ID>  (125) 
nan

>  <Standardized_SMILES>  (125) 
Cc1cc(-c2n[nH]c3cc(NC(=O)N[C@H]4CN[C@H](c5ccccc5)C4)ncc23)ccn1

>  <Name>  (125) 
nan

>  <Pocket>  (125) 
nan

>  <ATP_Site>  (125) 
nan

>  <Peripheral>  (125) 
nan

>  <Num_H_Atoms_ProtBoundConf>  (125) 
nan

>  <Num_Resolved_Atoms>  (125) 
nan

>  <Num_Not_Resolved_Atoms>  (125) 
nan

$$$$
CHEMBL3658739
     RDKit          3D

  0  0  0  0  0  0  0  0  0  0999 V3000
M  V30 BEGIN CTAB
M  V30 COUNTS 54 58 0 0 0
M  V30 BEGIN ATOM
M  V30 1 C 8.262876 -5.223406 1.651794 0
M  V30 2 C 6.840508 -4.812086 1.828512 0
M  V30 3 C 6.483550 -3.479951 1.847913 0
M  V30 4 C 5.171952 -3.055496 2.009953 0
M  V30 5 C 4.752623 -1.666187 2.036308 0
M  V30 6 N 5.357591 -0.652485 2.721651 0
M  V30 7 N 4.693496 0.484637 2.508609 0
M  V30 8 C 3.649629 0.254162 1.690069 0
M  V30 9 C 2.703697 1.122321 1.206487 0
M  V30 10 C 1.748494 0.572848 0.376330 0
M  V30 11 N 0.666717 1.287399 -0.243397 0
M  V30 12 C -0.508657 1.294922 0.592867 0
M  V30 13 O -0.595849 0.751298 1.723446 0
M  V30 14 N -1.683738 1.956191 0.145226 0
M  V30 15 C -2.919393 2.007074 0.940046 0
M  V30 16 C -3.282885 3.407335 1.296614 0
M  V30 17 C -4.021613 1.278203 0.268151 0
M  V30 18 C -4.925222 0.387865 0.813203 0
M  V30 19 C -5.883422 -0.196856 0.045980 0
M  V30 20 C -6.019860 0.051938 -1.306078 0
M  V30 21 N -7.021389 -0.557944 -2.112819 0
M  V30 22 C -8.142102 -0.231041 -2.744707 0
M  V30 23 N -8.607143 -1.345872 -3.342472 0
M  V30 24 C -7.781309 -2.364769 -3.085618 0
M  V30 25 N -6.792085 -1.850253 -2.312368 0
M  V30 26 C -5.113469 0.944793 -1.851964 0
M  V30 27 C -4.126278 1.552609 -1.081758 0
M  V30 28 N 1.766412 -0.749911 0.072376 0
M  V30 29 C 2.699943 -1.589753 0.553679 0
M  V30 30 C 3.678522 -1.091678 1.388609 0
M  V30 31 C 4.260922 -4.094574 2.149587 0
M  V30 32 C 4.606652 -5.425302 2.131620 0
M  V30 33 N 5.893898 -5.762158 1.970969 0
M  V30 34 H 8.763930 -5.365827 2.639569 0
M  V30 35 H 8.798736 -4.408787 1.118577 0
M  V30 36 H 8.285017 -6.152669 1.048839 0
M  V30 37 H 7.241082 -2.696426 1.733429 0
M  V30 38 H 4.966511 1.412612 2.930667 0
M  V30 39 H 2.630665 2.162340 1.402371 0
M  V30 40 H 0.638620 1.763513 -1.157927 0
M  V30 41 H -1.638063 2.418552 -0.795757 0
M  V30 42 H -2.691792 1.449173 1.871552 0
M  V30 43 H -3.725431 3.403439 2.313247 0
M  V30 44 H -4.041326 3.843043 0.614628 0
M  V30 45 H -2.363935 4.016214 1.357292 0
M  V30 46 H -4.782936 0.221149 1.876086 0
M  V30 47 H -6.579821 -0.893324 0.504569 0
M  V30 48 H -8.445899 0.800110 -2.663068 0
M  V30 49 H -8.046784 -3.314374 -3.510902 0
M  V30 50 H -5.223633 1.141199 -2.926896 0
M  V30 51 H -3.488519 2.233205 -1.661844 0
M  V30 52 H 2.697542 -2.640858 0.299990 0
M  V30 53 H 3.204377 -3.898469 2.283075 0
M  V30 54 H 3.879549 -6.221139 2.242381 0
M  V30 END ATOM
M  V30 BEGIN BOND
M  V30 1 1 1 2
M  V30 2 2 2 3
M  V30 3 1 3 4
M  V30 4 1 4 5
M  V30 5 2 5 6
M  V30 6 1 6 7
M  V30 7 1 7 8
M  V30 8 2 8 9
M  V30 9 1 9 10
M  V30 10 1 10 11
M  V30 11 1 11 12
M  V30 12 2 12 13
M  V30 13 1 12 14
M  V30 14 1 14 15
M  V30 15 1 15 16
M  V30 16 1 15 17
M  V30 17 2 17 18
M  V30 18 1 18 19
M  V30 19 2 19 20
M  V30 20 1 20 21
M  V30 21 1 21 22
M  V30 22 2 22 23
M  V30 23 1 23 24
M  V30 24 2 24 25
M  V30 25 1 20 26
M  V30 26 2 26 27
M  V30 27 2 10 28
M  V30 28 1 28 29
M  V30 29 2 29 30
M  V30 30 2 4 31
M  V30 31 1 31 32
M  V30 32 2 32 33
M  V30 33 1 33 2
M  V30 34 1 30 5
M  V30 35 1 30 8
M  V30 36 1 27 17
M  V30 37 1 25 21
M  V30 38 1 1 34
M  V30 39 1 1 35
M  V30 40 1 1 36
M  V30 41 1 3 37
M  V30 42 1 7 38
M  V30 43 1 9 39
M  V30 44 1 11 40
M  V30 45 1 14 41
M  V30 46 1 15 42
M  V30 47 1 16 43
M  V30 48 1 16 44
M  V30 49 1 16 45
M  V30 50 1 18 46
M  V30 51 1 19 47
M  V30 52 1 22 48
M  V30 53 1 24 49
M  V30 54 1 26 50
M  V30 55 1 27 51
M  V30 56 1 29 52
M  V30 57 1 31 53
M  V30 58 1 32 54
M  V30 END BOND
M  V30 END CTAB
M  END
>  <Dataset>  (126) 
ChEMBL_Kinases

>  <Ligand_Instance>  (126) 
nan

>  <PDB_ID>  (126) 
nan

>  <Standardized_SMILES>  (126) 
Cc1cc(-c2n[nH]c3cc(NC(=O)NC(C)c4ccc(-n5cncn5)cc4)ncc23)ccn1

>  <Name>  (126) 
nan

>  <Pocket>  (126) 
nan

>  <ATP_Site>  (126) 
nan

>  <Peripheral>  (126) 
nan

>  <Num_H_Atoms_ProtBoundConf>  (126) 
nan

>  <Num_Resolved_Atoms>  (126) 
nan

>  <Num_Not_Resolved_Atoms>  (126) 
nan

$$$$
CHEMBL3658740
     RDKit          3D

  0  0  0  0  0  0  0  0  0  0999 V3000
M  V30 BEGIN CTAB
M  V30 COUNTS 54 57 0 0 0
M  V30 BEGIN ATOM
M  V30 1 C 5.935919 -6.628744 2.028345 0
M  V30 2 C 6.416969 -5.222167 1.950773 0
M  V30 3 C 5.444619 -4.253491 1.817400 0
M  V30 4 C 5.922919 -2.940908 1.746779 0
M  V30 5 C 4.969902 -1.841303 1.604751 0
M  V30 6 N 5.089577 -0.726063 2.348422 0
M  V30 7 N 4.117499 0.142941 2.057440 0
M  V30 8 C 3.330329 -0.412625 1.092518 0
M  V30 9 C 2.202065 -0.021741 0.397112 0
M  V30 10 C 1.677787 -0.896483 -0.537782 0
M  V30 11 N 0.514054 -0.404085 -1.203182 0
M  V30 12 C -0.756512 -0.688471 -0.625548 0
M  V30 13 O -0.794759 -1.367106 0.454776 0
M  V30 14 N -2.001974 -0.294713 -1.126112 0
M  V30 15 C -3.227166 -0.641898 -0.453231 0
M  V30 16 C -4.078026 -1.558557 -1.335168 0
M  V30 17 C -4.068952 0.518028 -0.133115 0
M  V30 18 C -4.707772 0.753417 1.067670 0
M  V30 19 C -5.488294 1.863957 1.312375 0
M  V30 20 C -5.636519 2.787767 0.299842 0
M  V30 21 S -6.624993 4.209700 0.586647 0
M  V30 22 C -8.309738 3.857164 0.124464 0
M  V30 23 O -6.582694 4.561355 2.027784 0
M  V30 24 O -6.142835 5.340906 -0.303917 0
M  V30 25 C -5.018668 2.603825 -0.926471 0
M  V30 26 C -4.248140 1.476620 -1.122158 0
M  V30 27 N 2.222949 -2.108267 -0.794169 0
M  V30 28 C 3.335863 -2.529086 -0.128641 0
M  V30 29 C 3.859608 -1.655822 0.804978 0
M  V30 30 C 7.296773 -2.684480 1.811483 0
M  V30 31 C 8.200745 -3.744155 1.947592 0
M  V30 32 N 7.743724 -5.002924 2.015421 0
M  V30 33 H 6.682675 -7.293937 2.511113 0
M  V30 34 H 5.648113 -6.989791 1.019130 0
M  V30 35 H 5.022789 -6.684522 2.670700 0
M  V30 36 H 4.403009 -4.505513 1.772709 0
M  V30 37 H 3.935564 1.092525 2.458718 0
M  V30 38 H 1.788971 0.947432 0.620872 0
M  V30 39 H 0.434555 0.155844 -2.083517 0
M  V30 40 H -2.013740 0.262062 -2.008188 0
M  V30 41 H -3.000852 -1.229954 0.458620 0
M  V30 42 H -5.129536 -1.568038 -1.012587 0
M  V30 43 H -3.718315 -2.603882 -1.292384 0
M  V30 44 H -4.000266 -1.135724 -2.353824 0
M  V30 45 H -4.568963 0.002458 1.846367 0
M  V30 46 H -5.970447 1.996286 2.286013 0
M  V30 47 H -8.762737 4.802573 -0.227866 0
M  V30 48 H -8.289048 3.112075 -0.695913 0
M  V30 49 H -8.901856 3.501807 0.990652 0
M  V30 50 H -5.173456 3.368364 -1.686503 0
M  V30 51 H -3.784602 1.371506 -2.091050 0
M  V30 52 H 3.777931 -3.496891 -0.327956 0
M  V30 53 H 7.662209 -1.657005 1.755648 0
M  V30 54 H 9.254705 -3.463721 1.990869 0
M  V30 END ATOM
M  V30 BEGIN BOND
M  V30 1 1 1 2
M  V30 2 2 2 3
M  V30 3 1 3 4
M  V30 4 1 4 5
M  V30 5 2 5 6
M  V30 6 1 6 7
M  V30 7 1 7 8
M  V30 8 2 8 9
M  V30 9 1 9 10
M  V30 10 1 10 11
M  V30 11 1 11 12
M  V30 12 2 12 13
M  V30 13 1 12 14
M  V30 14 1 14 15
M  V30 15 1 15 16
M  V30 16 1 15 17
M  V30 17 2 17 18
M  V30 18 1 18 19
M  V30 19 2 19 20
M  V30 20 1 20 21
M  V30 21 1 21 22
M  V30 22 2 21 23
M  V30 23 2 21 24
M  V30 24 1 20 25
M  V30 25 2 25 26
M  V30 26 2 10 27
M  V30 27 1 27 28
M  V30 28 2 28 29
M  V30 29 2 4 30
M  V30 30 1 30 31
M  V30 31 2 31 32
M  V30 32 1 32 2
M  V30 33 1 29 5
M  V30 34 1 29 8
M  V30 35 1 26 17
M  V30 36 1 1 33
M  V30 37 1 1 34
M  V30 38 1 1 35
M  V30 39 1 3 36
M  V30 40 1 7 37
M  V30 41 1 9 38
M  V30 42 1 11 39
M  V30 43 1 14 40
M  V30 44 1 15 41
M  V30 45 1 16 42
M  V30 46 1 16 43
M  V30 47 1 16 44
M  V30 48 1 18 45
M  V30 49 1 19 46
M  V30 50 1 22 47
M  V30 51 1 22 48
M  V30 52 1 22 49
M  V30 53 1 25 50
M  V30 54 1 26 51
M  V30 55 1 28 52
M  V30 56 1 30 53
M  V30 57 1 31 54
M  V30 END BOND
M  V30 END CTAB
M  END
>  <Dataset>  (127) 
ChEMBL_Kinases

>  <Ligand_Instance>  (127) 
nan

>  <PDB_ID>  (127) 
nan

>  <Standardized_SMILES>  (127) 
Cc1cc(-c2n[nH]c3cc(NC(=O)NC(C)c4ccc(S(C)(=O)=O)cc4)ncc23)ccn1

>  <Name>  (127) 
nan

>  <Pocket>  (127) 
nan

>  <ATP_Site>  (127) 
nan

>  <Peripheral>  (127) 
nan

>  <Num_H_Atoms_ProtBoundConf>  (127) 
nan

>  <Num_Resolved_Atoms>  (127) 
nan

>  <Num_Not_Resolved_Atoms>  (127) 
nan

$$$$
CHEMBL3658750
     RDKit          3D

  0  0  0  0  0  0  0  0  0  0999 V3000
M  V30 BEGIN CTAB
M  V30 COUNTS 63 67 0 0 0
M  V30 BEGIN ATOM
M  V30 1 C 5.326428 3.823861 7.849069 0
M  V30 2 C 4.088607 3.628884 7.037338 0
M  V30 3 C 3.975261 2.563732 6.161247 0
M  V30 4 C 2.851338 2.349081 5.395408 0
M  V30 5 C 2.802398 1.199608 4.489222 0
M  V30 6 N 3.184171 -0.056757 4.788657 0
M  V30 7 N 3.010920 -0.864492 3.740153 0
M  V30 8 C 2.508522 -0.088561 2.764970 0
M  V30 9 C 2.157651 -0.456254 1.481389 0
M  V30 10 C 1.659819 0.553183 0.674310 0
M  V30 11 N 1.235826 0.410853 -0.677057 0
M  V30 12 C -0.117083 0.082056 -1.049058 0
M  V30 13 O -0.874084 -0.062912 -0.031307 0
M  V30 14 N -0.541488 -0.060305 -2.398956 0
M  V30 15 C -1.920619 -0.391751 -2.639266 0
M  V30 16 C -2.387660 -1.684548 -2.034430 0
M  V30 17 C -3.852006 -1.797724 -2.412670 0
M  V30 18 C -4.858007 -1.526487 -1.509713 0
M  V30 19 C -6.188222 -1.632269 -1.863374 0
M  V30 20 C -6.497735 -2.022135 -3.162833 0
M  V30 21 C -5.487953 -2.291623 -4.059951 0
M  V30 22 C -4.145808 -2.186243 -3.707584 0
M  V30 23 N -1.770462 -2.858477 -2.560535 0
M  V30 24 C -2.346347 -4.073285 -1.952744 0
M  V30 25 C -2.256960 -5.144657 -3.049565 0
M  V30 26 C -0.887592 -5.032393 -3.723466 0
M  V30 27 C 0.095555 -4.368891 -2.752175 0
M  V30 28 C -0.354390 -2.951673 -2.432663 0
M  V30 29 N 1.511687 1.843742 1.090051 0
M  V30 30 C 1.856122 2.209120 2.353044 0
M  V30 31 C 2.355735 1.221214 3.179621 0
M  V30 32 C 1.832061 3.251762 5.540946 0
M  V30 33 C 1.918371 4.325562 6.409193 0
M  V30 34 N 3.052596 4.486550 7.139468 0
M  V30 35 H 5.715885 2.793430 8.078181 0
M  V30 36 H 6.064973 4.331472 7.182069 0
M  V30 37 H 5.128707 4.405792 8.764119 0
M  V30 38 H 4.829885 1.888673 6.101865 0
M  V30 39 H 3.222712 -1.889609 3.688947 0
M  V30 40 H 2.225681 -1.437891 1.032798 0
M  V30 41 H 1.948535 0.553162 -1.452050 0
M  V30 42 H 0.258092 0.115939 -3.075121 0
M  V30 43 H -2.159211 -0.409340 -3.735310 0
M  V30 44 H -2.515016 0.454136 -2.207967 0
M  V30 45 H -2.313449 -1.664298 -0.927602 0
M  V30 46 H -4.588388 -1.221607 -0.493436 0
M  V30 47 H -6.962698 -1.412743 -1.132504 0
M  V30 48 H -7.547593 -2.105301 -3.440930 0
M  V30 49 H -5.719982 -2.596121 -5.074966 0
M  V30 50 H -3.338022 -2.393043 -4.395893 0
M  V30 51 H -3.384512 -3.926723 -1.632432 0
M  V30 52 H -1.659657 -4.357435 -1.132105 0
M  V30 53 H -3.009660 -4.881977 -3.813788 0
M  V30 54 H -2.406688 -6.162939 -2.628561 0
M  V30 55 H -0.993604 -4.348161 -4.569570 0
M  V30 56 H -0.519610 -6.035776 -3.949954 0
M  V30 57 H 1.070516 -4.407334 -3.259828 0
M  V30 58 H 0.133030 -5.005174 -1.846378 0
M  V30 59 H -0.108044 -2.792470 -1.341969 0
M  V30 60 H 0.236084 -2.225103 -2.997244 0
M  V30 61 H 1.747720 3.227012 2.705880 0
M  V30 62 H 0.927855 3.124679 4.959702 0
M  V30 63 H 1.124342 5.048416 6.537604 0
M  V30 END ATOM
M  V30 BEGIN BOND
M  V30 1 1 1 2
M  V30 2 2 2 3
M  V30 3 1 3 4
M  V30 4 1 4 5
M  V30 5 2 5 6
M  V30 6 1 6 7
M  V30 7 1 7 8
M  V30 8 2 8 9
M  V30 9 1 9 10
M  V30 10 1 10 11
M  V30 11 1 11 12
M  V30 12 2 12 13
M  V30 13 1 12 14
M  V30 14 1 14 15
M  V30 15 1 15 16
M  V30 16 1 16 17
M  V30 17 2 17 18
M  V30 18 1 18 19
M  V30 19 2 19 20
M  V30 20 1 20 21
M  V30 21 2 21 22
M  V30 22 1 16 23
M  V30 23 1 23 24
M  V30 24 1 24 25
M  V30 25 1 25 26
M  V30 26 1 26 27
M  V30 27 1 27 28
M  V30 28 2 10 29
M  V30 29 1 29 30
M  V30 30 2 30 31
M  V30 31 2 4 32
M  V30 32 1 32 33
M  V30 33 2 33 34
M  V30 34 1 34 2
M  V30 35 1 31 5
M  V30 36 1 31 8
M  V30 37 1 22 17
M  V30 38 1 28 23
M  V30 39 1 1 35
M  V30 40 1 1 36
M  V30 41 1 1 37
M  V30 42 1 3 38
M  V30 43 1 7 39
M  V30 44 1 9 40
M  V30 45 1 11 41
M  V30 46 1 14 42
M  V30 47 1 15 43
M  V30 48 1 15 44
M  V30 49 1 16 45
M  V30 50 1 18 46
M  V30 51 1 19 47
M  V30 52 1 20 48
M  V30 53 1 21 49
M  V30 54 1 22 50
M  V30 55 1 24 51
M  V30 56 1 24 52
M  V30 57 1 25 53
M  V30 58 1 25 54
M  V30 59 1 26 55
M  V30 60 1 26 56
M  V30 61 1 27 57
M  V30 62 1 27 58
M  V30 63 1 28 59
M  V30 64 1 28 60
M  V30 65 1 30 61
M  V30 66 1 32 62
M  V30 67 1 33 63
M  V30 END BOND
M  V30 END CTAB
M  END
>  <Dataset>  (128) 
ChEMBL_Kinases

>  <Ligand_Instance>  (128) 
nan

>  <PDB_ID>  (128) 
nan

>  <Standardized_SMILES>  (128) 
Cc1cc(-c2n[nH]c3cc(NC(=O)NCC(c4ccccc4)N4CCCCC4)ncc23)ccn1

>  <Name>  (128) 
nan

>  <Pocket>  (128) 
nan

>  <ATP_Site>  (128) 
nan

>  <Peripheral>  (128) 
nan

>  <Num_H_Atoms_ProtBoundConf>  (128) 
nan

>  <Num_Resolved_Atoms>  (128) 
nan

>  <Num_Not_Resolved_Atoms>  (128) 
nan

$$$$
CHEMBL3658742
     RDKit          3D

  0  0  0  0  0  0  0  0  0  0999 V3000
M  V30 BEGIN CTAB
M  V30 COUNTS 62 66 0 0 0
M  V30 BEGIN ATOM
M  V30 1 C 2.889750 2.242662 9.312955 0
M  V30 2 C 3.150936 2.787233 7.945008 0
M  V30 3 C 3.267861 1.921329 6.867068 0
M  V30 4 C 3.511627 2.348024 5.556165 0
M  V30 5 C 3.600954 1.280664 4.562396 0
M  V30 6 N 4.310728 0.171179 4.808050 0
M  V30 7 N 4.251311 -0.656806 3.770348 0
M  V30 8 C 3.481663 -0.063572 2.830371 0
M  V30 9 C 3.047737 -0.401508 1.557702 0
M  V30 10 C 2.241670 0.475546 0.855721 0
M  V30 11 N 1.869544 0.005677 -0.434605 0
M  V30 12 C 0.697618 -0.763846 -0.653968 0
M  V30 13 O 0.011434 -0.997505 0.391661 0
M  V30 14 N 0.250197 -1.272106 -1.898563 0
M  V30 15 C -0.980184 -2.051155 -1.972672 0
M  V30 16 C -2.013461 -1.439668 -2.862484 0
M  V30 17 C -3.220843 -2.345539 -2.842756 0
M  V30 18 N -4.305861 -1.887925 -3.656484 0
M  V30 19 C -5.380644 -2.870301 -3.523838 0
M  V30 20 C -6.577066 -2.114407 -4.060790 0
M  V30 21 C -6.362762 -0.731313 -3.468314 0
M  V30 22 C -4.894285 -0.703675 -3.076008 0
M  V30 23 C -0.645142 -3.414901 -2.489844 0
M  V30 24 C 0.198687 -3.560636 -3.569523 0
M  V30 25 C 0.508807 -4.836731 -4.049166 0
M  V30 26 N -0.026761 -5.904420 -3.442525 0
M  V30 27 C -0.856317 -5.807521 -2.384248 0
M  V30 28 C -1.179877 -4.559642 -1.889479 0
M  V30 29 N 1.865953 1.659681 1.384915 0
M  V30 30 C 2.251617 2.049857 2.615256 0
M  V30 31 C 3.054194 1.165468 3.301901 0
M  V30 32 C 3.640212 3.703982 5.339117 0
M  V30 33 C 3.520787 4.554977 6.426074 0
M  V30 34 N 3.287409 4.112486 7.666868 0
M  V30 35 H 1.813145 2.073326 9.469113 0
M  V30 36 H 3.210822 2.978612 10.085730 0
M  V30 37 H 3.505800 1.346460 9.433166 0
M  V30 38 H 3.156463 0.851972 7.099307 0
M  V30 39 H 4.698723 -1.602658 3.652953 0
M  V30 40 H 3.381444 -1.364037 1.186214 0
M  V30 41 H 2.453485 0.215353 -1.265801 0
M  V30 42 H 0.851777 -1.050350 -2.723773 0
M  V30 43 H -1.380033 -2.110053 -0.944961 0
M  V30 44 H -2.302060 -0.434653 -2.503780 0
M  V30 45 H -1.605274 -1.285264 -3.880914 0
M  V30 46 H -2.923266 -3.372822 -3.166532 0
M  V30 47 H -3.559569 -2.406617 -1.788519 0
M  V30 48 H -5.578655 -3.047456 -2.439953 0
M  V30 49 H -5.168320 -3.805234 -4.066513 0
M  V30 50 H -7.536310 -2.572877 -3.691207 0
M  V30 51 H -6.502115 -2.112685 -5.158948 0
M  V30 52 H -6.638134 0.067441 -4.164319 0
M  V30 53 H -6.999243 -0.684278 -2.545682 0
M  V30 54 H -4.464776 0.232931 -3.499722 0
M  V30 55 H -4.765440 -0.672822 -1.985975 0
M  V30 56 H 0.649070 -2.708058 -4.082741 0
M  V30 57 H 1.163245 -5.016168 -4.891022 0
M  V30 58 H -1.303831 -6.666936 -1.875133 0
M  V30 59 H -1.828347 -4.363585 -1.054072 0
M  V30 60 H 1.948923 2.997109 3.034148 0
M  V30 61 H 3.827279 3.988885 4.315293 0
M  V30 62 H 3.626520 5.606635 6.221043 0
M  V30 END ATOM
M  V30 BEGIN BOND
M  V30 1 1 1 2
M  V30 2 2 2 3
M  V30 3 1 3 4
M  V30 4 1 4 5
M  V30 5 2 5 6
M  V30 6 1 6 7
M  V30 7 1 7 8
M  V30 8 2 8 9
M  V30 9 1 9 10
M  V30 10 1 10 11
M  V30 11 1 11 12
M  V30 12 2 12 13
M  V30 13 1 12 14
M  V30 14 1 14 15
M  V30 15 1 15 16
M  V30 16 1 16 17
M  V30 17 1 17 18
M  V30 18 1 18 19
M  V30 19 1 19 20
M  V30 20 1 20 21
M  V30 21 1 21 22
M  V30 22 1 15 23
M  V30 23 2 23 24
M  V30 24 1 24 25
M  V30 25 2 25 26
M  V30 26 1 26 27
M  V30 27 2 27 28
M  V30 28 2 10 29
M  V30 29 1 29 30
M  V30 30 2 30 31
M  V30 31 2 4 32
M  V30 32 1 32 33
M  V30 33 2 33 34
M  V30 34 1 34 2
M  V30 35 1 31 5
M  V30 36 1 31 8
M  V30 37 1 22 18
M  V30 38 1 28 23
M  V30 39 1 1 35
M  V30 40 1 1 36
M  V30 41 1 1 37
M  V30 42 1 3 38
M  V30 43 1 7 39
M  V30 44 1 9 40
M  V30 45 1 11 41
M  V30 46 1 14 42
M  V30 47 1 15 43
M  V30 48 1 16 44
M  V30 49 1 16 45
M  V30 50 1 17 46
M  V30 51 1 17 47
M  V30 52 1 19 48
M  V30 53 1 19 49
M  V30 54 1 20 50
M  V30 55 1 20 51
M  V30 56 1 21 52
M  V30 57 1 21 53
M  V30 58 1 22 54
M  V30 59 1 22 55
M  V30 60 1 24 56
M  V30 61 1 25 57
M  V30 62 1 27 58
M  V30 63 1 28 59
M  V30 64 1 30 60
M  V30 65 1 32 61
M  V30 66 1 33 62
M  V30 END BOND
M  V30 END CTAB
M  END
>  <Dataset>  (129) 
ChEMBL_Kinases

>  <Ligand_Instance>  (129) 
nan

>  <PDB_ID>  (129) 
nan

>  <Standardized_SMILES>  (129) 
Cc1cc(-c2n[nH]c3cc(NC(=O)NC(CCN4CCCC4)c4ccncc4)ncc23)ccn1

>  <Name>  (129) 
nan

>  <Pocket>  (129) 
nan

>  <ATP_Site>  (129) 
nan

>  <Peripheral>  (129) 
nan

>  <Num_H_Atoms_ProtBoundConf>  (129) 
nan

>  <Num_Resolved_Atoms>  (129) 
nan

>  <Num_Not_Resolved_Atoms>  (129) 
nan

$$$$
CHEMBL3658743
     RDKit          3D

  0  0  0  0  0  0  0  0  0  0999 V3000
M  V30 BEGIN CTAB
M  V30 COUNTS 48 51 0 0 0
M  V30 BEGIN ATOM
M  V30 1 C -2.179626 -7.102483 0.465750 0
M  V30 2 C -0.886045 -6.913873 -0.258063 0
M  V30 3 C -0.139968 -5.772831 -0.010128 0
M  V30 4 C 1.066578 -5.561925 -0.662677 0
M  V30 5 C 1.936784 -4.405128 -0.485672 0
M  V30 6 N 3.287770 -4.402551 -0.330809 0
M  V30 7 N 3.723365 -3.148591 -0.197049 0
M  V30 8 C 2.653454 -2.335350 -0.265153 0
M  V30 9 C 2.619124 -0.958094 -0.176945 0
M  V30 10 C 1.395018 -0.330885 -0.275141 0
M  V30 11 N 1.093333 1.058910 -0.216715 0
M  V30 12 C 0.795624 1.728030 0.997134 0
M  V30 13 O 0.820201 0.984551 2.029971 0
M  V30 14 N 0.487979 3.109883 1.114922 0
M  V30 15 C 0.191588 3.736823 2.388277 0
M  V30 16 C -1.207767 4.219623 2.312744 0
M  V30 17 C -2.096278 4.008680 3.370501 0
M  V30 18 C -3.397920 4.489586 3.232349 0
M  V30 19 C -3.868203 5.160208 2.120843 0
M  V30 20 C -2.977281 5.368653 1.066777 0
M  V30 21 C -1.689817 4.892293 1.204900 0
M  V30 22 C 1.162144 4.831508 2.734888 0
M  V30 23 F 1.191636 5.844783 1.830373 0
M  V30 24 F 0.736967 5.369942 3.942650 0
M  V30 25 N 0.278794 -1.090402 -0.453760 0
M  V30 26 C 0.306735 -2.432602 -0.540355 0
M  V30 27 C 1.513413 -3.091386 -0.446265 0
M  V30 28 C 1.526239 -6.501628 -1.568800 0
M  V30 29 C 0.733367 -7.625354 -1.774994 0
M  V30 30 N -0.450504 -7.837064 -1.137782 0
M  V30 31 H -2.447763 -8.166941 0.602216 0
M  V30 32 H -2.958707 -6.518634 -0.083079 0
M  V30 33 H -2.059034 -6.602828 1.458543 0
M  V30 34 H -0.449781 -4.996317 0.692879 0
M  V30 35 H 4.715753 -2.882433 -0.065612 0
M  V30 36 H 3.434593 -0.286829 -0.038668 0
M  V30 37 H 1.068553 1.690168 -1.063245 0
M  V30 38 H 0.492482 3.635541 0.214337 0
M  V30 39 H 0.258554 2.949260 3.164178 0
M  V30 40 H -1.764116 3.490169 4.251386 0
M  V30 41 H -4.036118 4.287660 4.099800 0
M  V30 42 H -4.889767 5.511465 2.068368 0
M  V30 43 H -3.285784 5.887238 0.169586 0
M  V30 44 H -0.983482 5.042999 0.400296 0
M  V30 45 H 2.150975 4.383337 2.899709 0
M  V30 46 H -0.592462 -3.021234 -0.682686 0
M  V30 47 H 2.442114 -6.444353 -2.130425 0
M  V30 48 H 1.021313 -8.418802 -2.474629 0
M  V30 END ATOM
M  V30 BEGIN BOND
M  V30 1 1 1 2
M  V30 2 2 2 3
M  V30 3 1 3 4
M  V30 4 1 4 5
M  V30 5 2 5 6
M  V30 6 1 6 7
M  V30 7 1 7 8
M  V30 8 2 8 9
M  V30 9 1 9 10
M  V30 10 1 10 11
M  V30 11 1 11 12
M  V30 12 2 12 13
M  V30 13 1 12 14
M  V30 14 1 14 15
M  V30 15 1 15 16
M  V30 16 2 16 17
M  V30 17 1 17 18
M  V30 18 2 18 19
M  V30 19 1 19 20
M  V30 20 2 20 21
M  V30 21 1 15 22
M  V30 22 1 22 23
M  V30 23 1 22 24
M  V30 24 2 10 25
M  V30 25 1 25 26
M  V30 26 2 26 27
M  V30 27 2 4 28
M  V30 28 1 28 29
M  V30 29 2 29 30
M  V30 30 1 30 2
M  V30 31 1 27 5
M  V30 32 1 27 8
M  V30 33 1 21 16
M  V30 34 1 1 31
M  V30 35 1 1 32
M  V30 36 1 1 33
M  V30 37 1 3 34
M  V30 38 1 7 35
M  V30 39 1 9 36
M  V30 40 1 11 37
M  V30 41 1 14 38
M  V30 42 1 15 39
M  V30 43 1 17 40
M  V30 44 1 18 41
M  V30 45 1 19 42
M  V30 46 1 20 43
M  V30 47 1 21 44
M  V30 48 1 22 45
M  V30 49 1 26 46
M  V30 50 1 28 47
M  V30 51 1 29 48
M  V30 END BOND
M  V30 END CTAB
M  END
>  <Dataset>  (130) 
ChEMBL_Kinases

>  <Ligand_Instance>  (130) 
nan

>  <PDB_ID>  (130) 
nan

>  <Standardized_SMILES>  (130) 
Cc1cc(-c2n[nH]c3cc(NC(=O)NC(c4ccccc4)C(F)F)ncc23)ccn1

>  <Name>  (130) 
nan

>  <Pocket>  (130) 
nan

>  <ATP_Site>  (130) 
nan

>  <Peripheral>  (130) 
nan

>  <Num_H_Atoms_ProtBoundConf>  (130) 
nan

>  <Num_Resolved_Atoms>  (130) 
nan

>  <Num_Not_Resolved_Atoms>  (130) 
nan

$$$$
CHEMBL3658744
     RDKit          3D

  0  0  0  0  0  0  0  0  0  0999 V3000
M  V30 BEGIN CTAB
M  V30 COUNTS 49 52 0 0 0
M  V30 BEGIN ATOM
M  V30 1 C -5.661900 -2.173641 -4.550460 0
M  V30 2 C -4.648778 -3.196328 -4.177156 0
M  V30 3 C -3.865531 -2.963295 -3.066684 0
M  V30 4 C -2.928766 -3.915726 -2.726863 0
M  V30 5 C -2.005126 -3.867605 -1.599697 0
M  V30 6 N -1.776734 -4.928594 -0.779007 0
M  V30 7 N -0.892822 -4.581024 0.147161 0
M  V30 8 C -0.521365 -3.300993 -0.036482 0
M  V30 9 C 0.347981 -2.463953 0.624372 0
M  V30 10 C 0.502133 -1.170976 0.163424 0
M  V30 11 N 1.420612 -0.368261 0.902335 0
M  V30 12 C 1.112224 0.455433 2.029116 0
M  V30 13 O -0.101089 0.428245 2.351850 0
M  V30 14 N 2.082616 1.217541 2.702269 0
M  V30 15 C 1.716515 2.018912 3.818810 0
M  V30 16 C 1.909355 3.470179 3.445542 0
M  V30 17 C 3.233027 4.041396 3.812994 0
M  V30 18 C 4.303255 3.066946 4.155506 0
M  V30 19 C 3.808325 2.159031 5.233023 0
M  V30 20 O 4.601308 0.989317 5.322373 0
M  V30 21 C 2.362049 1.764973 5.110173 0
M  V30 22 N -0.188936 -0.737344 -0.917111 0
M  V30 23 C -1.049231 -1.566381 -1.570707 0
M  V30 24 C -1.222625 -2.857092 -1.134835 0
M  V30 25 C -2.832087 -5.052771 -3.525677 0
M  V30 26 C -3.642895 -5.256832 -4.645413 0
M  V30 27 N -4.559483 -4.294943 -4.953829 0
M  V30 28 H -6.540667 -2.193448 -3.861654 0
M  V30 29 H -6.002380 -2.290315 -5.599062 0
M  V30 30 H -5.193614 -1.175523 -4.410365 0
M  V30 31 H -3.912656 -2.110323 -2.437614 0
M  V30 32 H -0.514969 -5.175989 0.918668 0
M  V30 33 H 0.884907 -2.841988 1.484573 0
M  V30 34 H 2.401022 -0.414896 0.555123 0
M  V30 35 H 3.044007 1.123820 2.301249 0
M  V30 36 H 0.607821 1.874458 3.962599 0
M  V30 37 H 1.100673 4.062146 3.929602 0
M  V30 38 H 1.719001 3.616569 2.341952 0
M  V30 39 H 3.120834 4.720518 4.694630 0
M  V30 40 H 3.623290 4.711229 2.996808 0
M  V30 41 H 5.159285 3.648673 4.557381 0
M  V30 42 H 4.719029 2.530798 3.278965 0
M  V30 43 H 4.021645 2.670611 6.208764 0
M  V30 44 H 4.124662 0.275359 5.791889 0
M  V30 45 H 2.170884 0.748304 5.538992 0
M  V30 46 H 1.804494 2.415736 5.853129 0
M  V30 47 H -1.594004 -1.210518 -2.429669 0
M  V30 48 H -2.115255 -5.848237 -3.319066 0
M  V30 49 H -3.537144 -6.160650 -5.246321 0
M  V30 END ATOM
M  V30 BEGIN BOND
M  V30 1 1 1 2
M  V30 2 2 2 3
M  V30 3 1 3 4
M  V30 4 1 4 5
M  V30 5 2 5 6
M  V30 6 1 6 7
M  V30 7 1 7 8
M  V30 8 2 8 9
M  V30 9 1 9 10
M  V30 10 1 10 11
M  V30 11 1 11 12
M  V30 12 2 12 13
M  V30 13 1 12 14
M  V30 14 1 14 15
M  V30 15 1 15 16
M  V30 16 1 16 17
M  V30 17 1 17 18
M  V30 18 1 18 19
M  V30 19 1 19 20
M  V30 20 1 19 21
M  V30 21 2 10 22
M  V30 22 1 22 23
M  V30 23 2 23 24
M  V30 24 2 4 25
M  V30 25 1 25 26
M  V30 26 2 26 27
M  V30 27 1 27 2
M  V30 28 1 24 5
M  V30 29 1 24 8
M  V30 30 1 21 15
M  V30 31 1 1 28
M  V30 32 1 1 29
M  V30 33 1 1 30
M  V30 34 1 3 31
M  V30 35 1 7 32
M  V30 36 1 9 33
M  V30 37 1 11 34
M  V30 38 1 14 35
M  V30 39 1 15 36
M  V30 40 1 16 37
M  V30 41 1 16 38
M  V30 42 1 17 39
M  V30 43 1 17 40
M  V30 44 1 18 41
M  V30 45 1 18 42
M  V30 46 1 19 43
M  V30 47 1 20 44
M  V30 48 1 21 45
M  V30 49 1 21 46
M  V30 50 1 23 47
M  V30 51 1 25 48
M  V30 52 1 26 49
M  V30 END BOND
M  V30 END CTAB
M  END
>  <Dataset>  (131) 
ChEMBL_Kinases

>  <Ligand_Instance>  (131) 
nan

>  <PDB_ID>  (131) 
nan

>  <Standardized_SMILES>  (131) 
Cc1cc(-c2n[nH]c3cc(NC(=O)NC4CCCC(O)C4)ncc23)ccn1

>  <Name>  (131) 
nan

>  <Pocket>  (131) 
nan

>  <ATP_Site>  (131) 
nan

>  <Peripheral>  (131) 
nan

>  <Num_H_Atoms_ProtBoundConf>  (131) 
nan

>  <Num_Resolved_Atoms>  (131) 
nan

>  <Num_Not_Resolved_Atoms>  (131) 
nan

$$$$
CHEMBL3658745
     RDKit          3D

  0  0  0  0  0  0  0  0  0  0999 V3000
M  V30 BEGIN CTAB
M  V30 COUNTS 54 57 0 0 0
M  V30 BEGIN ATOM
M  V30 1 C 5.397895 0.068163 -5.361293 0
M  V30 2 C 4.576957 -0.893099 -4.555080 0
M  V30 3 O 3.543200 -1.374354 -5.121868 0
M  V30 4 O 4.991591 -1.184947 -3.275803 0
M  V30 5 C 4.331088 -2.063771 -2.398406 0
M  V30 6 C 5.222519 -3.221455 -1.970233 0
M  V30 7 C 4.670453 -3.782293 -0.672482 0
M  V30 8 C 3.154067 -3.738522 -0.803341 0
M  V30 9 C 2.732096 -2.347615 -0.584368 0
M  V30 10 N 1.499870 -1.913069 -1.126590 0
M  V30 11 C 0.425461 -1.364465 -0.381870 0
M  V30 12 O 0.585892 -1.257703 0.860312 0
M  V30 13 N -0.821297 -0.917810 -0.880196 0
M  V30 14 C -1.824388 -0.382844 -0.021617 0
M  V30 15 C -3.023869 0.037767 -0.565383 0
M  V30 16 C -3.934171 0.542881 0.354576 0
M  V30 17 N -5.195506 1.048726 0.238211 0
M  V30 18 N -5.649500 1.404393 1.440689 0
M  V30 19 C -4.711778 1.147614 2.382256 0
M  V30 20 C -4.920651 1.431480 3.797157 0
M  V30 21 C -5.467767 2.614466 4.284413 0
M  V30 22 C -5.623272 2.781684 5.660298 0
M  V30 23 N -5.258119 1.824526 6.562238 0
M  V30 24 C -4.723586 0.666629 6.101633 0
M  V30 25 C -4.327003 -0.374271 7.090904 0
M  V30 26 C -4.558470 0.476506 4.732714 0
M  V30 27 C -3.640871 0.609227 1.700355 0
M  V30 28 C -2.429795 0.176695 2.193032 0
M  V30 29 N -1.562914 -0.307581 1.293632 0
M  V30 30 C 3.815748 -1.427606 -1.143222 0
M  V30 31 H 5.021200 1.082562 -5.089898 0
M  V30 32 H 6.472980 0.031857 -5.072252 0
M  V30 33 H 5.226755 -0.100146 -6.433586 0
M  V30 34 H 3.440153 -2.445548 -2.958389 0
M  V30 35 H 6.243439 -2.842580 -1.774081 0
M  V30 36 H 5.199167 -4.029268 -2.730086 0
M  V30 37 H 5.023446 -3.214777 0.212200 0
M  V30 38 H 4.970150 -4.854350 -0.565355 0
M  V30 39 H 2.938246 -4.194527 -1.775439 0
M  V30 40 H 2.785968 -4.379608 0.050224 0
M  V30 41 H 2.692023 -2.176233 0.527033 0
M  V30 42 H 1.333342 -1.990164 -2.174133 0
M  V30 43 H -0.957796 -1.005021 -1.911046 0
M  V30 44 H -3.263215 -0.009948 -1.617566 0
M  V30 45 H -5.697353 1.129534 -0.671451 0
M  V30 46 H -5.753996 3.364374 3.580224 0
M  V30 47 H -6.054625 3.714889 6.040864 0
M  V30 48 H -3.561250 -0.007212 7.804236 0
M  V30 49 H -5.229600 -0.682227 7.641816 0
M  V30 50 H -3.909781 -1.237053 6.530320 0
M  V30 51 H -4.126203 -0.475588 4.474723 0
M  V30 52 H -2.189802 0.223672 3.241680 0
M  V30 53 H 4.641748 -1.280281 -0.409676 0
M  V30 54 H 3.372083 -0.425162 -1.342333 0
M  V30 END ATOM
M  V30 BEGIN BOND
M  V30 1 1 1 2
M  V30 2 2 2 3
M  V30 3 1 2 4
M  V30 4 1 4 5
M  V30 5 1 5 6
M  V30 6 1 6 7
M  V30 7 1 7 8
M  V30 8 1 8 9
M  V30 9 1 9 10
M  V30 10 1 10 11
M  V30 11 2 11 12
M  V30 12 1 11 13
M  V30 13 1 13 14
M  V30 14 2 14 15
M  V30 15 1 15 16
M  V30 16 1 16 17
M  V30 17 1 17 18
M  V30 18 2 18 19
M  V30 19 1 19 20
M  V30 20 2 20 21
M  V30 21 1 21 22
M  V30 22 2 22 23
M  V30 23 1 23 24
M  V30 24 1 24 25
M  V30 25 2 24 26
M  V30 26 1 19 27
M  V30 27 1 27 28
M  V30 28 2 28 29
M  V30 29 1 9 30
M  V30 30 1 30 5
M  V30 31 1 29 14
M  V30 32 2 27 16
M  V30 33 1 26 20
M  V30 34 1 1 31
M  V30 35 1 1 32
M  V30 36 1 1 33
M  V30 37 1 5 34
M  V30 38 1 6 35
M  V30 39 1 6 36
M  V30 40 1 7 37
M  V30 41 1 7 38
M  V30 42 1 8 39
M  V30 43 1 8 40
M  V30 44 1 9 41
M  V30 45 1 10 42
M  V30 46 1 13 43
M  V30 47 1 15 44
M  V30 48 1 17 45
M  V30 49 1 21 46
M  V30 50 1 22 47
M  V30 51 1 25 48
M  V30 52 1 25 49
M  V30 53 1 25 50
M  V30 54 1 26 51
M  V30 55 1 28 52
M  V30 56 1 30 53
M  V30 57 1 30 54
M  V30 END BOND
M  V30 END CTAB
M  END
>  <Dataset>  (132) 
ChEMBL_Kinases

>  <Ligand_Instance>  (132) 
nan

>  <PDB_ID>  (132) 
nan

>  <Standardized_SMILES>  (132) 
CC(=O)OC1CCCC(NC(=O)Nc2cc3[nH]nc(-c4ccnc(C)c4)c3cn2)C1

>  <Name>  (132) 
nan

>  <Pocket>  (132) 
nan

>  <ATP_Site>  (132) 
nan

>  <Peripheral>  (132) 
nan

>  <Num_H_Atoms_ProtBoundConf>  (132) 
nan

>  <Num_Resolved_Atoms>  (132) 
nan

>  <Num_Not_Resolved_Atoms>  (132) 
nan

$$$$
CHEMBL3658746
     RDKit          3D

  0  0  0  0  0  0  0  0  0  0999 V3000
M  V30 BEGIN CTAB
M  V30 COUNTS 54 58 0 0 0
M  V30 BEGIN ATOM
M  V30 1 C 3.947216 -4.801676 -4.387218 0
M  V30 2 C 4.987205 -4.272050 -3.467715 0
M  V30 3 C 4.606272 -3.577048 -2.330791 0
M  V30 4 C 5.513220 -3.055679 -1.430292 0
M  V30 5 C 5.124157 -2.322480 -0.230338 0
M  V30 6 N 5.636924 -2.485229 1.013874 0
M  V30 7 N 5.060859 -1.660349 1.873782 0
M  V30 8 C 4.140152 -0.914079 1.236353 0
M  V30 9 C 3.261531 0.088932 1.650839 0
M  V30 10 C 2.429925 0.657294 0.703443 0
M  V30 11 N 1.517564 1.694472 1.118497 0
M  V30 12 C 0.212864 1.297185 1.559597 0
M  V30 13 O -0.073773 0.071987 1.564268 0
M  V30 14 N -0.643776 2.360844 1.956578 0
M  V30 15 C -1.979164 2.038405 2.414666 0
M  V30 16 C -2.821144 1.328205 1.398695 0
M  V30 17 C -4.144578 1.082289 2.041626 0
M  V30 18 N -4.712959 1.338745 3.249518 0
M  V30 19 C -5.962231 0.875510 3.261642 0
M  V30 20 C -6.899321 0.921497 4.283321 0
M  V30 21 C -8.128297 0.354048 4.007690 0
M  V30 22 C -8.419115 -0.226093 2.795032 0
M  V30 23 C -7.436555 -0.234259 1.826857 0
M  V30 24 C -6.179925 0.308750 2.012936 0
M  V30 25 N -5.066658 0.441019 1.280173 0
M  V30 26 C -5.039920 -0.075860 -0.075817 0
M  V30 27 N 2.471617 0.245606 -0.596532 0
M  V30 28 C 3.328463 -0.728281 -0.985750 0
M  V30 29 C 4.174300 -1.324401 -0.085554 0
M  V30 30 C 6.858627 -3.263774 -1.721552 0
M  V30 31 C 7.231511 -3.961537 -2.863375 0
M  V30 32 N 6.293741 -4.441517 -3.696490 0
M  V30 33 H 3.182210 -4.036808 -4.638945 0
M  V30 34 H 3.484853 -5.739338 -4.002727 0
M  V30 35 H 4.423682 -5.077218 -5.360764 0
M  V30 36 H 3.545911 -3.444288 -2.153048 0
M  V30 37 H 5.266581 -1.575621 2.900503 0
M  V30 38 H 3.231717 0.411856 2.680747 0
M  V30 39 H 1.831192 2.704697 1.086609 0
M  V30 40 H -0.334125 3.355756 1.925041 0
M  V30 41 H -1.854598 1.309194 3.267133 0
M  V30 42 H -2.503477 2.916250 2.828876 0
M  V30 43 H -2.346201 0.367804 1.110862 0
M  V30 44 H -2.938425 1.896217 0.452615 0
M  V30 45 H -6.664639 1.379053 5.234617 0
M  V30 46 H -8.918613 0.352569 4.765717 0
M  V30 47 H -9.374766 -0.679665 2.548971 0
M  V30 48 H -7.654952 -0.693901 0.854470 0
M  V30 49 H -3.979908 -0.224161 -0.430677 0
M  V30 50 H -5.551490 0.609394 -0.774482 0
M  V30 51 H -5.502306 -1.084442 -0.102808 0
M  V30 52 H 3.337614 -1.033914 -2.028048 0
M  V30 53 H 7.640025 -2.887451 -1.066516 0
M  V30 54 H 8.281943 -4.109910 -3.067411 0
M  V30 END ATOM
M  V30 BEGIN BOND
M  V30 1 1 1 2
M  V30 2 2 2 3
M  V30 3 1 3 4
M  V30 4 1 4 5
M  V30 5 2 5 6
M  V30 6 1 6 7
M  V30 7 1 7 8
M  V30 8 2 8 9
M  V30 9 1 9 10
M  V30 10 1 10 11
M  V30 11 1 11 12
M  V30 12 2 12 13
M  V30 13 1 12 14
M  V30 14 1 14 15
M  V30 15 1 15 16
M  V30 16 1 16 17
M  V30 17 2 17 18
M  V30 18 1 18 19
M  V30 19 2 19 20
M  V30 20 1 20 21
M  V30 21 2 21 22
M  V30 22 1 22 23
M  V30 23 2 23 24
M  V30 24 1 24 25
M  V30 25 1 25 26
M  V30 26 2 10 27
M  V30 27 1 27 28
M  V30 28 2 28 29
M  V30 29 2 4 30
M  V30 30 1 30 31
M  V30 31 2 31 32
M  V30 32 1 32 2
M  V30 33 1 29 5
M  V30 34 1 29 8
M  V30 35 1 25 17
M  V30 36 1 24 19
M  V30 37 1 1 33
M  V30 38 1 1 34
M  V30 39 1 1 35
M  V30 40 1 3 36
M  V30 41 1 7 37
M  V30 42 1 9 38
M  V30 43 1 11 39
M  V30 44 1 14 40
M  V30 45 1 15 41
M  V30 46 1 15 42
M  V30 47 1 16 43
M  V30 48 1 16 44
M  V30 49 1 20 45
M  V30 50 1 21 46
M  V30 51 1 22 47
M  V30 52 1 23 48
M  V30 53 1 26 49
M  V30 54 1 26 50
M  V30 55 1 26 51
M  V30 56 1 28 52
M  V30 57 1 30 53
M  V30 58 1 31 54
M  V30 END BOND
M  V30 END CTAB
M  END
>  <Dataset>  (133) 
ChEMBL_Kinases

>  <Ligand_Instance>  (133) 
nan

>  <PDB_ID>  (133) 
nan

>  <Standardized_SMILES>  (133) 
Cc1cc(-c2n[nH]c3cc(NC(=O)NCCc4nc5ccccc5n4C)ncc23)ccn1

>  <Name>  (133) 
nan

>  <Pocket>  (133) 
nan

>  <ATP_Site>  (133) 
nan

>  <Peripheral>  (133) 
nan

>  <Num_H_Atoms_ProtBoundConf>  (133) 
nan

>  <Num_Resolved_Atoms>  (133) 
nan

>  <Num_Not_Resolved_Atoms>  (133) 
nan

$$$$
CHEMBL3658747
     RDKit          3D

  0  0  0  0  0  0  0  0  0  0999 V3000
M  V30 BEGIN CTAB
M  V30 COUNTS 49 52 0 0 0
M  V30 BEGIN ATOM
M  V30 1 C -1.264238 -7.250122 -0.813648 0
M  V30 2 C 0.094558 -6.893883 -1.296802 0
M  V30 3 C 0.652348 -5.708467 -0.925494 0
M  V30 4 C 1.900806 -5.257227 -1.301485 0
M  V30 5 C 2.474120 -3.980507 -0.887903 0
M  V30 6 N 3.745181 -3.772068 -0.441930 0
M  V30 7 N 3.875705 -2.466834 -0.165574 0
M  V30 8 C 2.728613 -1.808056 -0.415962 0
M  V30 9 C 2.390470 -0.474759 -0.285216 0
M  V30 10 C 1.105160 -0.097760 -0.630644 0
M  V30 11 N 0.612382 1.246391 -0.547676 0
M  V30 12 C 0.012205 1.580437 0.720141 0
M  V30 13 O -0.105098 0.814615 1.711998 0
M  V30 14 N -0.503222 2.887623 0.895477 0
M  V30 15 C -1.120966 3.314252 2.126346 0 CFG=1
M  V30 16 C -0.372139 4.420994 2.829487 0
M  V30 17 C -0.893573 4.463647 4.243964 0
M  V30 18 C -2.104557 3.622983 4.480336 0
M  V30 19 C -3.139909 3.677244 3.400136 0
M  V30 20 F -3.865331 2.485209 3.493783 0
M  V30 21 F -4.053232 4.704364 3.608339 0
M  V30 22 C -2.558661 3.714883 1.997855 0 CFG=2
M  V30 23 O -3.194854 2.861279 1.126186 0
M  V30 24 N 0.223422 -1.012675 -1.078355 0
M  V30 25 C 0.562847 -2.328549 -1.205561 0
M  V30 26 C 1.833866 -2.756960 -0.873959 0
M  V30 27 C 2.601224 -6.136934 -2.133429 0
M  V30 28 C 2.059389 -7.350207 -2.527976 0
M  V30 29 N 0.832957 -7.685182 -2.099248 0
M  V30 30 H -1.382849 -7.138811 0.287526 0
M  V30 31 H -2.063421 -6.634976 -1.290378 0
M  V30 32 H -1.499044 -8.308260 -1.050510 0
M  V30 33 H 0.078323 -5.056984 -0.281751 0
M  V30 34 H 4.755177 -2.017289 0.197835 0
M  V30 35 H 3.064150 0.275611 0.066072 0
M  V30 36 H 0.689653 1.925621 -1.357494 0
M  V30 37 H -0.454842 3.612290 0.120340 0
M  V30 38 H -1.094316 2.439817 2.839754 0
M  V30 39 H -0.615425 5.394559 2.322533 0
M  V30 40 H 0.713856 4.207361 2.771027 0
M  V30 41 H -0.082124 4.050904 4.906721 0
M  V30 42 H -1.074941 5.481587 4.610699 0
M  V30 43 H -2.609587 4.032253 5.404076 0
M  V30 44 H -1.855281 2.561383 4.757251 0
M  V30 45 H -2.572756 4.738531 1.569690 0
M  V30 46 H -3.971959 2.465973 1.596877 0
M  V30 47 H -0.162863 -3.044892 -1.567471 0
M  V30 48 H 3.592822 -5.868340 -2.481300 0
M  V30 49 H 2.608852 -8.037519 -3.179079 0
M  V30 END ATOM
M  V30 BEGIN BOND
M  V30 1 1 1 2
M  V30 2 2 2 3
M  V30 3 1 3 4
M  V30 4 1 4 5
M  V30 5 2 5 6
M  V30 6 1 6 7
M  V30 7 1 7 8
M  V30 8 2 8 9
M  V30 9 1 9 10
M  V30 10 1 10 11
M  V30 11 1 11 12
M  V30 12 2 12 13
M  V30 13 1 12 14
M  V30 14 1 14 15
M  V30 15 1 15 16
M  V30 16 1 16 17
M  V30 17 1 17 18
M  V30 18 1 18 19
M  V30 19 1 19 20
M  V30 20 1 19 21
M  V30 21 1 19 22
M  V30 22 1 22 23
M  V30 23 2 10 24
M  V30 24 1 24 25
M  V30 25 2 25 26
M  V30 26 2 4 27
M  V30 27 1 27 28
M  V30 28 2 28 29
M  V30 29 1 29 2
M  V30 30 1 26 5
M  V30 31 1 26 8
M  V30 32 1 22 15
M  V30 33 1 1 30
M  V30 34 1 1 31
M  V30 35 1 1 32
M  V30 36 1 3 33
M  V30 37 1 7 34
M  V30 38 1 9 35
M  V30 39 1 11 36
M  V30 40 1 14 37
M  V30 41 1 15 38 CFG=1
M  V30 42 1 16 39
M  V30 43 1 16 40
M  V30 44 1 17 41
M  V30 45 1 17 42
M  V30 46 1 18 43
M  V30 47 1 18 44
M  V30 48 1 22 45 CFG=3
M  V30 49 1 23 46
M  V30 50 1 25 47
M  V30 51 1 27 48
M  V30 52 1 28 49
M  V30 END BOND
M  V30 END CTAB
M  END
>  <Dataset>  (134) 
ChEMBL_Kinases

>  <Ligand_Instance>  (134) 
nan

>  <PDB_ID>  (134) 
nan

>  <Standardized_SMILES>  (134) 
Cc1cc(-c2n[nH]c3cc(NC(=O)N[C@H]4CCCC(F)(F)[C@@H]4O)ncc23)ccn1

>  <Name>  (134) 
nan

>  <Pocket>  (134) 
nan

>  <ATP_Site>  (134) 
nan

>  <Peripheral>  (134) 
nan

>  <Num_H_Atoms_ProtBoundConf>  (134) 
nan

>  <Num_Resolved_Atoms>  (134) 
nan

>  <Num_Not_Resolved_Atoms>  (134) 
nan

$$$$
CHEMBL3658748
     RDKit          3D

  0  0  0  0  0  0  0  0  0  0999 V3000
M  V30 BEGIN CTAB
M  V30 COUNTS 60 64 0 0 0
M  V30 BEGIN ATOM
M  V30 1 C 5.668609 0.944942 7.858168 0
M  V30 2 C 5.204417 -0.391307 7.356133 0
M  V30 3 C 4.861949 -0.547884 6.016270 0
M  V30 4 C 4.438373 -1.741195 5.527937 0
M  V30 5 C 4.059426 -1.997513 4.141693 0
M  V30 6 N 4.474162 -3.089653 3.475458 0
M  V30 7 N 4.000535 -3.095898 2.242158 0
M  V30 8 C 3.246010 -2.001781 2.033986 0
M  V30 9 C 2.515305 -1.484021 0.970450 0
M  V30 10 C 1.865367 -0.284923 1.199535 0
M  V30 11 N 1.123970 0.206608 0.066523 0
M  V30 12 C -0.240412 -0.195066 -0.065849 0
M  V30 13 O -0.774236 -0.958412 0.789419 0
M  V30 14 N -1.029302 0.257235 -1.167000 0
M  V30 15 C -2.388854 -0.231449 -1.167721 0
M  V30 16 C -3.214210 0.250399 -2.334611 0
M  V30 17 C -4.570040 -0.379930 -2.114729 0
M  V30 18 C -4.845196 -1.692686 -2.437184 0
M  V30 19 C -6.057984 -2.287822 -2.250905 0
M  V30 20 C -7.082002 -1.568268 -1.715156 0
M  V30 21 C -6.824669 -0.257804 -1.387955 0
M  V30 22 N -5.610278 0.279080 -1.592779 0
M  V30 23 N -2.796374 -0.110601 -3.597068 0
M  V30 24 C -3.558772 0.334716 -4.682680 0
M  V30 25 C -2.809377 0.343232 -6.002403 0
M  V30 26 O -1.441258 0.592482 -5.789985 0
M  V30 27 C -0.911917 -0.487154 -5.118838 0
M  V30 28 C -1.715848 -0.913279 -3.903914 0
M  V30 29 N 1.920402 0.368197 2.380718 0
M  V30 30 C 2.616924 -0.101169 3.432857 0
M  V30 31 C 3.282607 -1.307705 3.232718 0
M  V30 32 C 4.361620 -2.806336 6.432132 0
M  V30 33 C 4.709122 -2.619025 7.758612 0
M  V30 34 N 5.127245 -1.425162 8.221982 0
M  V30 35 H 6.419071 0.758707 8.654929 0
M  V30 36 H 6.112488 1.529282 7.006548 0
M  V30 37 H 4.802729 1.516696 8.218874 0
M  V30 38 H 4.930889 0.285815 5.348767 0
M  V30 39 H 4.149778 -3.815983 1.482286 0
M  V30 40 H 2.510413 -2.046212 0.063795 0
M  V30 41 H 1.587773 0.835359 -0.624890 0
M  V30 42 H -0.542828 0.882886 -1.841309 0
M  V30 43 H -2.411082 -1.331224 -1.075419 0
M  V30 44 H -2.889321 0.160709 -0.246819 0
M  V30 45 H -3.392798 1.334212 -2.153616 0
M  V30 46 H -4.069648 -2.312838 -2.865308 0
M  V30 47 H -6.225477 -3.338875 -2.525236 0
M  V30 48 H -8.071164 -1.987119 -1.542466 0
M  V30 49 H -7.594960 0.381704 -0.954518 0
M  V30 50 H -3.997466 1.332841 -4.477805 0
M  V30 51 H -4.436401 -0.350997 -4.828783 0
M  V30 52 H -2.962483 -0.586167 -6.578402 0
M  V30 53 H -3.166012 1.192805 -6.620075 0
M  V30 54 H -0.764116 -1.302936 -5.855394 0
M  V30 55 H 0.139667 -0.231853 -4.792067 0
M  V30 56 H -2.109104 -1.939073 -4.180950 0
M  V30 57 H -1.005993 -1.141416 -3.075257 0
M  V30 58 H 2.654304 0.430222 4.374466 0
M  V30 59 H 4.024997 -3.772217 6.065192 0
M  V30 60 H 4.658107 -3.430135 8.480353 0
M  V30 END ATOM
M  V30 BEGIN BOND
M  V30 1 1 1 2
M  V30 2 2 2 3
M  V30 3 1 3 4
M  V30 4 1 4 5
M  V30 5 2 5 6
M  V30 6 1 6 7
M  V30 7 1 7 8
M  V30 8 2 8 9
M  V30 9 1 9 10
M  V30 10 1 10 11
M  V30 11 1 11 12
M  V30 12 2 12 13
M  V30 13 1 12 14
M  V30 14 1 14 15
M  V30 15 1 15 16
M  V30 16 1 16 17
M  V30 17 2 17 18
M  V30 18 1 18 19
M  V30 19 2 19 20
M  V30 20 1 20 21
M  V30 21 2 21 22
M  V30 22 1 16 23
M  V30 23 1 23 24
M  V30 24 1 24 25
M  V30 25 1 25 26
M  V30 26 1 26 27
M  V30 27 1 27 28
M  V30 28 2 10 29
M  V30 29 1 29 30
M  V30 30 2 30 31
M  V30 31 2 4 32
M  V30 32 1 32 33
M  V30 33 2 33 34
M  V30 34 1 34 2
M  V30 35 1 31 5
M  V30 36 1 31 8
M  V30 37 1 22 17
M  V30 38 1 28 23
M  V30 39 1 1 35
M  V30 40 1 1 36
M  V30 41 1 1 37
M  V30 42 1 3 38
M  V30 43 1 7 39
M  V30 44 1 9 40
M  V30 45 1 11 41
M  V30 46 1 14 42
M  V30 47 1 15 43
M  V30 48 1 15 44
M  V30 49 1 16 45
M  V30 50 1 18 46
M  V30 51 1 19 47
M  V30 52 1 20 48
M  V30 53 1 21 49
M  V30 54 1 24 50
M  V30 55 1 24 51
M  V30 56 1 25 52
M  V30 57 1 25 53
M  V30 58 1 27 54
M  V30 59 1 27 55
M  V30 60 1 28 56
M  V30 61 1 28 57
M  V30 62 1 30 58
M  V30 63 1 32 59
M  V30 64 1 33 60
M  V30 END BOND
M  V30 END CTAB
M  END
>  <Dataset>  (135) 
ChEMBL_Kinases

>  <Ligand_Instance>  (135) 
nan

>  <PDB_ID>  (135) 
nan

>  <Standardized_SMILES>  (135) 
Cc1cc(-c2n[nH]c3cc(NC(=O)NCC(c4ccccn4)N4CCOCC4)ncc23)ccn1

>  <Name>  (135) 
nan

>  <Pocket>  (135) 
nan

>  <ATP_Site>  (135) 
nan

>  <Peripheral>  (135) 
nan

>  <Num_H_Atoms_ProtBoundConf>  (135) 
nan

>  <Num_Resolved_Atoms>  (135) 
nan

>  <Num_Not_Resolved_Atoms>  (135) 
nan

$$$$
CHEMBL3658749
     RDKit          3D

  0  0  0  0  0  0  0  0  0  0999 V3000
M  V30 BEGIN CTAB
M  V30 COUNTS 63 67 0 0 0
M  V30 BEGIN ATOM
M  V30 1 C 5.736440 0.045589 7.327244 0
M  V30 2 C 4.850392 0.918682 6.516596 0
M  V30 3 C 4.762080 0.880178 5.143306 0
M  V30 4 C 3.916101 1.719861 4.432468 0
M  V30 5 C 3.919967 1.573525 2.969237 0
M  V30 6 N 5.015827 1.457844 2.180408 0
M  V30 7 N 4.661199 1.343655 0.918932 0
M  V30 8 C 3.304410 1.377784 0.804283 0
M  V30 9 C 2.429171 1.299844 -0.269379 0
M  V30 10 C 1.065404 1.376319 0.037467 0
M  V30 11 N 0.212619 1.290309 -1.107603 0
M  V30 12 C -0.262479 0.028959 -1.568978 0
M  V30 13 O 0.104183 -0.961575 -0.927055 0
M  V30 14 N -1.098682 -0.104475 -2.684743 0
M  V30 15 C -1.630274 -1.343314 -3.224514 0
M  V30 16 C -2.455065 -1.992600 -2.158128 0
M  V30 17 C -3.554635 -1.041954 -1.798870 0
M  V30 18 C -4.509709 -0.570088 -2.696651 0
M  V30 19 C -5.493348 0.302651 -2.297417 0
M  V30 20 C -5.576001 0.745250 -0.999931 0
M  V30 21 C -4.642808 0.301714 -0.062795 0
M  V30 22 C -3.680023 -0.566792 -0.502394 0
M  V30 23 C -3.008558 -3.333247 -2.577992 0
M  V30 24 O -3.813049 -3.154884 -3.698285 0
M  V30 25 C -1.880388 -4.242923 -2.942205 0
M  V30 26 C -0.996779 -4.587507 -1.769839 0
M  V30 27 O -1.655007 -4.428195 -0.552694 0
M  V30 28 C -2.935433 -4.970501 -0.705259 0
M  V30 29 C -3.774920 -3.902604 -1.401914 0
M  V30 30 N 0.633595 1.517771 1.307277 0
M  V30 31 C 1.455352 1.594967 2.355452 0
M  V30 32 C 2.822697 1.523737 2.102345 0
M  V30 33 C 3.149664 2.613219 5.154103 0
M  V30 34 C 3.257247 2.632230 6.539716 0
M  V30 35 N 4.091527 1.800486 7.202951 0
M  V30 36 H 6.485308 -0.498968 6.714084 0
M  V30 37 H 6.234578 0.622065 8.159220 0
M  V30 38 H 5.140272 -0.733773 7.843224 0
M  V30 39 H 5.427325 0.124019 4.715272 0
M  V30 40 H 5.326308 1.241482 0.120316 0
M  V30 41 H 2.817206 1.186611 -1.271864 0
M  V30 42 H -0.053343 2.177663 -1.597753 0
M  V30 43 H -1.346064 0.810372 -3.155029 0
M  V30 44 H -0.755775 -1.955560 -3.529516 0
M  V30 45 H -2.270553 -1.135758 -4.085017 0
M  V30 46 H -1.853929 -2.181317 -1.249587 0
M  V30 47 H -4.451938 -0.907978 -3.701858 0
M  V30 48 H -6.214036 0.633525 -3.061002 0
M  V30 49 H -6.374603 1.434348 -0.742410 0
M  V30 50 H -4.695579 0.641944 0.962781 0
M  V30 51 H -2.979141 -0.882610 0.260555 0
M  V30 52 H -3.514662 -3.681619 -4.485650 0
M  V30 53 H -2.341671 -5.220801 -3.264461 0
M  V30 54 H -1.308299 -3.899031 -3.801898 0
M  V30 55 H -0.070142 -3.984800 -1.718262 0
M  V30 56 H -0.658275 -5.641930 -1.820771 0
M  V30 57 H -3.340411 -5.145416 0.309306 0
M  V30 58 H -2.830303 -5.875978 -1.315451 0
M  V30 59 H -4.709804 -4.401439 -1.720366 0
M  V30 60 H -3.951405 -3.117139 -0.623334 0
M  V30 61 H 1.075569 1.709353 3.371636 0
M  V30 62 H 2.499476 3.255866 4.580341 0
M  V30 63 H 2.637710 3.350386 7.082648 0
M  V30 END ATOM
M  V30 BEGIN BOND
M  V30 1 1 1 2
M  V30 2 2 2 3
M  V30 3 1 3 4
M  V30 4 1 4 5
M  V30 5 2 5 6
M  V30 6 1 6 7
M  V30 7 1 7 8
M  V30 8 2 8 9
M  V30 9 1 9 10
M  V30 10 1 10 11
M  V30 11 1 11 12
M  V30 12 2 12 13
M  V30 13 1 12 14
M  V30 14 1 14 15
M  V30 15 1 15 16
M  V30 16 1 16 17
M  V30 17 2 17 18
M  V30 18 1 18 19
M  V30 19 2 19 20
M  V30 20 1 20 21
M  V30 21 2 21 22
M  V30 22 1 16 23
M  V30 23 1 23 24
M  V30 24 1 23 25
M  V30 25 1 25 26
M  V30 26 1 26 27
M  V30 27 1 27 28
M  V30 28 1 28 29
M  V30 29 2 10 30
M  V30 30 1 30 31
M  V30 31 2 31 32
M  V30 32 2 4 33
M  V30 33 1 33 34
M  V30 34 2 34 35
M  V30 35 1 35 2
M  V30 36 1 32 5
M  V30 37 1 32 8
M  V30 38 1 22 17
M  V30 39 1 29 23
M  V30 40 1 1 36
M  V30 41 1 1 37
M  V30 42 1 1 38
M  V30 43 1 3 39
M  V30 44 1 7 40
M  V30 45 1 9 41
M  V30 46 1 11 42
M  V30 47 1 14 43
M  V30 48 1 15 44
M  V30 49 1 15 45
M  V30 50 1 16 46
M  V30 51 1 18 47
M  V30 52 1 19 48
M  V30 53 1 20 49
M  V30 54 1 21 50
M  V30 55 1 22 51
M  V30 56 1 24 52
M  V30 57 1 25 53
M  V30 58 1 25 54
M  V30 59 1 26 55
M  V30 60 1 26 56
M  V30 61 1 28 57
M  V30 62 1 28 58
M  V30 63 1 29 59
M  V30 64 1 29 60
M  V30 65 1 31 61
M  V30 66 1 33 62
M  V30 67 1 34 63
M  V30 END BOND
M  V30 END CTAB
M  END
>  <Dataset>  (136) 
ChEMBL_Kinases

>  <Ligand_Instance>  (136) 
nan

>  <PDB_ID>  (136) 
nan

>  <Standardized_SMILES>  (136) 
Cc1cc(-c2n[nH]c3cc(NC(=O)NCC(c4ccccc4)C4(O)CCOCC4)ncc23)ccn1

>  <Name>  (136) 
nan

>  <Pocket>  (136) 
nan

>  <ATP_Site>  (136) 
nan

>  <Peripheral>  (136) 
nan

>  <Num_H_Atoms_ProtBoundConf>  (136) 
nan

>  <Num_Resolved_Atoms>  (136) 
nan

>  <Num_Not_Resolved_Atoms>  (136) 
nan

$$$$
CHEMBL3658741
     RDKit          3D

  0  0  0  0  0  0  0  0  0  0999 V3000
M  V30 BEGIN CTAB
M  V30 COUNTS 51 55 0 0 0
M  V30 BEGIN ATOM
M  V30 1 C 2.201827 -8.627950 3.759166 0
M  V30 2 C 2.669293 -7.770849 2.643420 0
M  V30 3 C 2.770036 -6.397916 2.696880 0
M  V30 4 C 3.211181 -5.636340 1.632257 0
M  V30 5 C 3.291299 -4.176582 1.765762 0
M  V30 6 N 3.814906 -3.568346 2.850222 0
M  V30 7 N 3.762549 -2.234449 2.708690 0
M  V30 8 C 3.195888 -1.996139 1.513788 0
M  V30 9 C 2.904027 -0.797719 0.872825 0
M  V30 10 C 2.309008 -0.890523 -0.373740 0
M  V30 11 N 1.946614 0.266025 -1.161735 0
M  V30 12 C 0.635959 0.820385 -0.987020 0
M  V30 13 O -0.135435 0.274443 -0.157124 0
M  V30 14 N 0.228628 1.941164 -1.723379 0
M  V30 15 C -1.069430 2.584096 -1.626648 0
M  V30 16 C -1.235191 3.064317 -0.177757 0
M  V30 17 C -2.582557 3.719302 -0.126932 0
M  V30 18 N -3.557078 3.924367 -1.060001 0
M  V30 19 C -4.570777 4.572196 -0.462010 0
M  V30 20 C -5.758346 4.975934 -1.043667 0
M  V30 21 C -6.679053 5.633608 -0.250415 0
M  V30 22 C -6.365611 5.856951 1.094041 0
M  V30 23 C -5.161017 5.438576 1.652093 0
M  V30 24 C -4.234586 4.777746 0.857275 0
M  V30 25 N -2.995811 4.239545 1.041503 0
M  V30 26 N 2.022354 -2.075556 -0.947223 0
M  V30 27 C 2.295872 -3.267101 -0.344919 0
M  V30 28 C 2.885991 -3.189107 0.891714 0
M  V30 29 C 3.571357 -6.227699 0.462959 0
M  V30 30 C 3.459746 -7.621997 0.435086 0
M  V30 31 N 3.026926 -8.348896 1.484638 0
M  V30 32 H 1.466027 -9.388003 3.408604 0
M  V30 33 H 3.058461 -9.125951 4.289230 0
M  V30 34 H 1.676027 -7.976858 4.482300 0
M  V30 35 H 2.480109 -5.928410 3.636501 0
M  V30 36 H 4.084408 -1.493064 3.366584 0
M  V30 37 H 3.109126 0.179573 1.280079 0
M  V30 38 H 2.639146 0.679542 -1.842928 0
M  V30 39 H 0.942468 2.338213 -2.402788 0
M  V30 40 H -1.092691 3.506193 -2.231742 0
M  V30 41 H -1.883283 1.879481 -1.889205 0
M  V30 42 H -0.460177 3.790976 0.088926 0
M  V30 43 H -1.181796 2.228905 0.548863 0
M  V30 44 H -5.974313 4.788076 -2.092656 0
M  V30 45 H -7.638019 5.985147 -0.627967 0
M  V30 46 H -7.049811 6.366712 1.759460 0
M  V30 47 H -4.912358 5.607056 2.687251 0
M  V30 48 H -2.585259 4.309150 1.997701 0
M  V30 49 H 2.068421 -4.225243 -0.799531 0
M  V30 50 H 3.921967 -5.698854 -0.402069 0
M  V30 51 H 3.720681 -8.210833 -0.451705 0
M  V30 END ATOM
M  V30 BEGIN BOND
M  V30 1 1 1 2
M  V30 2 2 2 3
M  V30 3 1 3 4
M  V30 4 1 4 5
M  V30 5 2 5 6
M  V30 6 1 6 7
M  V30 7 1 7 8
M  V30 8 2 8 9
M  V30 9 1 9 10
M  V30 10 1 10 11
M  V30 11 1 11 12
M  V30 12 2 12 13
M  V30 13 1 12 14
M  V30 14 1 14 15
M  V30 15 1 15 16
M  V30 16 1 16 17
M  V30 17 2 17 18
M  V30 18 1 18 19
M  V30 19 2 19 20
M  V30 20 1 20 21
M  V30 21 2 21 22
M  V30 22 1 22 23
M  V30 23 2 23 24
M  V30 24 1 24 25
M  V30 25 2 10 26
M  V30 26 1 26 27
M  V30 27 2 27 28
M  V30 28 2 4 29
M  V30 29 1 29 30
M  V30 30 2 30 31
M  V30 31 1 31 2
M  V30 32 1 28 5
M  V30 33 1 28 8
M  V30 34 1 25 17
M  V30 35 1 24 19
M  V30 36 1 1 32
M  V30 37 1 1 33
M  V30 38 1 1 34
M  V30 39 1 3 35
M  V30 40 1 7 36
M  V30 41 1 9 37
M  V30 42 1 11 38
M  V30 43 1 14 39
M  V30 44 1 15 40
M  V30 45 1 15 41
M  V30 46 1 16 42
M  V30 47 1 16 43
M  V30 48 1 20 44
M  V30 49 1 21 45
M  V30 50 1 22 46
M  V30 51 1 23 47
M  V30 52 1 25 48
M  V30 53 1 27 49
M  V30 54 1 29 50
M  V30 55 1 30 51
M  V30 END BOND
M  V30 END CTAB
M  END
>  <Dataset>  (137) 
ChEMBL_Kinases

>  <Ligand_Instance>  (137) 
nan

>  <PDB_ID>  (137) 
nan

>  <Standardized_SMILES>  (137) 
Cc1cc(-c2n[nH]c3cc(NC(=O)NCCc4nc5ccccc5[nH]4)ncc23)ccn1

>  <Name>  (137) 
nan

>  <Pocket>  (137) 
nan

>  <ATP_Site>  (137) 
nan

>  <Peripheral>  (137) 
nan

>  <Num_H_Atoms_ProtBoundConf>  (137) 
nan

>  <Num_Resolved_Atoms>  (137) 
nan

>  <Num_Not_Resolved_Atoms>  (137) 
nan

$$$$
CHEMBL3658798
     RDKit          3D

  0  0  0  0  0  0  0  0  0  0999 V3000
M  V30 BEGIN CTAB
M  V30 COUNTS 41 44 0 0 0
M  V30 BEGIN ATOM
M  V30 1 C 2.916316 -5.412039 3.558100 0
M  V30 2 C 2.929099 -5.294516 2.073790 0
M  V30 3 C 2.193762 -4.310589 1.456584 0
M  V30 4 C 2.159157 -4.143539 0.086766 0
M  V30 5 C 1.391872 -3.112626 -0.604404 0
M  V30 6 N 0.602069 -3.196624 -1.703459 0
M  V30 7 N 0.083427 -2.026796 -2.010542 0
M  V30 8 C 0.502985 -1.098106 -1.127459 0
M  V30 9 C 0.233344 0.252717 -1.035736 0
M  V30 10 C 0.814654 0.966215 -0.006221 0
M  V30 11 N 0.648387 2.367747 0.242867 0
M  V30 12 C -0.405155 2.807471 1.081809 0
M  V30 13 O -1.156922 1.930961 1.576161 0
M  V30 14 N -0.641971 4.153703 1.379690 0
M  V30 15 C -1.679546 4.724952 2.216878 0
M  V30 16 C -2.990200 4.345018 1.629682 0
M  V30 17 C -3.879839 3.317517 1.774668 0
M  V30 18 C -4.942438 3.506671 0.946792 0
M  V30 19 N -4.662849 4.666561 0.309826 0
M  V30 20 O -3.523049 5.150900 0.712173 0
M  V30 21 N 1.619575 0.308189 0.862163 0
M  V30 22 C 1.870627 -1.010473 0.756126 0
M  V30 23 C 1.321932 -1.778697 -0.247698 0
M  V30 24 C 2.915652 -5.029242 -0.683308 0
M  V30 25 C 3.657388 -6.021657 -0.061548 0
M  V30 26 N 3.643819 -6.125204 1.278445 0
M  V30 27 H 3.138586 -6.470674 3.806864 0
M  V30 28 H 3.739521 -4.811309 4.036786 0
M  V30 29 H 1.947538 -5.133921 3.998295 0
M  V30 30 H 1.601955 -3.616781 2.048813 0
M  V30 31 H -0.555823 -1.869895 -2.823977 0
M  V30 32 H -0.393565 0.797308 -1.701211 0
M  V30 33 H 1.303455 3.055675 -0.194544 0
M  V30 34 H 0.046318 4.818606 0.915987 0
M  V30 35 H -1.616836 4.195931 3.214934 0
M  V30 36 H -1.551821 5.798935 2.320994 0
M  V30 37 H -3.675462 2.531215 2.465949 0
M  V30 38 H -5.759500 2.819001 0.898929 0
M  V30 39 H 2.522431 -1.473570 1.482926 0
M  V30 40 H 2.923685 -4.942517 -1.758865 0
M  V30 41 H 4.260259 -6.732568 -0.618942 0
M  V30 END ATOM
M  V30 BEGIN BOND
M  V30 1 1 1 2
M  V30 2 2 2 3
M  V30 3 1 3 4
M  V30 4 1 4 5
M  V30 5 2 5 6
M  V30 6 1 6 7
M  V30 7 1 7 8
M  V30 8 2 8 9
M  V30 9 1 9 10
M  V30 10 1 10 11
M  V30 11 1 11 12
M  V30 12 2 12 13
M  V30 13 1 12 14
M  V30 14 1 14 15
M  V30 15 1 15 16
M  V30 16 2 16 17
M  V30 17 1 17 18
M  V30 18 2 18 19
M  V30 19 1 19 20
M  V30 20 2 10 21
M  V30 21 1 21 22
M  V30 22 2 22 23
M  V30 23 2 4 24
M  V30 24 1 24 25
M  V30 25 2 25 26
M  V30 26 1 26 2
M  V30 27 1 23 5
M  V30 28 1 23 8
M  V30 29 1 20 16
M  V30 30 1 1 27
M  V30 31 1 1 28
M  V30 32 1 1 29
M  V30 33 1 3 30
M  V30 34 1 7 31
M  V30 35 1 9 32
M  V30 36 1 11 33
M  V30 37 1 14 34
M  V30 38 1 15 35
M  V30 39 1 15 36
M  V30 40 1 17 37
M  V30 41 1 18 38
M  V30 42 1 22 39
M  V30 43 1 24 40
M  V30 44 1 25 41
M  V30 END BOND
M  V30 END CTAB
M  END
>  <Dataset>  (138) 
ChEMBL_Kinases

>  <Ligand_Instance>  (138) 
nan

>  <PDB_ID>  (138) 
nan

>  <Standardized_SMILES>  (138) 
Cc1cc(-c2n[nH]c3cc(NC(=O)NCc4ccno4)ncc23)ccn1

>  <Name>  (138) 
nan

>  <Pocket>  (138) 
nan

>  <ATP_Site>  (138) 
nan

>  <Peripheral>  (138) 
nan

>  <Num_H_Atoms_ProtBoundConf>  (138) 
nan

>  <Num_Resolved_Atoms>  (138) 
nan

>  <Num_Not_Resolved_Atoms>  (138) 
nan

$$$$
CHEMBL3658797
     RDKit          3D

  0  0  0  0  0  0  0  0  0  0999 V3000
M  V30 BEGIN CTAB
M  V30 COUNTS 44 47 0 0 0
M  V30 BEGIN ATOM
M  V30 1 C -0.403484 -7.424948 1.306610 0
M  V30 2 C -0.217281 -6.321750 0.350686 0
M  V30 3 C 0.727846 -5.312052 0.458006 0
M  V30 4 C 0.813078 -4.311594 -0.514880 0
M  V30 5 C 1.838305 -3.285449 -0.323738 0
M  V30 6 N 3.116426 -3.477843 0.033646 0
M  V30 7 N 3.774670 -2.318726 0.115897 0
M  V30 8 C 2.862659 -1.379268 -0.204022 0
M  V30 9 C 3.050921 -0.012803 -0.264238 0
M  V30 10 C 1.969209 0.771456 -0.616985 0
M  V30 11 N 1.908900 2.206022 -0.749167 0
M  V30 12 C 1.545255 2.889183 0.465520 0
M  V30 13 O 1.306615 2.280651 1.529406 0
M  V30 14 N 1.457113 4.288514 0.448557 0
M  V30 15 C 1.090830 5.008763 1.663964 0
M  V30 16 C -0.187481 4.642625 2.159836 0
M  V30 17 C -1.428075 5.148907 1.903985 0
M  V30 18 N -2.516909 4.662982 2.476102 0
M  V30 19 C -2.490047 3.738773 3.263726 0
M  V30 20 C -3.515909 3.003257 4.040543 0
M  V30 21 S -0.616537 3.319751 3.354181 0
M  V30 22 N 0.760623 0.214953 -0.895179 0
M  V30 23 C 0.564534 -1.116731 -0.839872 0
M  V30 24 C 1.627125 -1.924732 -0.490316 0
M  V30 25 C -0.063542 -4.355378 -1.578971 0
M  V30 26 C -0.987675 -5.365077 -1.659675 0
M  V30 27 N -1.051776 -6.307951 -0.722213 0
M  V30 28 H 0.047655 -8.358987 0.887745 0
M  V30 29 H -1.506594 -7.607571 1.402299 0
M  V30 30 H -0.000884 -7.246031 2.309452 0
M  V30 31 H 1.368102 -5.366193 1.328225 0
M  V30 32 H 4.774202 -2.184326 0.372335 0
M  V30 33 H 3.940130 0.550230 -0.071989 0
M  V30 34 H 2.094496 2.802375 -1.607651 0
M  V30 35 H 1.640699 4.895916 -0.405076 0
M  V30 36 H 1.878594 4.690996 2.409352 0
M  V30 37 H 1.194761 6.088082 1.579471 0
M  V30 38 H -1.567633 5.986203 1.206935 0
M  V30 39 H -3.947066 3.587832 4.865916 0
M  V30 40 H -3.112815 2.065975 4.479003 0
M  V30 41 H -4.304016 2.665900 3.321845 0
M  V30 42 H -0.389768 -1.577750 -1.057793 0
M  V30 43 H 0.009856 -3.575366 -2.328674 0
M  V30 44 H -1.657225 -5.349641 -2.525215 0
M  V30 END ATOM
M  V30 BEGIN BOND
M  V30 1 1 1 2
M  V30 2 2 2 3
M  V30 3 1 3 4
M  V30 4 1 4 5
M  V30 5 2 5 6
M  V30 6 1 6 7
M  V30 7 1 7 8
M  V30 8 2 8 9
M  V30 9 1 9 10
M  V30 10 1 10 11
M  V30 11 1 11 12
M  V30 12 2 12 13
M  V30 13 1 12 14
M  V30 14 1 14 15
M  V30 15 1 15 16
M  V30 16 2 16 17
M  V30 17 1 17 18
M  V30 18 2 18 19
M  V30 19 1 19 20
M  V30 20 1 19 21
M  V30 21 2 10 22
M  V30 22 1 22 23
M  V30 23 2 23 24
M  V30 24 2 4 25
M  V30 25 1 25 26
M  V30 26 2 26 27
M  V30 27 1 27 2
M  V30 28 1 24 5
M  V30 29 1 24 8
M  V30 30 1 21 16
M  V30 31 1 1 28
M  V30 32 1 1 29
M  V30 33 1 1 30
M  V30 34 1 3 31
M  V30 35 1 7 32
M  V30 36 1 9 33
M  V30 37 1 11 34
M  V30 38 1 14 35
M  V30 39 1 15 36
M  V30 40 1 15 37
M  V30 41 1 17 38
M  V30 42 1 20 39
M  V30 43 1 20 40
M  V30 44 1 20 41
M  V30 45 1 23 42
M  V30 46 1 25 43
M  V30 47 1 26 44
M  V30 END BOND
M  V30 END CTAB
M  END
>  <Dataset>  (139) 
ChEMBL_Kinases

>  <Ligand_Instance>  (139) 
nan

>  <PDB_ID>  (139) 
nan

>  <Standardized_SMILES>  (139) 
Cc1cc(-c2n[nH]c3cc(NC(=O)NCc4cnc(C)s4)ncc23)ccn1

>  <Name>  (139) 
nan

>  <Pocket>  (139) 
nan

>  <ATP_Site>  (139) 
nan

>  <Peripheral>  (139) 
nan

>  <Num_H_Atoms_ProtBoundConf>  (139) 
nan

>  <Num_Resolved_Atoms>  (139) 
nan

>  <Num_Not_Resolved_Atoms>  (139) 
nan

$$$$
CHEMBL3658796
     RDKit          3D

  0  0  0  0  0  0  0  0  0  0999 V3000
M  V30 BEGIN CTAB
M  V30 COUNTS 41 44 0 0 0
M  V30 BEGIN ATOM
M  V30 1 C 2.403384 -5.187302 3.395639 0
M  V30 2 C 1.987916 -5.263747 1.962813 0
M  V30 3 C 2.107364 -4.102682 1.236422 0
M  V30 4 C 1.740077 -4.106251 -0.094222 0
M  V30 5 C 1.831331 -2.916080 -0.952155 0
M  V30 6 N 2.306732 -2.833820 -2.188453 0
M  V30 7 N 2.231288 -1.593692 -2.654481 0
M  V30 8 C 1.682869 -0.780484 -1.708163 0
M  V30 9 C 1.397360 0.570548 -1.705709 0
M  V30 10 C 0.833564 1.055066 -0.547110 0
M  V30 11 N 0.486088 2.427481 -0.400464 0
M  V30 12 C -0.091925 2.995269 0.749986 0
M  V30 13 O -0.277964 2.149277 1.664010 0
M  V30 14 N -0.442714 4.348526 0.915052 0
M  V30 15 C -1.039076 4.765927 2.191095 0
M  V30 16 C -2.305239 4.034382 2.448687 0
M  V30 17 N -2.421082 2.857746 3.104900 0
M  V30 18 C -3.727955 2.513416 3.136615 0
M  V30 19 C -4.401322 3.539684 2.466732 0
M  V30 20 O -3.494472 4.413914 2.082544 0
M  V30 21 N 0.582355 0.247034 0.510185 0
M  V30 22 C 0.870127 -1.071816 0.485055 0
M  V30 23 C 1.436081 -1.633481 -0.638192 0
M  V30 24 C 1.262429 -5.243418 -0.692913 0
M  V30 25 C 1.155024 -6.400887 0.073635 0
M  V30 26 N 1.518069 -6.380398 1.371965 0
M  V30 27 H 1.912758 -5.977907 4.013325 0
M  V30 28 H 3.494826 -5.156064 3.532199 0
M  V30 29 H 2.011121 -4.205732 3.786977 0
M  V30 30 H 2.482234 -3.187946 1.684074 0
M  V30 31 H 2.534527 -1.257331 -3.593099 0
M  V30 32 H 1.597649 1.207991 -2.545128 0
M  V30 33 H 0.653885 3.112403 -1.183564 0
M  V30 34 H -0.241918 4.950862 0.092706 0
M  V30 35 H -1.146776 5.850161 2.253286 0
M  V30 36 H -0.328722 4.480915 3.002790 0
M  V30 37 H -3.964812 1.569411 3.644963 0
M  V30 38 H -5.474615 3.432742 2.392522 0
M  V30 39 H 0.654659 -1.664742 1.339036 0
M  V30 40 H 0.956026 -5.302751 -1.746693 0
M  V30 41 H 0.781684 -7.352278 -0.331783 0
M  V30 END ATOM
M  V30 BEGIN BOND
M  V30 1 1 1 2
M  V30 2 2 2 3
M  V30 3 1 3 4
M  V30 4 1 4 5
M  V30 5 2 5 6
M  V30 6 1 6 7
M  V30 7 1 7 8
M  V30 8 2 8 9
M  V30 9 1 9 10
M  V30 10 1 10 11
M  V30 11 1 11 12
M  V30 12 2 12 13
M  V30 13 1 12 14
M  V30 14 1 14 15
M  V30 15 1 15 16
M  V30 16 2 16 17
M  V30 17 1 17 18
M  V30 18 2 18 19
M  V30 19 1 19 20
M  V30 20 2 10 21
M  V30 21 1 21 22
M  V30 22 2 22 23
M  V30 23 2 4 24
M  V30 24 1 24 25
M  V30 25 2 25 26
M  V30 26 1 26 2
M  V30 27 1 23 5
M  V30 28 1 23 8
M  V30 29 1 20 16
M  V30 30 1 1 27
M  V30 31 1 1 28
M  V30 32 1 1 29
M  V30 33 1 3 30
M  V30 34 1 7 31
M  V30 35 1 9 32
M  V30 36 1 11 33
M  V30 37 1 14 34
M  V30 38 1 15 35
M  V30 39 1 15 36
M  V30 40 1 18 37
M  V30 41 1 19 38
M  V30 42 1 22 39
M  V30 43 1 24 40
M  V30 44 1 25 41
M  V30 END BOND
M  V30 END CTAB
M  END
>  <Dataset>  (140) 
ChEMBL_Kinases

>  <Ligand_Instance>  (140) 
nan

>  <PDB_ID>  (140) 
nan

>  <Standardized_SMILES>  (140) 
Cc1cc(-c2n[nH]c3cc(NC(=O)NCc4ncco4)ncc23)ccn1

>  <Name>  (140) 
nan

>  <Pocket>  (140) 
nan

>  <ATP_Site>  (140) 
nan

>  <Peripheral>  (140) 
nan

>  <Num_H_Atoms_ProtBoundConf>  (140) 
nan

>  <Num_Resolved_Atoms>  (140) 
nan

>  <Num_Not_Resolved_Atoms>  (140) 
nan

$$$$
CHEMBL3658795
     RDKit          3D

  0  0  0  0  0  0  0  0  0  0999 V3000
M  V30 BEGIN CTAB
M  V30 COUNTS 41 44 0 0 0
M  V30 BEGIN ATOM
M  V30 1 C 2.914811 -7.139580 -0.442653 0
M  V30 2 C 1.892961 -6.157207 -0.884680 0
M  V30 3 C 2.214860 -4.827974 -0.837409 0
M  V30 4 C 1.247898 -3.908810 -1.254381 0
M  V30 5 C 1.617817 -2.507647 -1.194064 0
M  V30 6 N 2.817464 -2.032970 -1.630495 0
M  V30 7 N 2.833702 -0.703592 -1.431486 0
M  V30 8 C 1.648242 -0.337751 -0.870980 0
M  V30 9 C 1.176174 0.920939 -0.474884 0
M  V30 10 C -0.105010 0.945652 0.074044 0
M  V30 11 N -0.520492 2.253885 0.453131 0
M  V30 12 C -0.268219 2.790139 1.755414 0
M  V30 13 O 0.341207 2.100170 2.612144 0
M  V30 14 N -0.709211 4.085081 2.052124 0
M  V30 15 C -0.536705 4.776996 3.313020 0
M  V30 16 C -1.466814 4.307456 4.371019 0
M  V30 17 C -1.071771 3.251575 5.225008 0
M  V30 18 S -2.554191 3.034949 6.362057 0
M  V30 19 C -3.423616 4.444702 5.431890 0
M  V30 20 N -2.677342 4.751266 4.654498 0
M  V30 21 N -0.858001 -0.161309 0.222760 0
M  V30 22 C -0.416400 -1.382488 -0.154586 0
M  V30 23 C 0.845843 -1.473869 -0.705864 0
M  V30 24 C 0.049078 -4.412774 -1.679259 0
M  V30 25 C -0.289697 -5.734392 -1.733384 0
M  V30 26 N 0.674974 -6.566670 -1.322172 0
M  V30 27 H 2.374809 -8.084536 -0.218226 0
M  V30 28 H 3.666070 -7.343428 -1.236612 0
M  V30 29 H 3.444538 -6.802178 0.478393 0
M  V30 30 H 3.198270 -4.526924 -0.482727 0
M  V30 31 H 3.611276 -0.049860 -1.660849 0
M  V30 32 H 1.801592 1.781705 -0.607685 0
M  V30 33 H -1.028528 2.773795 -0.324890 0
M  V30 34 H -1.214131 4.620231 1.304839 0
M  V30 35 H 0.525676 4.623598 3.605415 0
M  V30 36 H -0.626310 5.887319 3.180865 0
M  V30 37 H -0.129292 2.661872 5.258496 0
M  V30 38 H -4.500566 5.049068 5.466270 0
M  V30 39 H -1.010297 -2.277952 -0.041451 0
M  V30 40 H -0.678172 -3.652601 -1.996427 0
M  V30 41 H -1.259664 -6.071934 -2.081141 0
M  V30 END ATOM
M  V30 BEGIN BOND
M  V30 1 1 1 2
M  V30 2 2 2 3
M  V30 3 1 3 4
M  V30 4 1 4 5
M  V30 5 2 5 6
M  V30 6 1 6 7
M  V30 7 1 7 8
M  V30 8 2 8 9
M  V30 9 1 9 10
M  V30 10 1 10 11
M  V30 11 1 11 12
M  V30 12 2 12 13
M  V30 13 1 12 14
M  V30 14 1 14 15
M  V30 15 1 15 16
M  V30 16 2 16 17
M  V30 17 1 17 18
M  V30 18 1 18 19
M  V30 19 2 19 20
M  V30 20 2 10 21
M  V30 21 1 21 22
M  V30 22 2 22 23
M  V30 23 2 4 24
M  V30 24 1 24 25
M  V30 25 2 25 26
M  V30 26 1 26 2
M  V30 27 1 23 5
M  V30 28 1 23 8
M  V30 29 1 20 16
M  V30 30 1 1 27
M  V30 31 1 1 28
M  V30 32 1 1 29
M  V30 33 1 3 30
M  V30 34 1 7 31
M  V30 35 1 9 32
M  V30 36 1 11 33
M  V30 37 1 14 34
M  V30 38 1 15 35
M  V30 39 1 15 36
M  V30 40 1 17 37
M  V30 41 1 19 38
M  V30 42 1 22 39
M  V30 43 1 24 40
M  V30 44 1 25 41
M  V30 END BOND
M  V30 END CTAB
M  END
>  <Dataset>  (141) 
ChEMBL_Kinases

>  <Ligand_Instance>  (141) 
nan

>  <PDB_ID>  (141) 
nan

>  <Standardized_SMILES>  (141) 
Cc1cc(-c2n[nH]c3cc(NC(=O)NCc4cscn4)ncc23)ccn1

>  <Name>  (141) 
nan

>  <Pocket>  (141) 
nan

>  <ATP_Site>  (141) 
nan

>  <Peripheral>  (141) 
nan

>  <Num_H_Atoms_ProtBoundConf>  (141) 
nan

>  <Num_Resolved_Atoms>  (141) 
nan

>  <Num_Not_Resolved_Atoms>  (141) 
nan

$$$$
CHEMBL3658794
     RDKit          3D

  0  0  0  0  0  0  0  0  0  0999 V3000
M  V30 BEGIN CTAB
M  V30 COUNTS 41 44 0 0 0
M  V30 BEGIN ATOM
M  V30 1 C 3.376498 -5.001039 3.569764 0
M  V30 2 C 3.327816 -5.108263 2.086786 0
M  V30 3 C 2.446972 -4.260512 1.405970 0
M  V30 4 C 2.275844 -4.230298 0.017023 0
M  V30 5 C 1.325799 -3.292080 -0.569137 0
M  V30 6 N 0.388715 -3.510686 -1.510672 0
M  V30 7 N -0.287201 -2.411358 -1.793106 0
M  V30 8 C 0.224643 -1.443314 -1.011239 0
M  V30 9 C -0.138462 -0.113882 -0.932587 0
M  V30 10 C 0.536349 0.719580 -0.044629 0
M  V30 11 N 0.299731 2.107917 0.169050 0
M  V30 12 C -0.564902 2.741301 1.070980 0
M  V30 13 O -1.171767 1.868083 1.738392 0
M  V30 14 N -0.683119 4.131416 1.160596 0
M  V30 15 C -1.595973 4.736141 2.112447 0
M  V30 16 C -2.973526 4.600644 1.573840 0
M  V30 17 C -3.872954 3.572918 1.767811 0
M  V30 18 N -5.016401 3.822528 1.110535 0
M  V30 19 N -4.869867 4.970799 0.509091 0
M  V30 20 N -3.684125 5.433041 0.771874 0
M  V30 21 N 1.526872 0.217543 0.718920 0
M  V30 22 C 1.884311 -1.087769 0.642610 0
M  V30 23 C 1.240210 -1.944998 -0.224053 0
M  V30 24 C 3.069547 -5.134459 -0.678118 0
M  V30 25 C 3.939730 -5.972211 -0.007070 0
M  V30 26 N 4.052206 -5.946361 1.331668 0
M  V30 27 H 2.614554 -5.689805 3.987192 0
M  V30 28 H 4.359400 -5.325141 3.967259 0
M  V30 29 H 3.201366 -3.953987 3.902715 0
M  V30 30 H 1.846488 -3.574315 2.000720 0
M  V30 31 H -1.064409 -2.326315 -2.489671 0
M  V30 32 H -0.914959 0.386291 -1.497234 0
M  V30 33 H 0.880526 2.707286 -0.463223 0
M  V30 34 H -0.071162 4.676293 0.498238 0
M  V30 35 H -1.321687 5.769786 2.340761 0
M  V30 36 H -1.572387 4.081524 3.030073 0
M  V30 37 H -3.722236 2.670310 2.359402 0
M  V30 38 H -5.920205 3.291404 1.013771 0
M  V30 39 H 2.680772 -1.476118 1.256648 0
M  V30 40 H 2.953754 -5.129148 -1.756895 0
M  V30 41 H 4.546074 -6.668798 -0.581420 0
M  V30 END ATOM
M  V30 BEGIN BOND
M  V30 1 1 1 2
M  V30 2 2 2 3
M  V30 3 1 3 4
M  V30 4 1 4 5
M  V30 5 2 5 6
M  V30 6 1 6 7
M  V30 7 1 7 8
M  V30 8 2 8 9
M  V30 9 1 9 10
M  V30 10 1 10 11
M  V30 11 1 11 12
M  V30 12 2 12 13
M  V30 13 1 12 14
M  V30 14 1 14 15
M  V30 15 1 15 16
M  V30 16 2 16 17
M  V30 17 1 17 18
M  V30 18 1 18 19
M  V30 19 2 19 20
M  V30 20 2 10 21
M  V30 21 1 21 22
M  V30 22 2 22 23
M  V30 23 2 4 24
M  V30 24 1 24 25
M  V30 25 2 25 26
M  V30 26 1 26 2
M  V30 27 1 23 5
M  V30 28 1 23 8
M  V30 29 1 20 16
M  V30 30 1 1 27
M  V30 31 1 1 28
M  V30 32 1 1 29
M  V30 33 1 3 30
M  V30 34 1 7 31
M  V30 35 1 9 32
M  V30 36 1 11 33
M  V30 37 1 14 34
M  V30 38 1 15 35
M  V30 39 1 15 36
M  V30 40 1 17 37
M  V30 41 1 18 38
M  V30 42 1 22 39
M  V30 43 1 24 40
M  V30 44 1 25 41
M  V30 END BOND
M  V30 END CTAB
M  END
>  <Dataset>  (142) 
ChEMBL_Kinases

>  <Ligand_Instance>  (142) 
nan

>  <PDB_ID>  (142) 
nan

>  <Standardized_SMILES>  (142) 
Cc1cc(-c2n[nH]c3cc(NC(=O)NCc4c[nH]nn4)ncc23)ccn1

>  <Name>  (142) 
nan

>  <Pocket>  (142) 
nan

>  <ATP_Site>  (142) 
nan

>  <Peripheral>  (142) 
nan

>  <Num_H_Atoms_ProtBoundConf>  (142) 
nan

>  <Num_Resolved_Atoms>  (142) 
nan

>  <Num_Not_Resolved_Atoms>  (142) 
nan

$$$$
CHEMBL3658793
     RDKit          3D

  0  0  0  0  0  0  0  0  0  0999 V3000
M  V30 BEGIN CTAB
M  V30 COUNTS 41 44 0 0 0
M  V30 BEGIN ATOM
M  V30 1 C -0.714752 -5.972382 1.952591 0
M  V30 2 C -0.276186 -5.693883 0.562584 0
M  V30 3 C 0.269561 -4.460627 0.233037 0
M  V30 4 C 0.694596 -4.149473 -1.048909 0
M  V30 5 C 1.266867 -2.845299 -1.377126 0
M  V30 6 N 2.366966 -2.580585 -2.113268 0
M  V30 7 N 2.575940 -1.264334 -2.193720 0
M  V30 8 C 1.610717 -0.618304 -1.506628 0
M  V30 9 C 1.379699 0.726663 -1.286349 0
M  V30 10 C 0.282577 1.084034 -0.523059 0
M  V30 11 N -0.094711 2.419769 -0.203699 0
M  V30 12 C 0.433776 3.018221 0.996554 0
M  V30 13 O 1.210607 2.317348 1.706250 0
M  V30 14 N 0.075380 4.330422 1.328925 0
M  V30 15 C 0.579055 4.992040 2.533760 0
M  V30 16 C 0.208622 4.296914 3.710044 0
M  V30 17 C -0.841229 4.303363 4.593763 0
M  V30 18 N -0.937246 3.520905 5.649822 0
M  V30 19 C -0.006242 2.690038 5.893797 0
M  V30 20 S 1.258845 2.961899 4.480622 0
M  V30 21 N -0.541441 0.123403 -0.007418 0
M  V30 22 C -0.286037 -1.192960 -0.242949 0
M  V30 23 C 0.793347 -1.606925 -0.996828 0
M  V30 24 C 0.543956 -5.152795 -2.004708 0
M  V30 25 C -0.006284 -6.373413 -1.636457 0
M  V30 26 N -0.408011 -6.638523 -0.379044 0
M  V30 27 H -0.103996 -5.401924 2.695483 0
M  V30 28 H -0.517615 -7.041749 2.170246 0
M  V30 29 H -1.791838 -5.792846 2.101410 0
M  V30 30 H 0.349475 -3.748409 1.024210 0
M  V30 31 H 3.371160 -0.802161 -2.713144 0
M  V30 32 H 1.992082 1.505430 -1.666515 0
M  V30 33 H -0.729430 2.984411 -0.788914 0
M  V30 34 H -0.580000 4.858398 0.687930 0
M  V30 35 H 1.707226 5.059534 2.485838 0
M  V30 36 H 0.247587 6.043469 2.545400 0
M  V30 37 H -1.624575 5.033510 4.349789 0
M  V30 38 H 0.012842 1.986679 6.753582 0
M  V30 39 H -0.961409 -1.921880 0.182424 0
M  V30 40 H 0.863740 -4.939920 -3.002737 0
M  V30 41 H -0.120787 -7.154110 -2.391506 0
M  V30 END ATOM
M  V30 BEGIN BOND
M  V30 1 1 1 2
M  V30 2 2 2 3
M  V30 3 1 3 4
M  V30 4 1 4 5
M  V30 5 2 5 6
M  V30 6 1 6 7
M  V30 7 1 7 8
M  V30 8 2 8 9
M  V30 9 1 9 10
M  V30 10 1 10 11
M  V30 11 1 11 12
M  V30 12 2 12 13
M  V30 13 1 12 14
M  V30 14 1 14 15
M  V30 15 1 15 16
M  V30 16 2 16 17
M  V30 17 1 17 18
M  V30 18 2 18 19
M  V30 19 1 19 20
M  V30 20 2 10 21
M  V30 21 1 21 22
M  V30 22 2 22 23
M  V30 23 2 4 24
M  V30 24 1 24 25
M  V30 25 2 25 26
M  V30 26 1 26 2
M  V30 27 1 23 5
M  V30 28 1 23 8
M  V30 29 1 20 16
M  V30 30 1 1 27
M  V30 31 1 1 28
M  V30 32 1 1 29
M  V30 33 1 3 30
M  V30 34 1 7 31
M  V30 35 1 9 32
M  V30 36 1 11 33
M  V30 37 1 14 34
M  V30 38 1 15 35
M  V30 39 1 15 36
M  V30 40 1 17 37
M  V30 41 1 19 38
M  V30 42 1 22 39
M  V30 43 1 24 40
M  V30 44 1 25 41
M  V30 END BOND
M  V30 END CTAB
M  END
>  <Dataset>  (143) 
ChEMBL_Kinases

>  <Ligand_Instance>  (143) 
nan

>  <PDB_ID>  (143) 
nan

>  <Standardized_SMILES>  (143) 
Cc1cc(-c2n[nH]c3cc(NC(=O)NCc4cncs4)ncc23)ccn1

>  <Name>  (143) 
nan

>  <Pocket>  (143) 
nan

>  <ATP_Site>  (143) 
nan

>  <Peripheral>  (143) 
nan

>  <Num_H_Atoms_ProtBoundConf>  (143) 
nan

>  <Num_Resolved_Atoms>  (143) 
nan

>  <Num_Not_Resolved_Atoms>  (143) 
nan

$$$$
CHEMBL3658792
     RDKit          3D

  0  0  0  0  0  0  0  0  0  0999 V3000
M  V30 BEGIN CTAB
M  V30 COUNTS 41 44 0 0 0
M  V30 BEGIN ATOM
M  V30 1 C 0.039368 -6.016712 2.352408 0
M  V30 2 C 0.441886 -5.783385 0.943597 0
M  V30 3 C 0.847210 -4.531502 0.533789 0
M  V30 4 C 1.237968 -4.229289 -0.758756 0
M  V30 5 C 1.665215 -2.906882 -1.187951 0
M  V30 6 N 2.729062 -2.561586 -1.959189 0
M  V30 7 N 2.771575 -1.241800 -2.121810 0
M  V30 8 C 1.727207 -0.716280 -1.451938 0
M  V30 9 C 1.361958 0.611135 -1.333078 0
M  V30 10 C 0.241498 0.931572 -0.589841 0
M  V30 11 N -0.321206 2.214633 -0.329830 0
M  V30 12 C 0.023307 3.032321 0.771092 0
M  V30 13 O 0.905534 2.493664 1.521182 0
M  V30 14 N -0.547291 4.300433 1.008834 0
M  V30 15 C -0.115615 5.052088 2.173794 0
M  V30 16 C -0.375513 4.334593 3.443155 0
M  V30 17 C -1.568704 4.551322 4.034306 0
M  V30 18 C -1.533720 3.777449 5.161468 0
M  V30 19 N -0.478769 2.882051 5.688253 0
M  V30 20 S 0.669362 3.242849 4.270446 0
M  V30 21 N -0.470544 -0.068867 0.003996 0
M  V30 22 C -0.098046 -1.368006 -0.122734 0
M  V30 23 C 1.012124 -1.737480 -0.853901 0
M  V30 24 C 1.210762 -5.262804 -1.673170 0
M  V30 25 C 0.800435 -6.535318 -1.263442 0
M  V30 26 N 0.427565 -6.771760 0.021463 0
M  V30 27 H 0.595606 -5.383645 3.067720 0
M  V30 28 H 0.063609 -7.098488 2.583940 0
M  V30 29 H -1.033478 -5.696178 2.436063 0
M  V30 30 H 0.852910 -3.767318 1.268646 0
M  V30 31 H 3.481415 -0.705461 -2.667286 0
M  V30 32 H 1.851706 1.461625 -1.757912 0
M  V30 33 H -1.045612 2.591099 -0.997475 0
M  V30 34 H -1.272226 4.687442 0.348765 0
M  V30 35 H -0.430939 6.091622 2.195795 0
M  V30 36 H 1.010449 5.075291 2.084423 0
M  V30 37 H -2.503775 5.062193 3.989050 0
M  V30 38 H -2.208455 3.551357 6.015650 0
M  V30 39 H -0.670208 -2.154411 0.352675 0
M  V30 40 H 1.498874 -5.124247 -2.709786 0
M  V30 41 H 0.760328 -7.379370 -1.937331 0
M  V30 END ATOM
M  V30 BEGIN BOND
M  V30 1 1 1 2
M  V30 2 2 2 3
M  V30 3 1 3 4
M  V30 4 1 4 5
M  V30 5 2 5 6
M  V30 6 1 6 7
M  V30 7 1 7 8
M  V30 8 2 8 9
M  V30 9 1 9 10
M  V30 10 1 10 11
M  V30 11 1 11 12
M  V30 12 2 12 13
M  V30 13 1 12 14
M  V30 14 1 14 15
M  V30 15 1 15 16
M  V30 16 2 16 17
M  V30 17 1 17 18
M  V30 18 2 18 19
M  V30 19 1 19 20
M  V30 20 2 10 21
M  V30 21 1 21 22
M  V30 22 2 22 23
M  V30 23 2 4 24
M  V30 24 1 24 25
M  V30 25 2 25 26
M  V30 26 1 26 2
M  V30 27 1 23 5
M  V30 28 1 23 8
M  V30 29 1 20 16
M  V30 30 1 1 27
M  V30 31 1 1 28
M  V30 32 1 1 29
M  V30 33 1 3 30
M  V30 34 1 7 31
M  V30 35 1 9 32
M  V30 36 1 11 33
M  V30 37 1 14 34
M  V30 38 1 15 35
M  V30 39 1 15 36
M  V30 40 1 17 37
M  V30 41 1 18 38
M  V30 42 1 22 39
M  V30 43 1 24 40
M  V30 44 1 25 41
M  V30 END BOND
M  V30 END CTAB
M  END
>  <Dataset>  (144) 
ChEMBL_Kinases

>  <Ligand_Instance>  (144) 
nan

>  <PDB_ID>  (144) 
nan

>  <Standardized_SMILES>  (144) 
Cc1cc(-c2n[nH]c3cc(NC(=O)NCc4ccns4)ncc23)ccn1

>  <Name>  (144) 
nan

>  <Pocket>  (144) 
nan

>  <ATP_Site>  (144) 
nan

>  <Peripheral>  (144) 
nan

>  <Num_H_Atoms_ProtBoundConf>  (144) 
nan

>  <Num_Resolved_Atoms>  (144) 
nan

>  <Num_Not_Resolved_Atoms>  (144) 
nan

$$$$
CHEMBL3658791
     RDKit          3D

  0  0  0  0  0  0  0  0  0  0999 V3000
M  V30 BEGIN CTAB
M  V30 COUNTS 45 48 0 0 0
M  V30 BEGIN ATOM
M  V30 1 C -2.832181 -5.498783 2.146868 0
M  V30 2 C -2.787466 -5.215274 0.690766 0
M  V30 3 C -1.948216 -4.265675 0.151877 0
M  V30 4 C -1.897594 -3.992453 -1.203902 0
M  V30 5 C -1.009565 -2.987281 -1.776499 0
M  V30 6 N -0.233785 -3.097668 -2.873508 0
M  V30 7 N 0.445985 -2.000247 -3.113799 0
M  V30 8 C 0.100322 -1.138443 -2.134396 0
M  V30 9 C 0.542589 0.153256 -1.941949 0
M  V30 10 C 0.058462 0.870305 -0.866042 0
M  V30 11 N 0.357534 2.203114 -0.458581 0
M  V30 12 C 1.416882 2.440978 0.428347 0
M  V30 13 O 2.067208 1.446588 0.831277 0
M  V30 14 N 1.800452 3.697108 0.894715 0
M  V30 15 C 2.841966 4.143619 1.796839 0
M  V30 16 C 2.704776 3.583258 3.164245 0
M  V30 17 N 1.881296 4.266272 4.013713 0
M  V30 18 C 1.836007 3.692003 5.213248 0
M  V30 19 C 2.666620 2.598144 5.120015 0
M  V30 20 N 3.178864 2.552083 3.878843 0
M  V30 21 C 4.092515 1.619181 3.304005 0
M  V30 22 N -0.841016 0.287365 -0.023333 0
M  V30 23 C -1.277373 -0.989078 -0.214419 0
M  V30 24 C -0.810595 -1.726979 -1.279873 0
M  V30 25 C -2.741889 -4.722431 -2.042563 0
M  V30 26 C -3.577561 -5.673259 -1.473647 0
M  V30 27 N -3.589430 -5.901994 -0.146664 0
M  V30 28 H -2.225277 -6.396380 2.384231 0
M  V30 29 H -3.865814 -5.729800 2.508455 0
M  V30 30 H -2.401392 -4.621598 2.677610 0
M  V30 31 H -1.316344 -3.725501 0.817145 0
M  V30 32 H 1.120924 -1.825610 -3.904795 0
M  V30 33 H 1.240570 0.706529 -2.534954 0
M  V30 34 H -0.210722 3.005837 -0.818883 0
M  V30 35 H 1.184382 4.469073 0.489389 0
M  V30 36 H 3.783836 3.658260 1.386276 0
M  V30 37 H 2.933542 5.228538 1.783823 0
M  V30 38 H 1.294941 3.966137 6.100066 0
M  V30 39 H 2.890317 1.872849 5.906023 0
M  V30 40 H 4.633296 2.010257 2.444845 0
M  V30 41 H 3.570051 0.676028 2.996988 0
M  V30 42 H 4.769280 1.286814 4.132169 0
M  V30 43 H -1.992441 -1.451122 0.456349 0
M  V30 44 H -2.757560 -4.562906 -3.118663 0
M  V30 45 H -4.267560 -6.284120 -2.071513 0
M  V30 END ATOM
M  V30 BEGIN BOND
M  V30 1 1 1 2
M  V30 2 2 2 3
M  V30 3 1 3 4
M  V30 4 1 4 5
M  V30 5 2 5 6
M  V30 6 1 6 7
M  V30 7 1 7 8
M  V30 8 2 8 9
M  V30 9 1 9 10
M  V30 10 1 10 11
M  V30 11 1 11 12
M  V30 12 2 12 13
M  V30 13 1 12 14
M  V30 14 1 14 15
M  V30 15 1 15 16
M  V30 16 2 16 17
M  V30 17 1 17 18
M  V30 18 2 18 19
M  V30 19 1 19 20
M  V30 20 1 20 21
M  V30 21 2 10 22
M  V30 22 1 22 23
M  V30 23 2 23 24
M  V30 24 2 4 25
M  V30 25 1 25 26
M  V30 26 2 26 27
M  V30 27 1 27 2
M  V30 28 1 24 5
M  V30 29 1 24 8
M  V30 30 1 20 16
M  V30 31 1 1 28
M  V30 32 1 1 29
M  V30 33 1 1 30
M  V30 34 1 3 31
M  V30 35 1 7 32
M  V30 36 1 9 33
M  V30 37 1 11 34
M  V30 38 1 14 35
M  V30 39 1 15 36
M  V30 40 1 15 37
M  V30 41 1 18 38
M  V30 42 1 19 39
M  V30 43 1 21 40
M  V30 44 1 21 41
M  V30 45 1 21 42
M  V30 46 1 23 43
M  V30 47 1 25 44
M  V30 48 1 26 45
M  V30 END BOND
M  V30 END CTAB
M  END
>  <Dataset>  (145) 
ChEMBL_Kinases

>  <Ligand_Instance>  (145) 
nan

>  <PDB_ID>  (145) 
nan

>  <Standardized_SMILES>  (145) 
Cc1cc(-c2n[nH]c3cc(NC(=O)NCc4nccn4C)ncc23)ccn1

>  <Name>  (145) 
nan

>  <Pocket>  (145) 
nan

>  <ATP_Site>  (145) 
nan

>  <Peripheral>  (145) 
nan

>  <Num_H_Atoms_ProtBoundConf>  (145) 
nan

>  <Num_Resolved_Atoms>  (145) 
nan

>  <Num_Not_Resolved_Atoms>  (145) 
nan

$$$$
CHEMBL3658790
     RDKit          3D

  0  0  0  0  0  0  0  0  0  0999 V3000
M  V30 BEGIN CTAB
M  V30 COUNTS 42 45 0 0 0
M  V30 BEGIN ATOM
M  V30 1 C 3.286701 -6.065024 2.431932 0
M  V30 2 C 2.926057 -5.838062 0.992339 0
M  V30 3 C 2.173378 -4.737131 0.656672 0
M  V30 4 C 1.798428 -4.453969 -0.639069 0
M  V30 5 C 1.001199 -3.294847 -1.024188 0
M  V30 6 N -0.064854 -3.225110 -1.873315 0
M  V30 7 N -0.505122 -1.992337 -1.952205 0
M  V30 8 C 0.226486 -1.163509 -1.171559 0
M  V30 9 C 0.200517 0.186801 -0.887798 0
M  V30 10 C 1.108169 0.768007 -0.020229 0
M  V30 11 N 1.026389 2.166833 0.229193 0
M  V30 12 C 0.253238 2.738811 1.264356 0
M  V30 13 O -0.363411 1.892399 1.953719 0
M  V30 14 N 0.159417 4.112269 1.526387 0
M  V30 15 C -0.621638 4.714366 2.574677 0
M  V30 16 C -2.062616 4.441823 2.500262 0
M  V30 17 N -2.887275 5.255675 1.816144 0
M  V30 18 C -4.151576 4.789301 1.901172 0
M  V30 19 C -4.095583 3.630721 2.677455 0
M  V30 20 N -2.796057 3.444592 3.030279 0
M  V30 21 N 2.033949 -0.051490 0.545841 0
M  V30 22 C 2.065363 -1.374838 0.272585 0
M  V30 23 C 1.175134 -1.982423 -0.586804 0
M  V30 24 C 2.229831 -5.355486 -1.597497 0
M  V30 25 C 2.985526 -6.460453 -1.258892 0
M  V30 26 N 3.316716 -6.677430 0.026598 0
M  V30 27 H 3.250287 -7.134759 2.712188 0
M  V30 28 H 4.305395 -5.683232 2.588956 0
M  V30 29 H 2.561760 -5.524792 3.085241 0
M  V30 30 H 1.866976 -4.072873 1.439278 0
M  V30 31 H -1.327685 -1.689535 -2.551175 0
M  V30 32 H -0.569408 0.772493 -1.380208 0
M  V30 33 H 1.572060 2.807211 -0.392199 0
M  V30 34 H 0.732668 4.687778 0.863436 0
M  V30 35 H -0.209443 4.282943 3.533964 0
M  V30 36 H -0.371093 5.782834 2.620693 0
M  V30 37 H -5.101157 5.128980 1.508635 0
M  V30 38 H -4.912105 2.985085 2.960207 0
M  V30 39 H -2.415860 2.665817 3.612636 0
M  V30 40 H 2.813332 -1.964118 0.746374 0
M  V30 41 H 1.960346 -5.178601 -2.642118 0
M  V30 42 H 3.290451 -7.127265 -2.062251 0
M  V30 END ATOM
M  V30 BEGIN BOND
M  V30 1 1 1 2
M  V30 2 2 2 3
M  V30 3 1 3 4
M  V30 4 1 4 5
M  V30 5 2 5 6
M  V30 6 1 6 7
M  V30 7 1 7 8
M  V30 8 2 8 9
M  V30 9 1 9 10
M  V30 10 1 10 11
M  V30 11 1 11 12
M  V30 12 2 12 13
M  V30 13 1 12 14
M  V30 14 1 14 15
M  V30 15 1 15 16
M  V30 16 2 16 17
M  V30 17 1 17 18
M  V30 18 2 18 19
M  V30 19 1 19 20
M  V30 20 2 10 21
M  V30 21 1 21 22
M  V30 22 2 22 23
M  V30 23 2 4 24
M  V30 24 1 24 25
M  V30 25 2 25 26
M  V30 26 1 26 2
M  V30 27 1 23 5
M  V30 28 1 23 8
M  V30 29 1 20 16
M  V30 30 1 1 27
M  V30 31 1 1 28
M  V30 32 1 1 29
M  V30 33 1 3 30
M  V30 34 1 7 31
M  V30 35 1 9 32
M  V30 36 1 11 33
M  V30 37 1 14 34
M  V30 38 1 15 35
M  V30 39 1 15 36
M  V30 40 1 18 37
M  V30 41 1 19 38
M  V30 42 1 20 39
M  V30 43 1 22 40
M  V30 44 1 24 41
M  V30 45 1 25 42
M  V30 END BOND
M  V30 END CTAB
M  END
>  <Dataset>  (146) 
ChEMBL_Kinases

>  <Ligand_Instance>  (146) 
nan

>  <PDB_ID>  (146) 
nan

>  <Standardized_SMILES>  (146) 
Cc1cc(-c2n[nH]c3cc(NC(=O)NCc4ncc[nH]4)ncc23)ccn1

>  <Name>  (146) 
nan

>  <Pocket>  (146) 
nan

>  <ATP_Site>  (146) 
nan

>  <Peripheral>  (146) 
nan

>  <Num_H_Atoms_ProtBoundConf>  (146) 
nan

>  <Num_Resolved_Atoms>  (146) 
nan

>  <Num_Not_Resolved_Atoms>  (146) 
nan

$$$$
CHEMBL3658789
     RDKit          3D

  0  0  0  0  0  0  0  0  0  0999 V3000
M  V30 BEGIN CTAB
M  V30 COUNTS 40 43 0 0 0
M  V30 BEGIN ATOM
M  V30 1 C 2.260920 -6.965802 1.097896 0
M  V30 2 C 1.338350 -6.010462 0.429270 0
M  V30 3 C 1.777468 -4.743030 0.109581 0
M  V30 4 C 0.894956 -3.858566 -0.514967 0
M  V30 5 C 1.308760 -2.491121 -0.881618 0
M  V30 6 N 2.496680 -2.244915 -1.494602 0
M  V30 7 N 2.601087 -0.923308 -1.701497 0
M  V30 8 C 1.489523 -0.337222 -1.223975 0
M  V30 9 C 1.034611 0.964087 -1.152535 0
M  V30 10 C -0.187846 1.260515 -0.585257 0
M  V30 11 N -0.716298 2.599859 -0.478691 0
M  V30 12 C -0.369572 3.309851 0.726217 0
M  V30 13 O 0.347956 2.761586 1.600582 0
M  V30 14 N -0.780853 4.634255 1.035810 0
M  V30 15 C -0.327135 5.174800 2.300788 0
M  V30 16 C -1.051175 4.653934 3.462726 0
M  V30 17 N -0.732807 3.560009 4.188191 0
M  V30 18 C -1.658775 3.453063 5.153286 0
M  V30 19 O -2.520176 4.435060 5.039670 0
M  V30 20 N -2.165653 5.164995 4.026082 0
M  V30 21 N -0.965024 0.271433 -0.086689 0
M  V30 22 C -0.584650 -1.029929 -0.121665 0
M  V30 23 C 0.629801 -1.302637 -0.687822 0
M  V30 24 C -0.384834 -4.275206 -0.793517 0
M  V30 25 C -0.814939 -5.556734 -0.465718 0
M  V30 26 N 0.068404 -6.349041 0.125427 0
M  V30 27 H 3.031861 -7.374151 0.421850 0
M  V30 28 H 2.725298 -6.532782 2.020258 0
M  V30 29 H 1.656570 -7.829654 1.467565 0
M  V30 30 H 2.771518 -4.385611 0.313581 0
M  V30 31 H 3.413255 -0.426354 -2.158913 0
M  V30 32 H 1.628368 1.772463 -1.539909 0
M  V30 33 H -1.320087 3.157469 -1.137709 0
M  V30 34 H -1.378543 5.128271 0.337129 0
M  V30 35 H 0.749703 4.849864 2.408351 0
M  V30 36 H -0.273902 6.291492 2.286717 0
M  V30 37 H -1.623439 2.636718 5.883169 0
M  V30 38 H -1.213017 -1.814151 0.279841 0
M  V30 39 H -1.121745 -3.631942 -1.279853 0
M  V30 40 H -1.831137 -5.845554 -0.703223 0
M  V30 END ATOM
M  V30 BEGIN BOND
M  V30 1 1 1 2
M  V30 2 2 2 3
M  V30 3 1 3 4
M  V30 4 1 4 5
M  V30 5 2 5 6
M  V30 6 1 6 7
M  V30 7 1 7 8
M  V30 8 2 8 9
M  V30 9 1 9 10
M  V30 10 1 10 11
M  V30 11 1 11 12
M  V30 12 2 12 13
M  V30 13 1 12 14
M  V30 14 1 14 15
M  V30 15 1 15 16
M  V30 16 1 16 17
M  V30 17 2 17 18
M  V30 18 1 18 19
M  V30 19 1 19 20
M  V30 20 2 10 21
M  V30 21 1 21 22
M  V30 22 2 22 23
M  V30 23 2 4 24
M  V30 24 1 24 25
M  V30 25 2 25 26
M  V30 26 1 26 2
M  V30 27 1 23 5
M  V30 28 1 23 8
M  V30 29 2 20 16
M  V30 30 1 1 27
M  V30 31 1 1 28
M  V30 32 1 1 29
M  V30 33 1 3 30
M  V30 34 1 7 31
M  V30 35 1 9 32
M  V30 36 1 11 33
M  V30 37 1 14 34
M  V30 38 1 15 35
M  V30 39 1 15 36
M  V30 40 1 18 37
M  V30 41 1 22 38
M  V30 42 1 24 39
M  V30 43 1 25 40
M  V30 END BOND
M  V30 END CTAB
M  END
>  <Dataset>  (147) 
ChEMBL_Kinases

>  <Ligand_Instance>  (147) 
nan

>  <PDB_ID>  (147) 
nan

>  <Standardized_SMILES>  (147) 
Cc1cc(-c2n[nH]c3cc(NC(=O)NCc4ncon4)ncc23)ccn1

>  <Name>  (147) 
nan

>  <Pocket>  (147) 
nan

>  <ATP_Site>  (147) 
nan

>  <Peripheral>  (147) 
nan

>  <Num_H_Atoms_ProtBoundConf>  (147) 
nan

>  <Num_Resolved_Atoms>  (147) 
nan

>  <Num_Not_Resolved_Atoms>  (147) 
nan

$$$$
CHEMBL3658788
     RDKit          3D

  0  0  0  0  0  0  0  0  0  0999 V3000
M  V30 BEGIN CTAB
M  V30 COUNTS 40 43 0 0 0
M  V30 BEGIN ATOM
M  V30 1 C -0.800910 -3.784289 5.951964 0
M  V30 2 C -1.417232 -3.745648 4.598633 0
M  V30 3 C -1.428890 -2.573366 3.888167 0
M  V30 4 C -2.024802 -2.623317 2.630702 0
M  V30 5 C -2.116572 -1.457757 1.751120 0
M  V30 6 N -3.213939 -1.057496 1.047563 0
M  V30 7 N -2.942826 0.038144 0.355338 0
M  V30 8 C -1.668742 0.425263 0.554600 0
M  V30 9 C -0.800239 1.424823 0.157053 0
M  V30 10 C 0.506477 1.493348 0.599586 0
M  V30 11 N 1.349277 2.563078 0.141463 0
M  V30 12 C 2.025669 2.201211 -1.032766 0
M  V30 13 O 1.990270 1.127978 -1.693161 0
M  V30 14 N 2.931210 3.124104 -1.674639 0
M  V30 15 C 3.689810 2.894596 -2.875004 0
M  V30 16 C 3.476251 1.549229 -3.469548 0
M  V30 17 C 4.203568 0.438619 -3.195664 0
M  V30 18 N 3.786097 -0.677615 -3.886660 0
M  V30 19 S 2.398752 -0.187128 -4.904511 0
M  V30 20 N 2.398237 1.570058 -4.370092 0
M  V30 21 N 0.974908 0.545096 1.463533 0
M  V30 22 C 0.146604 -0.458846 1.879400 0
M  V30 23 C -1.157148 -0.522166 1.434207 0
M  V30 24 C -2.564671 -3.796364 2.150794 0
M  V30 25 C -2.525311 -4.946050 2.907865 0
M  V30 26 N -1.950845 -4.870059 4.103795 0
M  V30 27 H -0.568608 -2.771092 6.298247 0
M  V30 28 H 0.159114 -4.344208 5.894665 0
M  V30 29 H -1.442762 -4.326545 6.683588 0
M  V30 30 H -1.015690 -1.648766 4.239837 0
M  V30 31 H -3.586554 0.576377 -0.277367 0
M  V30 32 H -1.230068 2.152745 -0.532609 0
M  V30 33 H 1.516603 3.521430 0.543543 0
M  V30 34 H 3.111652 4.092069 -1.284370 0
M  V30 35 H 3.570752 3.729659 -3.571253 0
M  V30 36 H 4.772628 2.924777 -2.545641 0
M  V30 37 H 5.021512 0.440741 -2.506788 0
M  V30 38 H 0.624200 -1.149600 2.560109 0
M  V30 39 H -3.037663 -3.874304 1.175100 0
M  V30 40 H -2.956641 -5.867175 2.515029 0
M  V30 END ATOM
M  V30 BEGIN BOND
M  V30 1 1 1 2
M  V30 2 2 2 3
M  V30 3 1 3 4
M  V30 4 1 4 5
M  V30 5 2 5 6
M  V30 6 1 6 7
M  V30 7 1 7 8
M  V30 8 2 8 9
M  V30 9 1 9 10
M  V30 10 1 10 11
M  V30 11 1 11 12
M  V30 12 2 12 13
M  V30 13 1 12 14
M  V30 14 1 14 15
M  V30 15 1 15 16
M  V30 16 1 16 17
M  V30 17 2 17 18
M  V30 18 1 18 19
M  V30 19 1 19 20
M  V30 20 2 10 21
M  V30 21 1 21 22
M  V30 22 2 22 23
M  V30 23 2 4 24
M  V30 24 1 24 25
M  V30 25 2 25 26
M  V30 26 1 26 2
M  V30 27 1 23 5
M  V30 28 1 23 8
M  V30 29 2 20 16
M  V30 30 1 1 27
M  V30 31 1 1 28
M  V30 32 1 1 29
M  V30 33 1 3 30
M  V30 34 1 7 31
M  V30 35 1 9 32
M  V30 36 1 11 33
M  V30 37 1 14 34
M  V30 38 1 15 35
M  V30 39 1 15 36
M  V30 40 1 17 37
M  V30 41 1 22 38
M  V30 42 1 24 39
M  V30 43 1 25 40
M  V30 END BOND
M  V30 END CTAB
M  END
>  <Dataset>  (148) 
ChEMBL_Kinases

>  <Ligand_Instance>  (148) 
nan

>  <PDB_ID>  (148) 
nan

>  <Standardized_SMILES>  (148) 
Cc1cc(-c2n[nH]c3cc(NC(=O)NCc4cnsn4)ncc23)ccn1

>  <Name>  (148) 
nan

>  <Pocket>  (148) 
nan

>  <ATP_Site>  (148) 
nan

>  <Peripheral>  (148) 
nan

>  <Num_H_Atoms_ProtBoundConf>  (148) 
nan

>  <Num_Resolved_Atoms>  (148) 
nan

>  <Num_Not_Resolved_Atoms>  (148) 
nan

$$$$
CHEMBL3658787
     RDKit          3D

  0  0  0  0  0  0  0  0  0  0999 V3000
M  V30 BEGIN CTAB
M  V30 COUNTS 44 47 0 0 0
M  V30 BEGIN ATOM
M  V30 1 C -0.157964 -7.761760 1.217520 0
M  V30 2 C -0.281105 -6.620202 0.303935 0
M  V30 3 C 0.567452 -5.521013 0.244720 0
M  V30 4 C 0.368483 -4.488662 -0.655813 0
M  V30 5 C 1.313974 -3.374791 -0.643174 0
M  V30 6 N 2.655673 -3.531308 -0.580341 0
M  V30 7 N 3.262079 -2.346143 -0.584417 0
M  V30 8 C 2.287937 -1.406759 -0.651389 0
M  V30 9 C 2.327560 -0.025451 -0.685378 0
M  V30 10 C 1.141541 0.684933 -0.755721 0
M  V30 11 N 1.053093 2.106975 -0.796352 0
M  V30 12 C 0.955386 2.838201 0.417302 0
M  V30 13 O 0.952481 2.178022 1.474773 0
M  V30 14 N 0.863964 4.228804 0.494710 0
M  V30 15 C 0.756910 5.140846 1.606446 0
M  V30 16 C -0.437816 4.955309 2.443351 0
M  V30 17 N -1.567721 5.564772 2.058647 0
M  V30 18 C -2.495796 5.257504 2.980184 0
M  V30 19 N -1.922102 4.463313 3.918413 0
M  V30 20 N -0.653638 4.287564 3.571981 0
M  V30 21 C 0.318648 3.511332 4.311241 0
M  V30 22 N -0.060044 0.045343 -0.791831 0
M  V30 23 C -0.142049 -1.309861 -0.760373 0
M  V30 24 C 1.039710 -2.018502 -0.690262 0
M  V30 25 C -0.689582 -4.512310 -1.536685 0
M  V30 26 C -1.518785 -5.616866 -1.457245 0
M  V30 27 N -1.305597 -6.601796 -0.578262 0
M  V30 28 H 0.320488 -8.658540 0.777064 0
M  V30 29 H -1.173949 -8.111662 1.549793 0
M  V30 30 H 0.393724 -7.534132 2.144614 0
M  V30 31 H 1.391972 -5.512318 0.938057 0
M  V30 32 H 4.280298 -2.119257 -0.545667 0
M  V30 33 H 3.252251 0.533624 -0.659318 0
M  V30 34 H 1.057970 2.631182 -1.696813 0
M  V30 35 H 0.878200 4.671202 -0.477499 0
M  V30 36 H 1.630818 4.961800 2.311896 0
M  V30 37 H 0.892342 6.168376 1.268228 0
M  V30 38 H -3.535322 5.502249 3.110059 0
M  V30 39 H 0.239626 3.725001 5.396779 0
M  V30 40 H 1.326836 3.775930 3.943276 0
M  V30 41 H 0.138927 2.438492 4.087153 0
M  V30 42 H -1.088944 -1.830170 -0.788407 0
M  V30 43 H -0.868959 -3.733406 -2.240958 0
M  V30 44 H -2.371085 -5.706683 -2.116650 0
M  V30 END ATOM
M  V30 BEGIN BOND
M  V30 1 1 1 2
M  V30 2 2 2 3
M  V30 3 1 3 4
M  V30 4 1 4 5
M  V30 5 2 5 6
M  V30 6 1 6 7
M  V30 7 1 7 8
M  V30 8 2 8 9
M  V30 9 1 9 10
M  V30 10 1 10 11
M  V30 11 1 11 12
M  V30 12 2 12 13
M  V30 13 1 12 14
M  V30 14 1 14 15
M  V30 15 1 15 16
M  V30 16 2 16 17
M  V30 17 1 17 18
M  V30 18 2 18 19
M  V30 19 1 19 20
M  V30 20 1 20 21
M  V30 21 2 10 22
M  V30 22 1 22 23
M  V30 23 2 23 24
M  V30 24 2 4 25
M  V30 25 1 25 26
M  V30 26 2 26 27
M  V30 27 1 27 2
M  V30 28 1 24 5
M  V30 29 1 24 8
M  V30 30 1 20 16
M  V30 31 1 1 28
M  V30 32 1 1 29
M  V30 33 1 1 30
M  V30 34 1 3 31
M  V30 35 1 7 32
M  V30 36 1 9 33
M  V30 37 1 11 34
M  V30 38 1 14 35
M  V30 39 1 15 36
M  V30 40 1 15 37
M  V30 41 1 18 38
M  V30 42 1 21 39
M  V30 43 1 21 40
M  V30 44 1 21 41
M  V30 45 1 23 42
M  V30 46 1 25 43
M  V30 47 1 26 44
M  V30 END BOND
M  V30 END CTAB
M  END
>  <Dataset>  (149) 
ChEMBL_Kinases

>  <Ligand_Instance>  (149) 
nan

>  <PDB_ID>  (149) 
nan

>  <Standardized_SMILES>  (149) 
Cc1cc(-c2n[nH]c3cc(NC(=O)NCc4ncnn4C)ncc23)ccn1

>  <Name>  (149) 
nan

>  <Pocket>  (149) 
nan

>  <ATP_Site>  (149) 
nan

>  <Peripheral>  (149) 
nan

>  <Num_H_Atoms_ProtBoundConf>  (149) 
nan

>  <Num_Resolved_Atoms>  (149) 
nan

>  <Num_Not_Resolved_Atoms>  (149) 
nan

$$$$
CHEMBL3658786
     RDKit          3D

  0  0  0  0  0  0  0  0  0  0999 V3000
M  V30 BEGIN CTAB
M  V30 COUNTS 41 44 0 0 0
M  V30 BEGIN ATOM
M  V30 1 C 0.161656 -5.812794 2.790474 0
M  V30 2 C 0.885333 -5.678463 1.478762 0
M  V30 3 C 1.245771 -4.427714 1.032405 0
M  V30 4 C 1.917770 -4.172113 -0.164403 0
M  V30 5 C 2.277979 -2.823757 -0.595477 0
M  V30 6 N 3.456972 -2.406353 -1.106038 0
M  V30 7 N 3.417533 -1.103455 -1.385590 0
M  V30 8 C 2.195895 -0.686739 -1.048053 0
M  V30 9 C 1.697698 0.593691 -1.160450 0
M  V30 10 C 0.398012 0.813494 -0.751006 0
M  V30 11 N -0.374813 2.028785 -0.749674 0
M  V30 12 C -0.309160 2.830388 0.428628 0
M  V30 13 O 0.415786 2.441663 1.401730 0
M  V30 14 N -1.014141 4.042477 0.568195 0
M  V30 15 C -1.019466 4.925031 1.713362 0
M  V30 16 C -1.867347 4.376427 2.790788 0
M  V30 17 C -1.336279 3.580937 3.752887 0
M  V30 18 N -1.979735 2.988284 4.835412 0
M  V30 19 S -3.674119 3.661039 4.460031 0
M  V30 20 C -3.250560 4.530940 3.053971 0
M  V30 21 N -0.339167 -0.211710 -0.259753 0
M  V30 22 C 0.166680 -1.469195 -0.154958 0
M  V30 23 C 1.446668 -1.728265 -0.548577 0
M  V30 24 C 2.230715 -5.292658 -0.939216 0
M  V30 25 C 1.856681 -6.540526 -0.466844 0
M  V30 26 N 1.207929 -6.724523 0.699653 0
M  V30 27 H 0.652904 -5.152180 3.549543 0
M  V30 28 H 0.134137 -6.873862 3.087237 0
M  V30 29 H -0.896859 -5.472446 2.672316 0
M  V30 30 H 0.988133 -3.595168 1.656219 0
M  V30 31 H 4.213928 -0.546155 -1.792550 0
M  V30 32 H 2.167614 1.492398 -1.528095 0
M  V30 33 H -0.975629 2.393588 -1.501747 0
M  V30 34 H -1.618052 4.374522 -0.236051 0
M  V30 35 H 0.057269 4.995621 2.029951 0
M  V30 36 H -1.297730 5.963421 1.463422 0
M  V30 37 H -0.312022 3.210040 3.930830 0
M  V30 38 H -3.798761 5.216878 2.253822 0
M  V30 39 H -0.428840 -2.281295 0.238181 0
M  V30 40 H 2.755776 -5.154946 -1.882152 0
M  V30 41 H 2.096671 -7.401357 -1.062101 0
M  V30 END ATOM
M  V30 BEGIN BOND
M  V30 1 1 1 2
M  V30 2 2 2 3
M  V30 3 1 3 4
M  V30 4 1 4 5
M  V30 5 2 5 6
M  V30 6 1 6 7
M  V30 7 1 7 8
M  V30 8 2 8 9
M  V30 9 1 9 10
M  V30 10 1 10 11
M  V30 11 1 11 12
M  V30 12 2 12 13
M  V30 13 1 12 14
M  V30 14 1 14 15
M  V30 15 1 15 16
M  V30 16 1 16 17
M  V30 17 2 17 18
M  V30 18 1 18 19
M  V30 19 1 19 20
M  V30 20 2 10 21
M  V30 21 1 21 22
M  V30 22 2 22 23
M  V30 23 2 4 24
M  V30 24 1 24 25
M  V30 25 2 25 26
M  V30 26 1 26 2
M  V30 27 1 23 5
M  V30 28 1 23 8
M  V30 29 2 20 16
M  V30 30 1 1 27
M  V30 31 1 1 28
M  V30 32 1 1 29
M  V30 33 1 3 30
M  V30 34 1 7 31
M  V30 35 1 9 32
M  V30 36 1 11 33
M  V30 37 1 14 34
M  V30 38 1 15 35
M  V30 39 1 15 36
M  V30 40 1 17 37
M  V30 41 1 20 38
M  V30 42 1 22 39
M  V30 43 1 24 40
M  V30 44 1 25 41
M  V30 END BOND
M  V30 END CTAB
M  END
>  <Dataset>  (150) 
ChEMBL_Kinases

>  <Ligand_Instance>  (150) 
nan

>  <PDB_ID>  (150) 
nan

>  <Standardized_SMILES>  (150) 
Cc1cc(-c2n[nH]c3cc(NC(=O)NCc4cnsc4)ncc23)ccn1

>  <Name>  (150) 
nan

>  <Pocket>  (150) 
nan

>  <ATP_Site>  (150) 
nan

>  <Peripheral>  (150) 
nan

>  <Num_H_Atoms_ProtBoundConf>  (150) 
nan

>  <Num_Resolved_Atoms>  (150) 
nan

>  <Num_Not_Resolved_Atoms>  (150) 
nan

$$$$
CHEMBL3658785
     RDKit          3D

  0  0  0  0  0  0  0  0  0  0999 V3000
M  V30 BEGIN CTAB
M  V30 COUNTS 41 44 0 0 0
M  V30 BEGIN ATOM
M  V30 1 C 0.205677 -5.864556 2.663347 0
M  V30 2 C 0.968837 -5.667952 1.382001 0
M  V30 3 C 1.308424 -4.371948 0.993412 0
M  V30 4 C 2.007889 -4.101899 -0.167479 0
M  V30 5 C 2.365885 -2.756564 -0.580045 0
M  V30 6 N 3.522407 -2.260981 -1.057304 0
M  V30 7 N 3.427914 -0.965083 -1.315136 0
M  V30 8 C 2.184489 -0.549201 -1.012730 0
M  V30 9 C 1.582518 0.690897 -1.097011 0
M  V30 10 C 0.266695 0.862257 -0.717271 0
M  V30 11 N -0.481741 2.073595 -0.748648 0
M  V30 12 C -0.526846 2.961056 0.341318 0
M  V30 13 O 0.137701 2.619518 1.353274 0
M  V30 14 N -1.241887 4.173556 0.385279 0
M  V30 15 C -1.188074 4.985936 1.593425 0
M  V30 16 C -1.697911 4.270948 2.775723 0
M  V30 17 N -0.973060 3.511312 3.621241 0
M  V30 18 C -1.757525 3.004885 4.595942 0
M  V30 19 N -3.008440 3.479673 4.326165 0
M  V30 20 N -2.943917 4.235261 3.230472 0
M  V30 21 N -0.385778 -0.227957 -0.267974 0
M  V30 22 C 0.204561 -1.439393 -0.186364 0
M  V30 23 C 1.516615 -1.667590 -0.552280 0
M  V30 24 C 2.362410 -5.201727 -0.941687 0
M  V30 25 C 2.005308 -6.485721 -0.521213 0
M  V30 26 N 1.321824 -6.718298 0.617860 0
M  V30 27 H 0.495360 -5.115709 3.431750 0
M  V30 28 H 0.277912 -6.905009 2.997978 0
M  V30 29 H -0.866558 -5.652645 2.405929 0
M  V30 30 H 1.002938 -3.574852 1.637884 0
M  V30 31 H 4.204511 -0.377441 -1.692214 0
M  V30 32 H 2.085079 1.579320 -1.453901 0
M  V30 33 H -1.035931 2.371458 -1.575057 0
M  V30 34 H -1.780734 4.410247 -0.489227 0
M  V30 35 H -1.654080 5.977184 1.441373 0
M  V30 36 H -0.097827 5.194410 1.773160 0
M  V30 37 H -1.285129 2.375608 5.337878 0
M  V30 38 H -3.799637 4.696354 2.852052 0
M  V30 39 H -0.382652 -2.262034 0.182794 0
M  V30 40 H 2.909260 -5.098216 -1.865440 0
M  V30 41 H 2.296347 -7.304750 -1.144191 0
M  V30 END ATOM
M  V30 BEGIN BOND
M  V30 1 1 1 2
M  V30 2 2 2 3
M  V30 3 1 3 4
M  V30 4 1 4 5
M  V30 5 2 5 6
M  V30 6 1 6 7
M  V30 7 1 7 8
M  V30 8 2 8 9
M  V30 9 1 9 10
M  V30 10 1 10 11
M  V30 11 1 11 12
M  V30 12 2 12 13
M  V30 13 1 12 14
M  V30 14 1 14 15
M  V30 15 1 15 16
M  V30 16 2 16 17
M  V30 17 1 17 18
M  V30 18 2 18 19
M  V30 19 1 19 20
M  V30 20 2 10 21
M  V30 21 1 21 22
M  V30 22 2 22 23
M  V30 23 2 4 24
M  V30 24 1 24 25
M  V30 25 2 25 26
M  V30 26 1 26 2
M  V30 27 1 23 5
M  V30 28 1 23 8
M  V30 29 1 20 16
M  V30 30 1 1 27
M  V30 31 1 1 28
M  V30 32 1 1 29
M  V30 33 1 3 30
M  V30 34 1 7 31
M  V30 35 1 9 32
M  V30 36 1 11 33
M  V30 37 1 14 34
M  V30 38 1 15 35
M  V30 39 1 15 36
M  V30 40 1 18 37
M  V30 41 1 20 38
M  V30 42 1 22 39
M  V30 43 1 24 40
M  V30 44 1 25 41
M  V30 END BOND
M  V30 END CTAB
M  END
>  <Dataset>  (151) 
ChEMBL_Kinases

>  <Ligand_Instance>  (151) 
nan

>  <PDB_ID>  (151) 
nan

>  <Standardized_SMILES>  (151) 
Cc1cc(-c2n[nH]c3cc(NC(=O)NCc4ncn[nH]4)ncc23)ccn1

>  <Name>  (151) 
nan

>  <Pocket>  (151) 
nan

>  <ATP_Site>  (151) 
nan

>  <Peripheral>  (151) 
nan

>  <Num_H_Atoms_ProtBoundConf>  (151) 
nan

>  <Num_Resolved_Atoms>  (151) 
nan

>  <Num_Not_Resolved_Atoms>  (151) 
nan

$$$$
CHEMBL3658784
     RDKit          3D

  0  0  0  0  0  0  0  0  0  0999 V3000
M  V30 BEGIN CTAB
M  V30 COUNTS 45 48 0 0 0
M  V30 BEGIN ATOM
M  V30 1 C -2.635351 -4.575759 5.525023 0
M  V30 2 C -3.264145 -4.442214 4.175826 0
M  V30 3 C -2.648958 -3.678593 3.195675 0
M  V30 4 C -3.271485 -3.584734 1.956036 0
M  V30 5 C -2.595852 -2.770024 0.940573 0
M  V30 6 N -2.429453 -3.166936 -0.350517 0
M  V30 7 N -1.786892 -2.233881 -1.039723 0
M  V30 8 C -1.503314 -1.192386 -0.246618 0
M  V30 9 C -0.874525 0.037940 -0.368998 0
M  V30 10 C -0.764596 0.888148 0.715516 0
M  V30 11 N -0.094611 2.120218 0.458466 0
M  V30 12 C 1.319104 2.093076 0.673686 0
M  V30 13 O 1.909441 1.030874 1.067403 0
M  V30 14 N 2.146454 3.204375 0.473854 0
M  V30 15 C 3.582624 3.252498 0.672470 0
M  V30 16 C 4.307853 2.580708 -0.436565 0
M  V30 17 C 4.635123 1.240128 -0.426486 0
M  V30 18 N 5.281979 0.964707 -1.572594 0
M  V30 19 N 5.393294 2.055198 -2.328799 0
M  V30 20 C 6.033711 2.100982 -3.618843 0
M  V30 21 C 4.798202 3.045830 -1.636908 0
M  V30 22 N -1.275734 0.523458 1.921279 0
M  V30 23 C -1.894552 -0.673215 2.066056 0
M  V30 24 C -2.010467 -1.531204 0.989597 0
M  V30 25 C -4.462043 -4.201021 1.634076 0
M  V30 26 C -5.019696 -4.945090 2.655870 0
M  V30 27 N -4.431283 -5.043121 3.852026 0
M  V30 28 H -2.859032 -5.580029 5.936875 0
M  V30 29 H -2.912128 -3.763521 6.216532 0
M  V30 30 H -1.537067 -4.510788 5.333743 0
M  V30 31 H -1.733574 -3.215853 3.470271 0
M  V30 32 H -1.529311 -2.277997 -2.044875 0
M  V30 33 H -0.488937 0.262394 -1.366582 0
M  V30 34 H -0.534473 3.022657 0.132969 0
M  V30 35 H 1.636228 4.077793 0.145363 0
M  V30 36 H 3.906286 4.310506 0.688836 0
M  V30 37 H 3.875369 2.794373 1.646164 0
M  V30 38 H 4.474517 0.445171 0.283532 0
M  V30 39 H 5.287804 1.797155 -4.384762 0
M  V30 40 H 6.328179 3.143671 -3.869498 0
M  V30 41 H 6.907838 1.412263 -3.630726 0
M  V30 42 H 4.700821 4.076378 -1.951599 0
M  V30 43 H -2.288801 -0.924331 3.047123 0
M  V30 44 H -4.894523 -4.085820 0.645790 0
M  V30 45 H -5.955189 -5.456987 2.473611 0
M  V30 END ATOM
M  V30 BEGIN BOND
M  V30 1 1 1 2
M  V30 2 2 2 3
M  V30 3 1 3 4
M  V30 4 1 4 5
M  V30 5 2 5 6
M  V30 6 1 6 7
M  V30 7 1 7 8
M  V30 8 2 8 9
M  V30 9 1 9 10
M  V30 10 1 10 11
M  V30 11 1 11 12
M  V30 12 2 12 13
M  V30 13 1 12 14
M  V30 14 1 14 15
M  V30 15 1 15 16
M  V30 16 1 16 17
M  V30 17 2 17 18
M  V30 18 1 18 19
M  V30 19 1 19 20
M  V30 20 1 19 21
M  V30 21 2 10 22
M  V30 22 1 22 23
M  V30 23 2 23 24
M  V30 24 2 4 25
M  V30 25 1 25 26
M  V30 26 2 26 27
M  V30 27 1 27 2
M  V30 28 1 24 5
M  V30 29 1 24 8
M  V30 30 2 21 16
M  V30 31 1 1 28
M  V30 32 1 1 29
M  V30 33 1 1 30
M  V30 34 1 3 31
M  V30 35 1 7 32
M  V30 36 1 9 33
M  V30 37 1 11 34
M  V30 38 1 14 35
M  V30 39 1 15 36
M  V30 40 1 15 37
M  V30 41 1 17 38
M  V30 42 1 20 39
M  V30 43 1 20 40
M  V30 44 1 20 41
M  V30 45 1 21 42
M  V30 46 1 23 43
M  V30 47 1 25 44
M  V30 48 1 26 45
M  V30 END BOND
M  V30 END CTAB
M  END
>  <Dataset>  (152) 
ChEMBL_Kinases

>  <Ligand_Instance>  (152) 
nan

>  <PDB_ID>  (152) 
nan

>  <Standardized_SMILES>  (152) 
Cc1cc(-c2n[nH]c3cc(NC(=O)NCc4cnn(C)c4)ncc23)ccn1

>  <Name>  (152) 
nan

>  <Pocket>  (152) 
nan

>  <ATP_Site>  (152) 
nan

>  <Peripheral>  (152) 
nan

>  <Num_H_Atoms_ProtBoundConf>  (152) 
nan

>  <Num_Resolved_Atoms>  (152) 
nan

>  <Num_Not_Resolved_Atoms>  (152) 
nan

$$$$
CHEMBL3658766
     RDKit          3D

  0  0  0  0  0  0  0  0  0  0999 V3000
M  V30 BEGIN CTAB
M  V30 COUNTS 54 58 0 0 0
M  V30 BEGIN ATOM
M  V30 1 C -2.150221 -6.977568 -1.831228 0
M  V30 2 C -0.682712 -6.863948 -1.617759 0
M  V30 3 C -0.131078 -5.787208 -0.968889 0
M  V30 4 C 1.233455 -5.700290 -0.780713 0
M  V30 5 C 1.908210 -4.591140 -0.101342 0
M  V30 6 N 2.891316 -4.730448 0.826079 0
M  V30 7 N 3.297404 -3.537792 1.253613 0
M  V30 8 C 2.552141 -2.642266 0.578645 0
M  V30 9 C 2.605121 -1.265727 0.677831 0
M  V30 10 C 1.730870 -0.563803 -0.126349 0
M  V30 11 N 1.590392 0.857035 -0.209073 0
M  V30 12 C 0.610986 1.277978 0.749797 0
M  V30 13 N 0.426153 2.700248 0.713293 0
M  V30 14 C -0.427052 3.202216 1.730758 0
M  V30 15 C -1.440749 4.170549 1.212272 0
M  V30 16 C -2.043450 3.717144 0.035172 0
M  V30 17 C -3.009881 4.464250 -0.607778 0
M  V30 18 C -3.359377 5.676389 -0.045060 0
M  V30 19 Cl -4.575219 6.706116 -0.778117 0
M  V30 20 C -2.772606 6.135302 1.115692 0
M  V30 21 C -1.806046 5.389438 1.759866 0
M  V30 22 C -1.083370 2.158121 2.585918 0
M  V30 23 C -0.367390 0.863201 2.701091 0
M  V30 24 C -0.195931 0.442152 4.142386 0
M  V30 25 O 0.891811 0.940318 2.060234 0
M  V30 26 N 0.864568 -1.171632 -0.969557 0
M  V30 27 C 0.800103 -2.523101 -1.078744 0
M  V30 28 C 1.662883 -3.251699 -0.286391 0
M  V30 29 C 1.992911 -6.740667 -1.274704 0
M  V30 30 C 1.432988 -7.820557 -1.926158 0
M  V30 31 N 0.099470 -7.863474 -2.086948 0
M  V30 32 H -2.682601 -6.634756 -0.932908 0
M  V30 33 H -2.457780 -6.420615 -2.732920 0
M  V30 34 H -2.445398 -8.036229 -2.005217 0
M  V30 35 H -0.747709 -4.983734 -0.590484 0
M  V30 36 H 4.038530 -3.335411 1.963687 0
M  V30 37 H 3.241662 -0.658398 1.303116 0
M  V30 38 H 2.201097 1.312995 -0.923282 0
M  V30 39 H -0.368563 0.825883 0.455636 0
M  V30 40 H 1.303723 3.237709 0.545129 0
M  V30 41 H 0.221962 3.798291 2.419795 0
M  V30 42 H -1.815337 2.776266 -0.458523 0
M  V30 43 H -3.504478 4.169338 -1.508593 0
M  V30 44 H -2.999786 7.071896 1.606993 0
M  V30 45 H -1.263174 5.617032 2.667476 0
M  V30 46 H -1.282455 2.542039 3.626722 0
M  V30 47 H -2.092791 1.976992 2.162527 0
M  V30 48 H -0.898661 0.065111 2.142059 0
M  V30 49 H -0.060030 -0.654388 4.199231 0
M  V30 50 H 0.765018 0.874946 4.500075 0
M  V30 51 H -1.027229 0.756523 4.773099 0
M  V30 52 H 0.120430 -3.045262 -1.741904 0
M  V30 53 H 3.083561 -6.789891 -1.189566 0
M  V30 54 H 2.015269 -8.658927 -2.327286 0
M  V30 END ATOM
M  V30 BEGIN BOND
M  V30 1 1 1 2
M  V30 2 2 2 3
M  V30 3 1 3 4
M  V30 4 1 4 5
M  V30 5 2 5 6
M  V30 6 1 6 7
M  V30 7 1 7 8
M  V30 8 2 8 9
M  V30 9 1 9 10
M  V30 10 1 10 11
M  V30 11 1 11 12
M  V30 12 1 12 13
M  V30 13 1 13 14
M  V30 14 1 14 15
M  V30 15 2 15 16
M  V30 16 1 16 17
M  V30 17 2 17 18
M  V30 18 1 18 19
M  V30 19 1 18 20
M  V30 20 2 20 21
M  V30 21 1 14 22
M  V30 22 1 22 23
M  V30 23 1 23 24
M  V30 24 1 23 25
M  V30 25 2 10 26
M  V30 26 1 26 27
M  V30 27 2 27 28
M  V30 28 2 4 29
M  V30 29 1 29 30
M  V30 30 2 30 31
M  V30 31 1 31 2
M  V30 32 1 28 5
M  V30 33 1 28 8
M  V30 34 1 25 12
M  V30 35 1 21 15
M  V30 36 1 1 32
M  V30 37 1 1 33
M  V30 38 1 1 34
M  V30 39 1 3 35
M  V30 40 1 7 36
M  V30 41 1 9 37
M  V30 42 1 11 38
M  V30 43 1 12 39
M  V30 44 1 13 40
M  V30 45 1 14 41
M  V30 46 1 16 42
M  V30 47 1 17 43
M  V30 48 1 20 44
M  V30 49 1 21 45
M  V30 50 1 22 46
M  V30 51 1 22 47
M  V30 52 1 23 48
M  V30 53 1 24 49
M  V30 54 1 24 50
M  V30 55 1 24 51
M  V30 56 1 27 52
M  V30 57 1 29 53
M  V30 58 1 30 54
M  V30 END BOND
M  V30 END CTAB
M  END
>  <Dataset>  (153) 
ChEMBL_Kinases

>  <Ligand_Instance>  (153) 
nan

>  <PDB_ID>  (153) 
nan

>  <Standardized_SMILES>  (153) 
Cc1cc(-c2n[nH]c3cc(NC4NC(c5ccc(Cl)cc5)CC(C)O4)ncc23)ccn1

>  <Name>  (153) 
nan

>  <Pocket>  (153) 
nan

>  <ATP_Site>  (153) 
nan

>  <Peripheral>  (153) 
nan

>  <Num_H_Atoms_ProtBoundConf>  (153) 
nan

>  <Num_Resolved_Atoms>  (153) 
nan

>  <Num_Not_Resolved_Atoms>  (153) 
nan

$$$$
CHEMBL3658767
     RDKit          3D

  0  0  0  0  0  0  0  0  0  0999 V3000
M  V30 BEGIN CTAB
M  V30 COUNTS 57 61 0 0 0
M  V30 BEGIN ATOM
M  V30 1 C 1.427411 -5.354063 4.644343 0
M  V30 2 C 2.608663 -4.930655 3.846047 0
M  V30 3 C 2.628292 -3.668285 3.314046 0
M  V30 4 C 3.736926 -3.301755 2.577542 0
M  V30 5 C 3.957110 -2.011798 1.928199 0
M  V30 6 N 5.121803 -1.303530 1.972110 0
M  V30 7 N 4.985525 -0.181902 1.281605 0
M  V30 8 C 3.733263 -0.157078 0.786934 0
M  V30 9 C 3.039347 0.747697 0.005787 0
M  V30 10 C 1.717033 0.545719 -0.386689 0
M  V30 11 N 0.995100 1.469620 -1.190283 0
M  V30 12 C -0.401457 1.215511 -1.577631 0
M  V30 13 N -1.133193 1.116754 -0.354873 0
M  V30 14 C -2.242312 0.232075 -0.355167 0
M  V30 15 C -3.397492 0.943750 0.258569 0
M  V30 16 C -3.733752 2.253163 -0.064691 0
M  V30 17 C -4.804945 2.919329 0.501957 0
M  V30 18 C -5.592136 2.264160 1.439738 0
M  V30 19 Cl -6.920639 3.154885 2.113176 0
M  V30 20 C -5.302040 0.976879 1.790363 0
M  V30 21 C -4.226399 0.364888 1.195447 0
M  V30 22 C -2.622545 -0.395098 -1.644524 0
M  V30 23 C -1.742166 -0.093078 -2.806482 0
M  V30 24 C -1.800379 -1.284770 -3.762778 0
M  V30 25 C -2.284307 1.079672 -3.596904 0
M  V30 26 O -0.452628 0.093194 -2.366506 0
M  V30 27 N 1.085928 -0.594285 0.019828 0
M  V30 28 C 1.747990 -1.502710 0.790810 0
M  V30 29 C 3.053554 -1.292980 1.172449 0
M  V30 30 C 4.779329 -4.200744 2.398946 0
M  V30 31 C 4.732405 -5.468113 2.947422 0
M  V30 32 N 3.638766 -5.804501 3.663558 0
M  V30 33 H 1.311457 -6.450281 4.529432 0
M  V30 34 H 1.479171 -5.030523 5.692359 0
M  V30 35 H 0.540261 -4.867165 4.189485 0
M  V30 36 H 1.864912 -2.938799 3.415410 0
M  V30 37 H 5.693289 0.585530 1.116626 0
M  V30 38 H 3.489724 1.667363 -0.344743 0
M  V30 39 H 1.529370 2.339112 -1.483754 0
M  V30 40 H -0.704500 2.099182 -2.166139 0
M  V30 41 H -0.542772 1.084302 0.496394 0
M  V30 42 H -1.996343 -0.584399 0.385548 0
M  V30 43 H -3.137913 2.789798 -0.793016 0
M  V30 44 H -5.007593 3.943238 0.200106 0
M  V30 45 H -5.917649 0.451598 2.529647 0
M  V30 46 H -4.032874 -0.660222 1.505090 0
M  V30 47 H -3.651753 -0.024450 -1.927891 0
M  V30 48 H -2.714155 -1.500136 -1.540824 0
M  V30 49 H -1.509178 -0.979738 -4.787710 0
M  V30 50 H -2.875117 -1.563807 -3.835098 0
M  V30 51 H -1.217446 -2.141682 -3.376986 0
M  V30 52 H -2.573179 1.933823 -2.967044 0
M  V30 53 H -3.259708 0.712652 -4.033068 0
M  V30 54 H -1.576214 1.342616 -4.420223 0
M  V30 55 H 1.296868 -2.417770 1.138344 0
M  V30 56 H 5.684662 -3.963385 1.823161 0
M  V30 57 H 5.556642 -6.172561 2.803634 0
M  V30 END ATOM
M  V30 BEGIN BOND
M  V30 1 1 1 2
M  V30 2 2 2 3
M  V30 3 1 3 4
M  V30 4 1 4 5
M  V30 5 2 5 6
M  V30 6 1 6 7
M  V30 7 1 7 8
M  V30 8 2 8 9
M  V30 9 1 9 10
M  V30 10 1 10 11
M  V30 11 1 11 12
M  V30 12 1 12 13
M  V30 13 1 13 14
M  V30 14 1 14 15
M  V30 15 2 15 16
M  V30 16 1 16 17
M  V30 17 2 17 18
M  V30 18 1 18 19
M  V30 19 1 18 20
M  V30 20 2 20 21
M  V30 21 1 14 22
M  V30 22 1 22 23
M  V30 23 1 23 24
M  V30 24 1 23 25
M  V30 25 1 23 26
M  V30 26 2 10 27
M  V30 27 1 27 28
M  V30 28 2 28 29
M  V30 29 2 4 30
M  V30 30 1 30 31
M  V30 31 2 31 32
M  V30 32 1 32 2
M  V30 33 1 29 5
M  V30 34 1 29 8
M  V30 35 1 26 12
M  V30 36 1 21 15
M  V30 37 1 1 33
M  V30 38 1 1 34
M  V30 39 1 1 35
M  V30 40 1 3 36
M  V30 41 1 7 37
M  V30 42 1 9 38
M  V30 43 1 11 39
M  V30 44 1 12 40
M  V30 45 1 13 41
M  V30 46 1 14 42
M  V30 47 1 16 43
M  V30 48 1 17 44
M  V30 49 1 20 45
M  V30 50 1 21 46
M  V30 51 1 22 47
M  V30 52 1 22 48
M  V30 53 1 24 49
M  V30 54 1 24 50
M  V30 55 1 24 51
M  V30 56 1 25 52
M  V30 57 1 25 53
M  V30 58 1 25 54
M  V30 59 1 28 55
M  V30 60 1 30 56
M  V30 61 1 31 57
M  V30 END BOND
M  V30 END CTAB
M  END
>  <Dataset>  (154) 
ChEMBL_Kinases

>  <Ligand_Instance>  (154) 
nan

>  <PDB_ID>  (154) 
nan

>  <Standardized_SMILES>  (154) 
Cc1cc(-c2n[nH]c3cc(NC4NC(c5ccc(Cl)cc5)CC(C)(C)O4)ncc23)ccn1

>  <Name>  (154) 
nan

>  <Pocket>  (154) 
nan

>  <ATP_Site>  (154) 
nan

>  <Peripheral>  (154) 
nan

>  <Num_H_Atoms_ProtBoundConf>  (154) 
nan

>  <Num_Resolved_Atoms>  (154) 
nan

>  <Num_Not_Resolved_Atoms>  (154) 
nan

$$$$
CHEMBL3658768
     RDKit          3D

  0  0  0  0  0  0  0  0  0  0999 V3000
M  V30 BEGIN CTAB
M  V30 COUNTS 57 60 0 0 0
M  V30 BEGIN ATOM
M  V30 1 C 6.072897 -2.852958 2.117829 0
M  V30 2 C 4.694479 -3.342534 1.766733 0
M  V30 3 C 3.634439 -2.323780 2.108999 0
M  V30 4 C 3.843671 -1.027137 1.367306 0
M  V30 5 C 2.236503 -2.811446 1.811380 0
M  V30 6 N 1.347730 -1.705763 2.199895 0
M  V30 7 C 0.464450 -1.080225 1.273854 0
M  V30 8 O 0.351423 -1.389354 0.080872 0
M  V30 9 N -0.334285 -0.021417 1.801262 0
M  V30 10 C -1.270122 0.679130 0.952134 0
M  V30 11 C -2.029822 1.711453 1.480083 0
M  V30 12 C -2.909987 2.327778 0.582276 0
M  V30 13 N -3.787865 3.344824 0.742321 0
M  V30 14 N -4.408168 3.573073 -0.419966 0
M  V30 15 C -3.940848 2.714485 -1.331791 0
M  V30 16 C -4.405911 2.675924 -2.728210 0
M  V30 17 C -5.778569 2.749942 -2.836007 0
M  V30 18 C -6.374788 2.720551 -4.090358 0
M  V30 19 N -5.594296 2.619031 -5.196623 0
M  V30 20 C -4.241240 2.548020 -5.055111 0
M  V30 21 C -3.429066 2.434345 -6.299530 0
M  V30 22 C -3.597044 2.572859 -3.838080 0
M  V30 23 C -2.986493 1.906128 -0.732778 0
M  V30 24 C -2.211425 0.873250 -1.218158 0
M  V30 25 N -1.368597 0.288898 -0.344177 0
M  V30 26 C 1.917375 -4.017794 2.634497 0
M  V30 27 C 1.788615 -5.276241 2.061189 0
M  V30 28 C 1.493418 -6.398413 2.831127 0
M  V30 29 C 1.326902 -6.231645 4.209778 0
M  V30 30 Cl 0.955621 -7.654957 5.163906 0
M  V30 31 C 1.456368 -4.969888 4.780041 0
M  V30 32 C 1.750208 -3.865708 3.999632 0
M  V30 33 H 6.677900 -3.671440 2.591577 0
M  V30 34 H 6.052652 -2.010129 2.862311 0
M  V30 35 H 6.640637 -2.439483 1.259563 0
M  V30 36 H 4.508393 -4.320229 2.248635 0
M  V30 37 H 4.611953 -3.515975 0.659838 0
M  V30 38 H 3.683529 -2.080070 3.205380 0
M  V30 39 H 3.293470 -0.189513 1.857756 0
M  V30 40 H 3.476265 -1.066872 0.312174 0
M  V30 41 H 4.942475 -0.779551 1.290306 0
M  V30 42 H 2.150560 -3.077608 0.752099 0
M  V30 43 H 1.399226 -1.403585 3.192547 0
M  V30 44 H -0.261013 0.263486 2.803710 0
M  V30 45 H -1.946511 2.015841 2.512701 0
M  V30 46 H -3.924904 3.845881 1.659605 0
M  V30 47 H -6.501266 2.831044 -2.036451 0
M  V30 48 H -7.457706 2.774771 -4.283387 0
M  V30 49 H -3.121793 3.415926 -6.709259 0
M  V30 50 H -2.504462 1.881117 -6.040107 0
M  V30 51 H -3.959199 1.808474 -7.055772 0
M  V30 52 H -2.545244 2.519515 -3.686866 0
M  V30 53 H -2.286399 0.559338 -2.250714 0
M  V30 54 H 1.917189 -5.413750 0.991230 0
M  V30 55 H 1.409113 -7.348114 2.325453 0
M  V30 56 H 1.304530 -4.967674 5.853512 0
M  V30 57 H 1.837046 -2.915583 4.500924 0
M  V30 END ATOM
M  V30 BEGIN BOND
M  V30 1 1 1 2
M  V30 2 1 2 3
M  V30 3 1 3 4
M  V30 4 1 3 5
M  V30 5 1 5 6
M  V30 6 1 6 7
M  V30 7 2 7 8
M  V30 8 1 7 9
M  V30 9 1 9 10
M  V30 10 2 10 11
M  V30 11 1 11 12
M  V30 12 1 12 13
M  V30 13 1 13 14
M  V30 14 2 14 15
M  V30 15 1 15 16
M  V30 16 2 16 17
M  V30 17 1 17 18
M  V30 18 2 18 19
M  V30 19 1 19 20
M  V30 20 1 20 21
M  V30 21 2 20 22
M  V30 22 1 15 23
M  V30 23 1 23 24
M  V30 24 2 24 25
M  V30 25 1 5 26
M  V30 26 2 26 27
M  V30 27 1 27 28
M  V30 28 2 28 29
M  V30 29 1 29 30
M  V30 30 1 29 31
M  V30 31 2 31 32
M  V30 32 1 25 10
M  V30 33 1 32 26
M  V30 34 2 23 12
M  V30 35 1 22 16
M  V30 36 1 1 33
M  V30 37 1 1 34
M  V30 38 1 1 35
M  V30 39 1 2 36
M  V30 40 1 2 37
M  V30 41 1 3 38
M  V30 42 1 4 39
M  V30 43 1 4 40
M  V30 44 1 4 41
M  V30 45 1 5 42
M  V30 46 1 6 43
M  V30 47 1 9 44
M  V30 48 1 11 45
M  V30 49 1 13 46
M  V30 50 1 17 47
M  V30 51 1 18 48
M  V30 52 1 21 49
M  V30 53 1 21 50
M  V30 54 1 21 51
M  V30 55 1 22 52
M  V30 56 1 24 53
M  V30 57 1 27 54
M  V30 58 1 28 55
M  V30 59 1 31 56
M  V30 60 1 32 57
M  V30 END BOND
M  V30 END CTAB
M  END
>  <Dataset>  (155) 
ChEMBL_Kinases

>  <Ligand_Instance>  (155) 
nan

>  <PDB_ID>  (155) 
nan

>  <Standardized_SMILES>  (155) 
CCC(C)C(NC(=O)Nc1cc2[nH]nc(-c3ccnc(C)c3)c2cn1)c1ccc(Cl)cc1

>  <Name>  (155) 
nan

>  <Pocket>  (155) 
nan

>  <ATP_Site>  (155) 
nan

>  <Peripheral>  (155) 
nan

>  <Num_H_Atoms_ProtBoundConf>  (155) 
nan

>  <Num_Resolved_Atoms>  (155) 
nan

>  <Num_Not_Resolved_Atoms>  (155) 
nan

$$$$
CHEMBL3658769
     RDKit          3D

  0  0  0  0  0  0  0  0  0  0999 V3000
M  V30 BEGIN CTAB
M  V30 COUNTS 54 58 0 0 0
M  V30 BEGIN ATOM
M  V30 1 C 2.257198 -4.784581 6.556129 0
M  V30 2 C 3.544720 -4.371317 5.898547 0
M  V30 3 C 3.616868 -3.251632 5.124660 0
M  V30 4 C 4.738527 -2.777233 4.474925 0
M  V30 5 C 4.737985 -1.564738 3.660119 0
M  V30 6 N 5.668972 -0.594643 3.688788 0
M  V30 7 N 5.374988 0.378792 2.820131 0
M  V30 8 C 4.225028 0.028638 2.215052 0
M  V30 9 C 3.437917 0.639500 1.229604 0
M  V30 10 C 2.279025 0.049416 0.779155 0
M  V30 11 N 1.437797 0.619125 -0.218194 0
M  V30 12 C 0.256870 0.022423 -0.680347 0
M  V30 13 O -0.091125 -1.089567 -0.187749 0
M  V30 14 N -0.544024 0.640685 -1.680859 0
M  V30 15 C -1.751035 -0.009004 -2.126505 0 CFG=2
M  V30 16 C -1.844088 -0.233598 -3.598137 0
M  V30 17 N -3.260851 -0.284948 -3.912562 0
M  V30 18 C -3.976532 0.063762 -2.707752 0 CFG=2
M  V30 19 C -5.228046 0.793702 -2.929318 0
M  V30 20 C -5.591983 1.907531 -2.200549 0
M  V30 21 C -6.781849 2.603832 -2.409173 0
M  V30 22 C -7.645100 2.158549 -3.396748 0
M  V30 23 C -7.280624 1.031001 -4.137214 0
M  V30 24 C -6.094509 0.363016 -3.906266 0
M  V30 25 C -2.981869 0.859165 -1.875008 0
M  V30 26 N 1.915516 -1.133295 1.307953 0
M  V30 27 C 2.637171 -1.760017 2.256227 0
M  V30 28 C 3.787443 -1.183524 2.709503 0
M  V30 29 C 5.876230 -3.569715 4.672000 0
M  V30 30 C 5.830522 -4.710484 5.452258 0
M  V30 31 N 4.686909 -5.100974 6.052069 0
M  V30 32 H 1.440621 -4.568069 5.814659 0
M  V30 33 H 2.212855 -5.847828 6.776324 0
M  V30 34 H 2.046427 -4.119757 7.420991 0
M  V30 35 H 2.678114 -2.692485 5.025726 0
M  V30 36 H 5.846601 1.258711 2.573700 0
M  V30 37 H 3.733588 1.590147 0.807118 0
M  V30 38 H 1.723877 1.551686 -0.635517 0
M  V30 39 H -0.276384 1.556071 -2.100127 0
M  V30 40 H -1.886003 -0.957514 -1.588182 0
M  V30 41 H -1.350074 0.580532 -4.157730 0
M  V30 42 H -1.354433 -1.194018 -3.863915 0
M  V30 43 H -3.541046 0.374210 -4.671398 0
M  V30 44 H -4.215329 -0.854574 -2.148136 0
M  V30 45 H -4.876480 2.207017 -1.443225 0
M  V30 46 H -6.938324 3.472047 -1.753310 0
M  V30 47 H -8.553760 2.722363 -3.527848 0
M  V30 48 H -7.981631 0.713778 -4.900141 0
M  V30 49 H -5.875624 -0.511846 -4.524899 0
M  V30 50 H -2.794206 1.866520 -2.251437 0
M  V30 51 H -3.238215 0.854679 -0.795990 0
M  V30 52 H 2.308572 -2.710178 2.654345 0
M  V30 53 H 6.810230 -3.256407 4.185886 0
M  V30 54 H 6.733531 -5.298401 5.581067 0
M  V30 END ATOM
M  V30 BEGIN BOND
M  V30 1 1 1 2
M  V30 2 2 2 3
M  V30 3 1 3 4
M  V30 4 1 4 5
M  V30 5 2 5 6
M  V30 6 1 6 7
M  V30 7 1 7 8
M  V30 8 2 8 9
M  V30 9 1 9 10
M  V30 10 1 10 11
M  V30 11 1 11 12
M  V30 12 2 12 13
M  V30 13 1 12 14
M  V30 14 1 14 15
M  V30 15 1 15 16
M  V30 16 1 16 17
M  V30 17 1 17 18
M  V30 18 1 18 19
M  V30 19 2 19 20
M  V30 20 1 20 21
M  V30 21 2 21 22
M  V30 22 1 22 23
M  V30 23 2 23 24
M  V30 24 1 18 25
M  V30 25 2 10 26
M  V30 26 1 26 27
M  V30 27 2 27 28
M  V30 28 2 4 29
M  V30 29 1 29 30
M  V30 30 2 30 31
M  V30 31 1 31 2
M  V30 32 1 28 5
M  V30 33 1 28 8
M  V30 34 1 25 15
M  V30 35 1 24 19
M  V30 36 1 1 32
M  V30 37 1 1 33
M  V30 38 1 1 34
M  V30 39 1 3 35
M  V30 40 1 7 36
M  V30 41 1 9 37
M  V30 42 1 11 38
M  V30 43 1 14 39
M  V30 44 1 15 40 CFG=1
M  V30 45 1 16 41
M  V30 46 1 16 42
M  V30 47 1 17 43
M  V30 48 1 18 44 CFG=1
M  V30 49 1 20 45
M  V30 50 1 21 46
M  V30 51 1 22 47
M  V30 52 1 23 48
M  V30 53 1 24 49
M  V30 54 1 25 50
M  V30 55 1 25 51
M  V30 56 1 27 52
M  V30 57 1 29 53
M  V30 58 1 30 54
M  V30 END BOND
M  V30 END CTAB
M  END
>  <Dataset>  (156) 
ChEMBL_Kinases

>  <Ligand_Instance>  (156) 
nan

>  <PDB_ID>  (156) 
nan

>  <Standardized_SMILES>  (156) 
Cc1cc(-c2n[nH]c3cc(NC(=O)N[C@@H]4CN[C@H](c5ccccc5)C4)ncc23)ccn1

>  <Name>  (156) 
nan

>  <Pocket>  (156) 
nan

>  <ATP_Site>  (156) 
nan

>  <Peripheral>  (156) 
nan

>  <Num_H_Atoms_ProtBoundConf>  (156) 
nan

>  <Num_Resolved_Atoms>  (156) 
nan

>  <Num_Not_Resolved_Atoms>  (156) 
nan

$$$$
CHEMBL3658770
     RDKit          3D

  0  0  0  0  0  0  0  0  0  0999 V3000
M  V30 BEGIN CTAB
M  V30 COUNTS 65 68 0 0 0
M  V30 BEGIN ATOM
M  V30 1 C 4.474921 1.436091 6.233279 0
M  V30 2 C 3.420006 2.248767 5.570397 0
M  V30 3 N 3.244389 1.958198 4.146805 0
M  V30 4 C 4.439380 2.454465 3.483353 0
M  V30 5 C 4.430541 3.963769 3.579875 0
M  V30 6 C 3.204853 0.503841 4.077301 0
M  V30 7 C 2.986659 -0.069093 2.734147 0
M  V30 8 C 1.701936 0.272869 2.086589 0
M  V30 9 N 1.557807 -0.332367 0.773179 0
M  V30 10 C 0.572073 -0.086565 -0.204472 0
M  V30 11 O -0.328405 0.749175 0.095238 0
M  V30 12 N 0.647796 -0.786460 -1.438769 0
M  V30 13 C -0.421404 -0.683992 -2.389080 0
M  V30 14 C -0.913278 0.200423 -3.308899 0
M  V30 15 C -1.981178 -0.137086 -4.094688 0
M  V30 16 N -2.628905 0.554760 -5.048296 0
M  V30 17 N -3.626821 -0.190535 -5.554920 0
M  V30 18 C -3.654839 -1.403536 -4.937910 0
M  V30 19 C -4.487015 -2.580390 -5.109424 0
M  V30 20 C -4.718666 -2.939612 -6.446705 0
M  V30 21 C -5.468635 -4.102556 -6.678100 0
M  V30 22 N -5.981029 -4.898592 -5.740374 0
M  V30 23 C -5.744161 -4.535794 -4.440881 0
M  V30 24 C -6.198390 -5.342165 -3.250279 0
M  V30 25 C -5.013138 -3.398180 -4.119568 0
M  V30 26 C -2.630934 -1.350606 -4.035366 0
M  V30 27 C -2.102595 -2.222785 -3.090790 0
M  V30 28 N -1.035782 -1.921002 -2.280461 0
M  V30 29 C 0.533525 -0.351831 2.856758 0
M  V30 30 C 0.538367 -1.720312 3.153513 0
M  V30 31 C -0.567753 -2.223940 3.825895 0
M  V30 32 C -1.648350 -1.457810 4.206766 0
M  V30 33 C -1.650002 -0.094028 3.907493 0
M  V30 34 C -0.553800 0.456399 3.230412 0
M  V30 35 H 5.478994 1.515290 5.800433 0
M  V30 36 H 4.130764 0.394554 6.432031 0
M  V30 37 H 4.586089 1.868969 7.275958 0
M  V30 38 H 2.455514 2.100804 6.094703 0
M  V30 39 H 3.666044 3.325334 5.705450 0
M  V30 40 H 5.382608 2.031747 3.879901 0
M  V30 41 H 4.467815 2.226628 2.394177 0
M  V30 42 H 4.896166 4.421545 2.674562 0
M  V30 43 H 5.094230 4.319012 4.425586 0
M  V30 44 H 3.425231 4.366054 3.792177 0
M  V30 45 H 2.476300 0.163624 4.837900 0
M  V30 46 H 4.196224 0.129958 4.440818 0
M  V30 47 H 3.182259 -1.169242 2.785580 0
M  V30 48 H 3.788721 0.357676 2.069432 0
M  V30 49 H 1.464786 1.322509 2.070889 0
M  V30 50 H 2.291012 -1.053631 0.537812 0
M  V30 51 H 1.417582 -1.453657 -1.672308 0
M  V30 52 H -0.346376 1.100270 -3.283285 0
M  V30 53 H -2.349649 1.534061 -5.318685 0
M  V30 54 H -4.339943 -2.342333 -7.270535 0
M  V30 55 H -5.619486 -4.324209 -7.725391 0
M  V30 56 H -5.210685 -5.607612 -2.750335 0
M  V30 57 H -6.798083 -4.703142 -2.607600 0
M  V30 58 H -6.627837 -6.297402 -3.561401 0
M  V30 59 H -4.871936 -3.124859 -3.099363 0
M  V30 60 H -2.565830 -3.225819 -2.986910 0
M  V30 61 H 1.379074 -2.331457 2.870121 0
M  V30 62 H -0.613028 -3.290185 4.081881 0
M  V30 63 H -2.458636 -1.922664 4.722485 0
M  V30 64 H -2.487505 0.567165 4.191306 0
M  V30 65 H -0.568656 1.523687 3.005385 0
M  V30 END ATOM
M  V30 BEGIN BOND
M  V30 1 1 1 2
M  V30 2 1 2 3
M  V30 3 1 3 4
M  V30 4 1 4 5
M  V30 5 1 3 6
M  V30 6 1 6 7
M  V30 7 1 7 8
M  V30 8 1 8 9
M  V30 9 1 9 10
M  V30 10 2 10 11
M  V30 11 1 10 12
M  V30 12 1 12 13
M  V30 13 2 13 14
M  V30 14 1 14 15
M  V30 15 1 15 16
M  V30 16 1 16 17
M  V30 17 2 17 18
M  V30 18 1 18 19
M  V30 19 2 19 20
M  V30 20 1 20 21
M  V30 21 2 21 22
M  V30 22 1 22 23
M  V30 23 1 23 24
M  V30 24 2 23 25
M  V30 25 1 18 26
M  V30 26 1 26 27
M  V30 27 2 27 28
M  V30 28 1 8 29
M  V30 29 2 29 30
M  V30 30 1 30 31
M  V30 31 2 31 32
M  V30 32 1 32 33
M  V30 33 2 33 34
M  V30 34 1 28 13
M  V30 35 1 34 29
M  V30 36 2 26 15
M  V30 37 1 25 19
M  V30 38 1 1 35
M  V30 39 1 1 36
M  V30 40 1 1 37
M  V30 41 1 2 38
M  V30 42 1 2 39
M  V30 43 1 4 40
M  V30 44 1 4 41
M  V30 45 1 5 42
M  V30 46 1 5 43
M  V30 47 1 5 44
M  V30 48 1 6 45
M  V30 49 1 6 46
M  V30 50 1 7 47
M  V30 51 1 7 48
M  V30 52 1 8 49
M  V30 53 1 9 50
M  V30 54 1 12 51
M  V30 55 1 14 52
M  V30 56 1 16 53
M  V30 57 1 20 54
M  V30 58 1 21 55
M  V30 59 1 24 56
M  V30 60 1 24 57
M  V30 61 1 24 58
M  V30 62 1 25 59
M  V30 63 1 27 60
M  V30 64 1 30 61
M  V30 65 1 31 62
M  V30 66 1 32 63
M  V30 67 1 33 64
M  V30 68 1 34 65
M  V30 END BOND
M  V30 END CTAB
M  END
>  <Dataset>  (157) 
ChEMBL_Kinases

>  <Ligand_Instance>  (157) 
nan

>  <PDB_ID>  (157) 
nan

>  <Standardized_SMILES>  (157) 
CCN(CC)CCC(NC(=O)Nc1cc2[nH]nc(-c3ccnc(C)c3)c2cn1)c1ccccc1

>  <Name>  (157) 
nan

>  <Pocket>  (157) 
nan

>  <ATP_Site>  (157) 
nan

>  <Peripheral>  (157) 
nan

>  <Num_H_Atoms_ProtBoundConf>  (157) 
nan

>  <Num_Resolved_Atoms>  (157) 
nan

>  <Num_Not_Resolved_Atoms>  (157) 
nan

$$$$
CHEMBL3658771
     RDKit          3D

  0  0  0  0  0  0  0  0  0  0999 V3000
M  V30 BEGIN CTAB
M  V30 COUNTS 50 54 0 0 0
M  V30 BEGIN ATOM
M  V30 1 C 2.719096 -7.320928 -2.429210 0
M  V30 2 C 3.105515 -6.043428 -3.075151 0
M  V30 3 C 2.933191 -4.874741 -2.373522 0
M  V30 4 C 3.305129 -3.699348 -3.008151 0
M  V30 5 C 3.194432 -2.367038 -2.419155 0
M  V30 6 N 4.112121 -1.397460 -2.439424 0
M  V30 7 N 3.683970 -0.313694 -1.808347 0
M  V30 8 C 2.444167 -0.604781 -1.368680 0
M  V30 9 C 1.566914 0.186843 -0.653930 0
M  V30 10 C 0.327170 -0.325318 -0.303782 0
M  V30 11 N -0.713104 0.320598 0.425277 0
M  V30 12 C -0.810661 0.253097 1.835867 0
M  V30 13 O 0.026619 -0.386156 2.499782 0
M  V30 14 N -1.903907 0.954149 2.369404 0
M  V30 15 C -2.255417 1.060851 3.784924 0
M  V30 16 C -3.662467 0.517925 3.904350 0
M  V30 17 C -4.535193 1.430241 3.120414 0
M  V30 18 O -5.244510 1.057037 2.151951 0
M  V30 19 N -4.565269 2.804406 3.492793 0
M  V30 20 C -3.378916 3.367943 4.053578 0
M  V30 21 C -3.281447 4.682232 4.456607 0
M  V30 22 C -2.116398 5.187219 4.997298 0
M  V30 23 C -1.045273 4.325743 5.121489 0
M  V30 24 C -1.148571 3.010888 4.716239 0
M  V30 25 C -2.320805 2.495221 4.170026 0
M  V30 26 N 0.023860 -1.594274 -0.680903 0
M  V30 27 C 0.858203 -2.383259 -1.375297 0
M  V30 28 C 2.095704 -1.891393 -1.732649 0
M  V30 29 C 3.816231 -3.768010 -4.280831 0
M  V30 30 C 3.982617 -4.969132 -4.975575 0
M  V30 31 N 3.607427 -6.098948 -4.322106 0
M  V30 32 H 2.180257 -7.143917 -1.474856 0
M  V30 33 H 2.011093 -7.881445 -3.084272 0
M  V30 34 H 3.608733 -7.945984 -2.181206 0
M  V30 35 H 2.534716 -4.794153 -1.374841 0
M  V30 36 H 4.206641 0.596148 -1.675166 0
M  V30 37 H 1.732511 1.191729 -0.321749 0
M  V30 38 H -1.336524 0.815157 -0.263848 0
M  V30 39 H -2.604750 1.489612 1.809626 0
M  V30 40 H -1.541183 0.508058 4.427873 0
M  V30 41 H -3.972387 0.620548 4.972078 0
M  V30 42 H -3.742291 -0.531803 3.572404 0
M  V30 43 H -5.415345 3.404233 3.368707 0
M  V30 44 H -4.177189 5.256488 4.311646 0
M  V30 45 H -2.149788 6.225393 5.277867 0
M  V30 46 H -0.157846 4.771392 5.550548 0
M  V30 47 H -0.207737 2.465451 4.884758 0
M  V30 48 H 0.598885 -3.393030 -1.667312 0
M  V30 49 H 4.128509 -2.899825 -4.841912 0
M  V30 50 H 4.384794 -5.011978 -5.974366 0
M  V30 END ATOM
M  V30 BEGIN BOND
M  V30 1 1 1 2
M  V30 2 2 2 3
M  V30 3 1 3 4
M  V30 4 1 4 5
M  V30 5 2 5 6
M  V30 6 1 6 7
M  V30 7 1 7 8
M  V30 8 2 8 9
M  V30 9 1 9 10
M  V30 10 1 10 11
M  V30 11 1 11 12
M  V30 12 2 12 13
M  V30 13 1 12 14
M  V30 14 1 14 15
M  V30 15 1 15 16
M  V30 16 1 16 17
M  V30 17 2 17 18
M  V30 18 1 17 19
M  V30 19 1 19 20
M  V30 20 2 20 21
M  V30 21 1 21 22
M  V30 22 2 22 23
M  V30 23 1 23 24
M  V30 24 2 24 25
M  V30 25 2 10 26
M  V30 26 1 26 27
M  V30 27 2 27 28
M  V30 28 2 4 29
M  V30 29 1 29 30
M  V30 30 2 30 31
M  V30 31 1 31 2
M  V30 32 1 28 5
M  V30 33 1 28 8
M  V30 34 1 25 15
M  V30 35 1 25 20
M  V30 36 1 1 32
M  V30 37 1 1 33
M  V30 38 1 1 34
M  V30 39 1 3 35
M  V30 40 1 7 36
M  V30 41 1 9 37
M  V30 42 1 11 38
M  V30 43 1 14 39
M  V30 44 1 15 40
M  V30 45 1 16 41
M  V30 46 1 16 42
M  V30 47 1 19 43
M  V30 48 1 21 44
M  V30 49 1 22 45
M  V30 50 1 23 46
M  V30 51 1 24 47
M  V30 52 1 27 48
M  V30 53 1 29 49
M  V30 54 1 30 50
M  V30 END BOND
M  V30 END CTAB
M  END
>  <Dataset>  (158) 
ChEMBL_Kinases

>  <Ligand_Instance>  (158) 
nan

>  <PDB_ID>  (158) 
nan

>  <Standardized_SMILES>  (158) 
Cc1cc(-c2n[nH]c3cc(NC(=O)NC4CC(=O)Nc5ccccc54)ncc23)ccn1

>  <Name>  (158) 
nan

>  <Pocket>  (158) 
nan

>  <ATP_Site>  (158) 
nan

>  <Peripheral>  (158) 
nan

>  <Num_H_Atoms_ProtBoundConf>  (158) 
nan

>  <Num_Resolved_Atoms>  (158) 
nan

>  <Num_Not_Resolved_Atoms>  (158) 
nan

$$$$
CHEMBL3658772
     RDKit          3D

  0  0  0  0  0  0  0  0  0  0999 V3000
M  V30 BEGIN CTAB
M  V30 COUNTS 48 52 0 0 0
M  V30 BEGIN ATOM
M  V30 1 C -3.167422 -5.288585 0.881171 0
M  V30 2 C -1.756429 -5.732010 0.704536 0
M  V30 3 C -0.706922 -4.839643 0.885314 0
M  V30 4 C 0.628701 -5.209098 0.730952 0
M  V30 5 C 1.725819 -4.268175 0.921993 0
M  V30 6 N 2.865130 -4.488632 1.602069 0
M  V30 7 N 3.638590 -3.409548 1.569537 0
M  V30 8 C 2.977121 -2.482234 0.853196 0
M  V30 9 C 3.374174 -1.204553 0.545399 0
M  V30 10 C 2.533569 -0.413825 -0.208993 0
M  V30 11 N 2.703649 0.927461 -0.660194 0
M  V30 12 C 2.210999 1.916132 0.238001 0
M  V30 13 O 1.671477 1.655264 1.334312 0
M  V30 14 N 2.318664 3.281018 -0.090853 0
M  V30 15 C 1.801012 4.283147 0.856004 0
M  V30 16 C 0.340716 4.063321 1.067941 0
M  V30 17 N -0.334954 3.314601 1.959104 0
M  V30 18 C -1.660891 3.430959 1.764238 0
M  V30 19 C -2.745290 2.849821 2.433865 0
M  V30 20 C -4.038567 3.147774 2.017673 0
M  V30 21 C -4.228648 4.008076 0.955629 0
M  V30 22 C -3.138169 4.567439 0.312934 0
M  V30 23 C -1.837764 4.294309 0.698978 0
M  V30 24 N -0.607814 4.663673 0.294664 0
M  V30 25 N 1.336148 -0.923061 -0.625738 0
M  V30 26 C 0.947083 -2.179808 -0.322215 0
M  V30 27 C 1.769709 -2.989278 0.430382 0
M  V30 28 C 0.870993 -6.541731 0.379697 0
M  V30 29 C -0.204255 -7.411759 0.205782 0
M  V30 30 N -1.488454 -7.017838 0.364081 0
M  V30 31 H -3.799863 -6.057596 1.371529 0
M  V30 32 H -3.577549 -4.991404 -0.112475 0
M  V30 33 H -3.161835 -4.373883 1.506663 0
M  V30 34 H -0.958882 -3.837118 1.152691 0
M  V30 35 H 4.592936 -3.306081 2.023310 0
M  V30 36 H 4.281497 -0.704715 0.815333 0
M  V30 37 H 3.144190 1.268485 -1.566113 0
M  V30 38 H 2.751109 3.634642 -0.981701 0
M  V30 39 H 2.327920 4.086004 1.809283 0
M  V30 40 H 2.004473 5.301547 0.504171 0
M  V30 41 H -2.571309 2.174850 3.268092 0
M  V30 42 H -4.909884 2.711881 2.517650 0
M  V30 43 H -5.218035 4.264747 0.602008 0
M  V30 44 H -3.302439 5.250517 -0.530856 0
M  V30 45 H -0.512281 5.323430 -0.510302 0
M  V30 46 H -0.000130 -2.579868 -0.652990 0
M  V30 47 H 1.891772 -6.878140 0.247924 0
M  V30 48 H -0.035643 -8.457732 -0.068950 0
M  V30 END ATOM
M  V30 BEGIN BOND
M  V30 1 1 1 2
M  V30 2 2 2 3
M  V30 3 1 3 4
M  V30 4 1 4 5
M  V30 5 2 5 6
M  V30 6 1 6 7
M  V30 7 1 7 8
M  V30 8 2 8 9
M  V30 9 1 9 10
M  V30 10 1 10 11
M  V30 11 1 11 12
M  V30 12 2 12 13
M  V30 13 1 12 14
M  V30 14 1 14 15
M  V30 15 1 15 16
M  V30 16 2 16 17
M  V30 17 1 17 18
M  V30 18 2 18 19
M  V30 19 1 19 20
M  V30 20 2 20 21
M  V30 21 1 21 22
M  V30 22 2 22 23
M  V30 23 1 23 24
M  V30 24 2 10 25
M  V30 25 1 25 26
M  V30 26 2 26 27
M  V30 27 2 4 28
M  V30 28 1 28 29
M  V30 29 2 29 30
M  V30 30 1 30 2
M  V30 31 1 27 5
M  V30 32 1 27 8
M  V30 33 1 24 16
M  V30 34 1 23 18
M  V30 35 1 1 31
M  V30 36 1 1 32
M  V30 37 1 1 33
M  V30 38 1 3 34
M  V30 39 1 7 35
M  V30 40 1 9 36
M  V30 41 1 11 37
M  V30 42 1 14 38
M  V30 43 1 15 39
M  V30 44 1 15 40
M  V30 45 1 19 41
M  V30 46 1 20 42
M  V30 47 1 21 43
M  V30 48 1 22 44
M  V30 49 1 24 45
M  V30 50 1 26 46
M  V30 51 1 28 47
M  V30 52 1 29 48
M  V30 END BOND
M  V30 END CTAB
M  END
>  <Dataset>  (159) 
ChEMBL_Kinases

>  <Ligand_Instance>  (159) 
nan

>  <PDB_ID>  (159) 
nan

>  <Standardized_SMILES>  (159) 
Cc1cc(-c2n[nH]c3cc(NC(=O)NCc4nc5ccccc5[nH]4)ncc23)ccn1

>  <Name>  (159) 
nan

>  <Pocket>  (159) 
nan

>  <ATP_Site>  (159) 
nan

>  <Peripheral>  (159) 
nan

>  <Num_H_Atoms_ProtBoundConf>  (159) 
nan

>  <Num_Resolved_Atoms>  (159) 
nan

>  <Num_Not_Resolved_Atoms>  (159) 
nan

$$$$
CHEMBL3658773
     RDKit          3D

  0  0  0  0  0  0  0  0  0  0999 V3000
M  V30 BEGIN CTAB
M  V30 COUNTS 57 61 0 0 0
M  V30 BEGIN ATOM
M  V30 1 C 3.264321 -7.972888 2.563405 0
M  V30 2 C 3.578335 -6.849858 1.639361 0
M  V30 3 C 3.634765 -5.536698 2.005019 0
M  V30 4 C 3.929690 -4.509392 1.123976 0
M  V30 5 C 3.966932 -3.131596 1.609964 0
M  V30 6 N 4.563770 -2.715223 2.748036 0
M  V30 7 N 4.416320 -1.390050 2.905272 0
M  V30 8 C 3.710311 -0.977026 1.837031 0
M  V30 9 C 3.302525 0.308928 1.541580 0
M  V30 10 C 2.582092 0.489031 0.377437 0
M  V30 11 N 2.054154 1.703060 -0.143472 0
M  V30 12 C 0.745943 2.108961 0.220496 0
M  V30 13 O 0.130627 1.344263 0.999323 0
M  V30 14 N 0.088292 3.255468 -0.195883 0
M  V30 15 C -1.182083 3.907948 -0.017913 0
M  V30 16 C -2.388542 3.167104 -0.471494 0
M  V30 17 C -3.632440 4.076285 -0.214616 0
M  V30 18 N -4.694061 3.106676 -0.260695 0
M  V30 19 C -4.242880 1.930728 0.370638 0
M  V30 20 C -4.679002 0.729690 -0.417602 0
M  V30 21 C -5.253717 -0.347488 0.250080 0
M  V30 22 C -5.694700 -1.510280 -0.347797 0
M  V30 23 C -5.528141 -1.558724 -1.731942 0
M  V30 24 C -4.956073 -0.503427 -2.451974 0
M  V30 25 C -4.537499 0.631375 -1.781326 0
M  V30 26 C -2.738568 1.983526 0.407688 0
M  V30 27 N 2.295433 -0.559424 -0.429648 0
M  V30 28 C 2.690084 -1.820383 -0.148759 0
M  V30 29 C 3.405205 -2.029767 0.997403 0
M  V30 30 C 4.181445 -4.819051 -0.195820 0
M  V30 31 C 4.118985 -6.150332 -0.542082 0
M  V30 32 N 3.830325 -7.132246 0.331520 0
M  V30 33 H 2.792587 -8.821365 2.047195 0
M  V30 34 H 4.230908 -8.311587 3.017787 0
M  V30 35 H 2.579858 -7.550617 3.342243 0
M  V30 36 H 3.426366 -5.358906 3.059951 0
M  V30 37 H 4.783774 -0.822976 3.701334 0
M  V30 38 H 3.473948 1.213231 2.109361 0
M  V30 39 H 2.590382 2.310481 -0.784741 0
M  V30 40 H 0.745403 3.803037 -0.846773 0
M  V30 41 H -1.335122 4.137102 1.092139 0
M  V30 42 H -1.166331 4.898710 -0.489849 0
M  V30 43 H -2.351148 2.864526 -1.526977 0
M  V30 44 H -3.761713 4.764742 -1.076631 0
M  V30 45 H -3.513485 4.606247 0.727577 0
M  V30 46 H -4.912740 2.932190 -1.263055 0
M  V30 47 H -4.622399 1.825083 1.427177 0
M  V30 48 H -5.381341 -0.300937 1.341781 0
M  V30 49 H -6.130155 -2.308719 0.216657 0
M  V30 50 H -5.856715 -2.451148 -2.263767 0
M  V30 51 H -4.851518 -0.599082 -3.536307 0
M  V30 52 H -4.095813 1.437347 -2.346468 0
M  V30 53 H -2.360864 1.032720 -0.004619 0
M  V30 54 H -2.369170 2.154586 1.448604 0
M  V30 55 H 2.464142 -2.661372 -0.789367 0
M  V30 56 H 4.415714 -4.052172 -0.919142 0
M  V30 57 H 4.305597 -6.484066 -1.570225 0
M  V30 END ATOM
M  V30 BEGIN BOND
M  V30 1 1 1 2
M  V30 2 2 2 3
M  V30 3 1 3 4
M  V30 4 1 4 5
M  V30 5 2 5 6
M  V30 6 1 6 7
M  V30 7 1 7 8
M  V30 8 2 8 9
M  V30 9 1 9 10
M  V30 10 1 10 11
M  V30 11 1 11 12
M  V30 12 2 12 13
M  V30 13 1 12 14
M  V30 14 1 14 15
M  V30 15 1 15 16
M  V30 16 1 16 17
M  V30 17 1 17 18
M  V30 18 1 18 19
M  V30 19 1 19 20
M  V30 20 2 20 21
M  V30 21 1 21 22
M  V30 22 2 22 23
M  V30 23 1 23 24
M  V30 24 2 24 25
M  V30 25 1 19 26
M  V30 26 2 10 27
M  V30 27 1 27 28
M  V30 28 2 28 29
M  V30 29 2 4 30
M  V30 30 1 30 31
M  V30 31 2 31 32
M  V30 32 1 32 2
M  V30 33 1 29 5
M  V30 34 1 29 8
M  V30 35 1 26 16
M  V30 36 1 25 20
M  V30 37 1 1 33
M  V30 38 1 1 34
M  V30 39 1 1 35
M  V30 40 1 3 36
M  V30 41 1 7 37
M  V30 42 1 9 38
M  V30 43 1 11 39
M  V30 44 1 14 40
M  V30 45 1 15 41
M  V30 46 1 15 42
M  V30 47 1 16 43
M  V30 48 1 17 44
M  V30 49 1 17 45
M  V30 50 1 18 46
M  V30 51 1 19 47
M  V30 52 1 21 48
M  V30 53 1 22 49
M  V30 54 1 23 50
M  V30 55 1 24 51
M  V30 56 1 25 52
M  V30 57 1 26 53
M  V30 58 1 26 54
M  V30 59 1 28 55
M  V30 60 1 30 56
M  V30 61 1 31 57
M  V30 END BOND
M  V30 END CTAB
M  END
>  <Dataset>  (160) 
ChEMBL_Kinases

>  <Ligand_Instance>  (160) 
nan

>  <PDB_ID>  (160) 
nan

>  <Standardized_SMILES>  (160) 
Cc1cc(-c2n[nH]c3cc(NC(=O)NCC4CNC(c5ccccc5)C4)ncc23)ccn1

>  <Name>  (160) 
nan

>  <Pocket>  (160) 
nan

>  <ATP_Site>  (160) 
nan

>  <Peripheral>  (160) 
nan

>  <Num_H_Atoms_ProtBoundConf>  (160) 
nan

>  <Num_Resolved_Atoms>  (160) 
nan

>  <Num_Not_Resolved_Atoms>  (160) 
nan

$$$$
CHEMBL3658783
     RDKit          3D

  0  0  0  0  0  0  0  0  0  0999 V3000
M  V30 BEGIN CTAB
M  V30 COUNTS 42 45 0 0 0
M  V30 BEGIN ATOM
M  V30 1 C 0.896645 -5.598506 3.183266 0
M  V30 2 C 1.979146 -5.324599 2.179104 0
M  V30 3 C 1.758154 -4.400953 1.153796 0
M  V30 4 C 2.764276 -4.141458 0.215968 0
M  V30 5 C 2.500474 -3.168341 -0.836730 0
M  V30 6 N 2.743601 -3.243286 -2.162081 0
M  V30 7 N 2.349735 -2.125096 -2.777407 0
M  V30 8 C 1.829907 -1.268030 -1.874305 0
M  V30 9 C 1.279980 -0.005292 -1.900535 0
M  V30 10 C 0.817436 0.646723 -0.783926 0
M  V30 11 N 0.247815 1.950913 -0.793883 0
M  V30 12 C -0.196595 2.517035 0.448612 0
M  V30 13 O -0.064312 1.838671 1.479402 0
M  V30 14 N -0.756527 3.806346 0.432842 0
M  V30 15 C -1.249736 4.512570 1.604523 0
M  V30 16 C -2.565066 3.917491 1.956383 0
M  V30 17 C -2.740822 2.837972 2.827769 0
M  V30 18 N -4.080392 2.606828 2.878010 0
M  V30 19 N -4.730566 3.452271 2.112975 0
M  V30 20 C -3.824425 4.279792 1.525717 0
M  V30 21 N 0.939176 -0.043688 0.363272 0
M  V30 22 C 1.466331 -1.271883 0.437617 0
M  V30 23 C 1.928263 -1.929300 -0.660701 0
M  V30 24 C 3.981802 -4.802924 0.305039 0
M  V30 25 C 4.107112 -5.695328 1.349042 0
M  V30 26 N 3.159994 -5.965814 2.265394 0
M  V30 27 H 0.825345 -6.689448 3.322922 0
M  V30 28 H 1.114003 -5.090872 4.141096 0
M  V30 29 H -0.052793 -5.154701 2.793241 0
M  V30 30 H 0.784138 -3.933059 1.154713 0
M  V30 31 H 2.414157 -1.901807 -3.804984 0
M  V30 32 H 1.204696 0.513479 -2.864930 0
M  V30 33 H 0.173161 2.455632 -1.712078 0
M  V30 34 H -0.833923 4.316854 -0.488358 0
M  V30 35 H -1.293162 5.592135 1.427716 0
M  V30 36 H -0.520893 4.381753 2.456487 0
M  V30 37 H -2.008412 2.261456 3.379384 0
M  V30 38 H -5.776526 3.510286 1.955532 0
M  V30 39 H -3.996433 5.095578 0.834661 0
M  V30 40 H 1.484356 -1.669993 1.441733 0
M  V30 41 H 4.771953 -4.620837 -0.404674 0
M  V30 42 H 5.033819 -6.241114 1.470088 0
M  V30 END ATOM
M  V30 BEGIN BOND
M  V30 1 1 1 2
M  V30 2 2 2 3
M  V30 3 1 3 4
M  V30 4 1 4 5
M  V30 5 2 5 6
M  V30 6 1 6 7
M  V30 7 1 7 8
M  V30 8 2 8 9
M  V30 9 1 9 10
M  V30 10 1 10 11
M  V30 11 1 11 12
M  V30 12 2 12 13
M  V30 13 1 12 14
M  V30 14 1 14 15
M  V30 15 1 15 16
M  V30 16 1 16 17
M  V30 17 2 17 18
M  V30 18 1 18 19
M  V30 19 1 19 20
M  V30 20 2 10 21
M  V30 21 1 21 22
M  V30 22 2 22 23
M  V30 23 2 4 24
M  V30 24 1 24 25
M  V30 25 2 25 26
M  V30 26 1 26 2
M  V30 27 1 23 5
M  V30 28 1 23 8
M  V30 29 2 20 16
M  V30 30 1 1 27
M  V30 31 1 1 28
M  V30 32 1 1 29
M  V30 33 1 3 30
M  V30 34 1 7 31
M  V30 35 1 9 32
M  V30 36 1 11 33
M  V30 37 1 14 34
M  V30 38 1 15 35
M  V30 39 1 15 36
M  V30 40 1 17 37
M  V30 41 1 19 38
M  V30 42 1 20 39
M  V30 43 1 22 40
M  V30 44 1 24 41
M  V30 45 1 25 42
M  V30 END BOND
M  V30 END CTAB
M  END
>  <Dataset>  (161) 
ChEMBL_Kinases

>  <Ligand_Instance>  (161) 
nan

>  <PDB_ID>  (161) 
nan

>  <Standardized_SMILES>  (161) 
Cc1cc(-c2n[nH]c3cc(NC(=O)NCc4cn[nH]c4)ncc23)ccn1

>  <Name>  (161) 
nan

>  <Pocket>  (161) 
nan

>  <ATP_Site>  (161) 
nan

>  <Peripheral>  (161) 
nan

>  <Num_H_Atoms_ProtBoundConf>  (161) 
nan

>  <Num_Resolved_Atoms>  (161) 
nan

>  <Num_Not_Resolved_Atoms>  (161) 
nan

$$$$
CHEMBL3658775
     RDKit          3D

  0  0  0  0  0  0  0  0  0  0999 V3000
M  V30 BEGIN CTAB
M  V30 COUNTS 48 51 0 0 0
M  V30 BEGIN ATOM
M  V30 1 C 2.341751 -6.173825 3.430058 0
M  V30 2 C 1.700196 -6.522565 2.112981 0
M  V30 3 C 1.440100 -5.523338 1.232364 0
M  V30 4 C 0.853842 -5.703064 -0.013371 0
M  V30 5 C 0.573784 -4.626671 -0.961664 0
M  V30 6 N 0.817089 -4.631893 -2.282781 0
M  V30 7 N 0.444567 -3.497197 -2.858937 0
M  V30 8 C -0.055353 -2.741091 -1.863759 0
M  V30 9 C -0.578739 -1.464137 -1.941394 0
M  V30 10 C -1.026900 -0.901801 -0.782807 0
M  V30 11 N -1.609035 0.392058 -0.577418 0
M  V30 12 C -0.603068 1.359289 -0.283667 0
M  V30 13 O 0.667111 1.277352 -0.176695 0
M  V30 14 N -0.980527 2.726079 -0.043578 0
M  V30 15 C -0.108735 3.835051 0.265806 0 CFG=1
M  V30 16 C -0.263398 4.916451 -0.782883 0
M  V30 17 C -0.403783 4.443337 1.580645 0
M  V30 18 C 0.582752 4.774430 2.482316 0
M  V30 19 C 0.294968 5.342534 3.708270 0
M  V30 20 C -1.023561 5.603794 4.079708 0
M  V30 21 F -1.266208 6.163669 5.294512 0
M  V30 22 C -2.036516 5.277403 3.184285 0
M  V30 23 F -3.322993 5.531657 3.545252 0
M  V30 24 C -1.699471 4.711559 1.971379 0
M  V30 25 N -0.962498 -1.562634 0.388637 0
M  V30 26 C -0.461242 -2.808650 0.516143 0
M  V30 27 C 0.004157 -3.406480 -0.655014 0
M  V30 28 C 0.532380 -7.026696 -0.324091 0
M  V30 29 C 0.802390 -8.032264 0.580438 0
M  V30 30 N 1.379327 -7.786610 1.785463 0
M  V30 31 H 3.395970 -5.942537 3.257219 0
M  V30 32 H 2.142150 -6.965377 4.151025 0
M  V30 33 H 1.871603 -5.189898 3.723604 0
M  V30 34 H 1.703719 -4.503334 1.507066 0
M  V30 35 H 0.524934 -3.247006 -3.876427 0
M  V30 36 H -0.682072 -0.846696 -2.799391 0
M  V30 37 H -2.620641 0.672917 -0.618954 0
M  V30 38 H -1.997239 3.037628 -0.079373 0
M  V30 39 H 0.918852 3.424808 0.282400 0
M  V30 40 H 0.683684 5.487956 -0.952046 0
M  V30 41 H -0.612434 4.470595 -1.729030 0
M  V30 42 H -1.083604 5.589299 -0.423862 0
M  V30 43 H 1.615788 4.566951 2.185070 0
M  V30 44 H 1.126728 5.578989 4.372844 0
M  V30 45 H -2.529755 4.469384 1.294234 0
M  V30 46 H -0.401506 -3.352755 1.443954 0
M  V30 47 H 0.073945 -7.286678 -1.261924 0
M  V30 48 H 0.581515 -9.077201 0.408119 0
M  V30 END ATOM
M  V30 BEGIN BOND
M  V30 1 1 1 2
M  V30 2 2 2 3
M  V30 3 1 3 4
M  V30 4 1 4 5
M  V30 5 2 5 6
M  V30 6 1 6 7
M  V30 7 1 7 8
M  V30 8 2 8 9
M  V30 9 1 9 10
M  V30 10 1 10 11
M  V30 11 1 11 12
M  V30 12 2 12 13
M  V30 13 1 12 14
M  V30 14 1 14 15
M  V30 15 1 15 16
M  V30 16 1 15 17
M  V30 17 2 17 18
M  V30 18 1 18 19
M  V30 19 2 19 20
M  V30 20 1 20 21
M  V30 21 1 20 22
M  V30 22 1 22 23
M  V30 23 2 22 24
M  V30 24 2 10 25
M  V30 25 1 25 26
M  V30 26 2 26 27
M  V30 27 2 4 28
M  V30 28 1 28 29
M  V30 29 2 29 30
M  V30 30 1 30 2
M  V30 31 1 27 5
M  V30 32 1 27 8
M  V30 33 1 24 17
M  V30 34 1 1 31
M  V30 35 1 1 32
M  V30 36 1 1 33
M  V30 37 1 3 34
M  V30 38 1 7 35
M  V30 39 1 9 36
M  V30 40 1 11 37
M  V30 41 1 14 38
M  V30 42 1 15 39 CFG=1
M  V30 43 1 16 40
M  V30 44 1 16 41
M  V30 45 1 16 42
M  V30 46 1 18 43
M  V30 47 1 19 44
M  V30 48 1 24 45
M  V30 49 1 26 46
M  V30 50 1 28 47
M  V30 51 1 29 48
M  V30 END BOND
M  V30 END CTAB
M  END
>  <Dataset>  (162) 
ChEMBL_Kinases

>  <Ligand_Instance>  (162) 
nan

>  <PDB_ID>  (162) 
nan

>  <Standardized_SMILES>  (162) 
Cc1cc(-c2n[nH]c3cc(NC(=O)N[C@@H](C)c4ccc(F)c(F)c4)ncc23)ccn1

>  <Name>  (162) 
nan

>  <Pocket>  (162) 
nan

>  <ATP_Site>  (162) 
nan

>  <Peripheral>  (162) 
nan

>  <Num_H_Atoms_ProtBoundConf>  (162) 
nan

>  <Num_Resolved_Atoms>  (162) 
nan

>  <Num_Not_Resolved_Atoms>  (162) 
nan

$$$$
CHEMBL3658776
     RDKit          3D

  0  0  0  0  0  0  0  0  0  0999 V3000
M  V30 BEGIN CTAB
M  V30 COUNTS 48 51 0 0 0
M  V30 BEGIN ATOM
M  V30 1 C -2.290855 -3.781978 -5.803889 0
M  V30 2 C -2.049640 -4.627440 -4.585307 0
M  V30 3 C -1.848299 -4.065876 -3.339083 0
M  V30 4 C -1.623665 -4.834132 -2.199809 0
M  V30 5 C -1.410826 -4.189096 -0.884161 0
M  V30 6 N -1.973324 -4.557137 0.282732 0
M  V30 7 N -1.561181 -3.761635 1.258426 0
M  V30 8 C -0.709983 -2.835552 0.778646 0
M  V30 9 C 0.023803 -1.767295 1.306255 0
M  V30 10 C 0.840167 -0.983742 0.483630 0
M  V30 11 N 1.497251 0.048884 1.209941 0
M  V30 12 C 1.099304 1.385411 1.484443 0
M  V30 13 O -0.009671 1.665937 0.983411 0
M  V30 14 N 1.953967 2.195996 2.249469 0
M  V30 15 C 1.521759 3.554759 2.517668 0 CFG=2
M  V30 16 C 2.500388 4.603324 2.115869 0
M  V30 17 C 1.287267 3.662893 3.982764 0
M  V30 18 C 0.551555 2.561148 4.427194 0
M  V30 19 C 0.192212 2.421437 5.773154 0
M  V30 20 C 0.584486 3.411603 6.677196 0
M  V30 21 F 0.252492 3.311952 8.006909 0
M  V30 22 C 1.318089 4.500736 6.207331 0
M  V30 23 F 1.704511 5.465550 7.064336 0
M  V30 24 C 1.666961 4.631346 4.886832 0
M  V30 25 N 0.912886 -1.273528 -0.841487 0
M  V30 26 C 0.198055 -2.314553 -1.357987 0
M  V30 27 C -0.615757 -3.105814 -0.572255 0
M  V30 28 C -1.610656 -6.224308 -2.376774 0
M  V30 29 C -1.813793 -6.761087 -3.629165 0
M  V30 30 N -2.025173 -5.970874 -4.688825 0
M  V30 31 H -3.379945 -3.759504 -6.068024 0
M  V30 32 H -1.766579 -4.280589 -6.641140 0
M  V30 33 H -1.920599 -2.749230 -5.593147 0
M  V30 34 H -1.875456 -2.992572 -3.296829 0
M  V30 35 H -1.825465 -3.804210 2.267874 0
M  V30 36 H -0.095500 -1.606089 2.389081 0
M  V30 37 H 2.390769 -0.328995 1.556952 0
M  V30 38 H 2.866664 1.871569 2.626411 0
M  V30 39 H 0.549182 3.766920 1.992432 0
M  V30 40 H 2.583265 4.696761 0.992374 0
M  V30 41 H 3.486592 4.499865 2.587733 0
M  V30 42 H 2.083204 5.584352 2.425466 0
M  V30 43 H 0.179833 1.721093 3.857077 0
M  V30 44 H -0.374234 1.598082 6.187077 0
M  V30 45 H 2.217251 5.415847 4.440786 0
M  V30 46 H 0.298109 -2.491589 -2.415184 0
M  V30 47 H -1.433676 -6.830925 -1.477143 0
M  V30 48 H -1.801722 -7.844929 -3.754537 0
M  V30 END ATOM
M  V30 BEGIN BOND
M  V30 1 1 1 2
M  V30 2 2 2 3
M  V30 3 1 3 4
M  V30 4 1 4 5
M  V30 5 2 5 6
M  V30 6 1 6 7
M  V30 7 1 7 8
M  V30 8 2 8 9
M  V30 9 1 9 10
M  V30 10 1 10 11
M  V30 11 1 11 12
M  V30 12 2 12 13
M  V30 13 1 12 14
M  V30 14 1 14 15
M  V30 15 1 15 16
M  V30 16 1 15 17
M  V30 17 2 17 18
M  V30 18 1 18 19
M  V30 19 2 19 20
M  V30 20 1 20 21
M  V30 21 1 20 22
M  V30 22 1 22 23
M  V30 23 2 22 24
M  V30 24 2 10 25
M  V30 25 1 25 26
M  V30 26 2 26 27
M  V30 27 2 4 28
M  V30 28 1 28 29
M  V30 29 2 29 30
M  V30 30 1 30 2
M  V30 31 1 27 5
M  V30 32 1 27 8
M  V30 33 1 24 17
M  V30 34 1 1 31
M  V30 35 1 1 32
M  V30 36 1 1 33
M  V30 37 1 3 34
M  V30 38 1 7 35
M  V30 39 1 9 36
M  V30 40 1 11 37
M  V30 41 1 14 38
M  V30 42 1 15 39 CFG=3
M  V30 43 1 16 40
M  V30 44 1 16 41
M  V30 45 1 16 42
M  V30 46 1 18 43
M  V30 47 1 19 44
M  V30 48 1 24 45
M  V30 49 1 26 46
M  V30 50 1 28 47
M  V30 51 1 29 48
M  V30 END BOND
M  V30 END CTAB
M  END
>  <Dataset>  (163) 
ChEMBL_Kinases

>  <Ligand_Instance>  (163) 
nan

>  <PDB_ID>  (163) 
nan

>  <Standardized_SMILES>  (163) 
Cc1cc(-c2n[nH]c3cc(NC(=O)N[C@H](C)c4ccc(F)c(F)c4)ncc23)ccn1

>  <Name>  (163) 
nan

>  <Pocket>  (163) 
nan

>  <ATP_Site>  (163) 
nan

>  <Peripheral>  (163) 
nan

>  <Num_H_Atoms_ProtBoundConf>  (163) 
nan

>  <Num_Resolved_Atoms>  (163) 
nan

>  <Num_Not_Resolved_Atoms>  (163) 
nan

$$$$
CHEMBL3658777
     RDKit          3D

  0  0  0  0  0  0  0  0  0  0999 V3000
M  V30 BEGIN CTAB
M  V30 COUNTS 51 54 0 0 0
M  V30 BEGIN ATOM
M  V30 1 C 0.366994 -6.334429 -1.497922 0
M  V30 2 C -0.563188 -5.642504 -0.541222 0
M  V30 3 C 0.107925 -4.617233 0.280374 0 CFG=2
M  V30 4 N 0.731638 -3.538824 -0.416607 0
M  V30 5 C 0.382056 -2.198683 -0.228065 0
M  V30 6 O -0.518525 -1.869698 0.583467 0
M  V30 7 N 0.991403 -1.097067 -0.915410 0
M  V30 8 C 0.598699 0.253002 -0.686528 0
M  V30 9 C 1.227213 1.265736 -1.385338 0
M  V30 10 C 0.807212 2.561327 -1.124029 0
M  V30 11 N 1.221134 3.739892 -1.637620 0
M  V30 12 N 0.492770 4.698427 -1.050154 0
M  V30 13 C -0.376779 4.162092 -0.173541 0
M  V30 14 C -1.318852 4.935023 0.634040 0
M  V30 15 C -2.077914 5.962537 0.094026 0
M  V30 16 C -2.974209 6.705127 0.840920 0
M  V30 17 N -3.137947 6.442280 2.149501 0
M  V30 18 C -2.404081 5.445070 2.682657 0
M  V30 19 C -2.631258 5.205656 4.128898 0
M  V30 20 C -1.498338 4.677594 1.978167 0
M  V30 21 C -0.201184 2.793336 -0.196548 0
M  V30 22 C -0.801123 1.757661 0.477656 0
M  V30 23 N -0.376608 0.504087 0.207766 0
M  V30 24 C 1.141827 -5.273638 1.124663 0
M  V30 25 C 0.806661 -5.606806 2.439170 0
M  V30 26 C 1.656199 -6.215008 3.338750 0
M  V30 27 C 2.906330 -6.498897 2.882492 0
M  V30 28 Cl 4.047623 -7.275538 3.973738 0
M  V30 29 C 3.304822 -6.200605 1.604578 0
M  V30 30 C 2.425047 -5.593368 0.738907 0
M  V30 31 H 1.040875 -7.056177 -0.994095 0
M  V30 32 H 1.027167 -5.569993 -1.974206 0
M  V30 33 H -0.175080 -6.929056 -2.263684 0
M  V30 34 H -0.889318 -6.451248 0.178799 0
M  V30 35 H -1.513863 -5.331261 -1.011071 0
M  V30 36 H -0.663690 -4.147780 0.952097 0
M  V30 37 H 1.503879 -3.752399 -1.118630 0
M  V30 38 H 1.746316 -1.320505 -1.601337 0
M  V30 39 H 2.009139 1.066353 -2.102894 0
M  V30 40 H 1.971082 3.856997 -2.357778 0
M  V30 41 H -1.930133 6.158181 -0.964171 0
M  V30 42 H -3.556011 7.501793 0.398811 0
M  V30 43 H -2.473487 6.137437 4.686520 0
M  V30 44 H -2.053462 4.345210 4.522770 0
M  V30 45 H -3.713141 4.947023 4.260041 0
M  V30 46 H -0.947455 3.894249 2.481612 0
M  V30 47 H -1.590216 1.967944 1.200430 0
M  V30 48 H -0.202380 -5.374799 2.799462 0
M  V30 49 H 1.336529 -6.446547 4.341354 0
M  V30 50 H 4.286026 -6.428024 1.259831 0
M  V30 51 H 2.699380 -5.340653 -0.275985 0
M  V30 END ATOM
M  V30 BEGIN BOND
M  V30 1 1 1 2
M  V30 2 1 2 3
M  V30 3 1 3 4
M  V30 4 1 4 5
M  V30 5 2 5 6
M  V30 6 1 5 7
M  V30 7 1 7 8
M  V30 8 2 8 9
M  V30 9 1 9 10
M  V30 10 1 10 11
M  V30 11 1 11 12
M  V30 12 2 12 13
M  V30 13 1 13 14
M  V30 14 2 14 15
M  V30 15 1 15 16
M  V30 16 2 16 17
M  V30 17 1 17 18
M  V30 18 1 18 19
M  V30 19 2 18 20
M  V30 20 1 13 21
M  V30 21 1 21 22
M  V30 22 2 22 23
M  V30 23 1 3 24
M  V30 24 2 24 25
M  V30 25 1 25 26
M  V30 26 2 26 27
M  V30 27 1 27 28
M  V30 28 1 27 29
M  V30 29 2 29 30
M  V30 30 1 23 8
M  V30 31 1 30 24
M  V30 32 2 21 10
M  V30 33 1 20 14
M  V30 34 1 1 31
M  V30 35 1 1 32
M  V30 36 1 1 33
M  V30 37 1 2 34
M  V30 38 1 2 35
M  V30 39 1 3 36 CFG=1
M  V30 40 1 4 37
M  V30 41 1 7 38
M  V30 42 1 9 39
M  V30 43 1 11 40
M  V30 44 1 15 41
M  V30 45 1 16 42
M  V30 46 1 19 43
M  V30 47 1 19 44
M  V30 48 1 19 45
M  V30 49 1 20 46
M  V30 50 1 22 47
M  V30 51 1 25 48
M  V30 52 1 26 49
M  V30 53 1 29 50
M  V30 54 1 30 51
M  V30 END BOND
M  V30 END CTAB
M  END
>  <Dataset>  (164) 
ChEMBL_Kinases

>  <Ligand_Instance>  (164) 
nan

>  <PDB_ID>  (164) 
nan

>  <Standardized_SMILES>  (164) 
CC[C@H](NC(=O)Nc1cc2[nH]nc(-c3ccnc(C)c3)c2cn1)c1ccc(Cl)cc1

>  <Name>  (164) 
nan

>  <Pocket>  (164) 
nan

>  <ATP_Site>  (164) 
nan

>  <Peripheral>  (164) 
nan

>  <Num_H_Atoms_ProtBoundConf>  (164) 
nan

>  <Num_Resolved_Atoms>  (164) 
nan

>  <Num_Not_Resolved_Atoms>  (164) 
nan

$$$$
CHEMBL3658778
     RDKit          3D

  0  0  0  0  0  0  0  0  0  0999 V3000
M  V30 BEGIN CTAB
M  V30 COUNTS 51 54 0 0 0
M  V30 BEGIN ATOM
M  V30 1 C -0.522001 -6.388087 -1.481704 0
M  V30 2 C -0.720930 -5.491150 -0.277228 0
M  V30 3 C 0.472622 -4.567122 -0.200438 0 CFG=1
M  V30 4 N 0.378222 -3.658663 0.929791 0
M  V30 5 C 0.363613 -2.277544 0.623601 0
M  V30 6 O 0.424955 -1.777640 -0.530323 0
M  V30 7 N 0.271039 -1.319625 1.699756 0
M  V30 8 C 0.245982 0.098212 1.534521 0
M  V30 9 C 1.350417 0.938306 1.510625 0
M  V30 10 C 1.137550 2.300457 1.339162 0
M  V30 11 N 2.030314 3.307006 1.281709 0
M  V30 12 N 1.341203 4.446902 1.104275 0
M  V30 13 C 0.012134 4.135212 1.052409 0
M  V30 14 C -1.066631 5.102987 0.868777 0
M  V30 15 C -0.969818 6.100720 -0.092578 0
M  V30 16 C -1.932563 7.043749 -0.327782 0
M  V30 17 N -3.047542 7.033603 0.393672 0
M  V30 18 C -3.195574 6.086200 1.342364 0
M  V30 19 C -4.410280 6.003630 2.192694 0
M  V30 20 C -2.241242 5.119877 1.603917 0
M  V30 21 C -0.159547 2.773752 1.198611 0
M  V30 22 C -1.242599 1.918925 1.225669 0
M  V30 23 N -0.995815 0.603398 1.393965 0
M  V30 24 C 1.676830 -5.414854 0.009116 0
M  V30 25 C 1.789236 -5.902177 1.287824 0
M  V30 26 C 2.881627 -6.713726 1.612023 0
M  V30 27 C 3.831638 -7.016092 0.649848 0
M  V30 28 Cl 5.232796 -8.022227 0.959163 0
M  V30 29 C 3.716170 -6.520887 -0.647089 0
M  V30 30 C 2.626635 -5.728154 -0.918930 0
M  V30 31 H 0.217821 -6.012697 -2.190637 0
M  V30 32 H -1.471044 -6.509774 -2.058773 0
M  V30 33 H -0.247191 -7.436262 -1.193819 0
M  V30 34 H -0.756710 -6.180526 0.606743 0
M  V30 35 H -1.651077 -4.942018 -0.424365 0
M  V30 36 H 0.515125 -3.976181 -1.115337 0
M  V30 37 H 0.321593 -3.937869 1.927034 0
M  V30 38 H 0.213414 -1.589699 2.706711 0
M  V30 39 H 2.306208 0.465315 1.628625 0
M  V30 40 H 3.072785 3.233860 1.359150 0
M  V30 41 H -0.064231 6.120620 -0.689108 0
M  V30 42 H -1.773689 7.789222 -1.101415 0
M  V30 43 H -4.252583 6.252485 3.241126 0
M  V30 44 H -4.850235 4.976440 2.063997 0
M  V30 45 H -5.161745 6.700686 1.748632 0
M  V30 46 H -2.365502 4.364454 2.364279 0
M  V30 47 H -2.241297 2.320037 1.113235 0
M  V30 48 H 1.162107 -5.780941 2.164490 0
M  V30 49 H 3.087900 -7.162630 2.585003 0
M  V30 50 H 4.410724 -6.708719 -1.453220 0
M  V30 51 H 2.496888 -5.327493 -1.895114 0
M  V30 END ATOM
M  V30 BEGIN BOND
M  V30 1 1 1 2
M  V30 2 1 2 3
M  V30 3 1 3 4
M  V30 4 1 4 5
M  V30 5 2 5 6
M  V30 6 1 5 7
M  V30 7 1 7 8
M  V30 8 2 8 9
M  V30 9 1 9 10
M  V30 10 1 10 11
M  V30 11 1 11 12
M  V30 12 2 12 13
M  V30 13 1 13 14
M  V30 14 2 14 15
M  V30 15 1 15 16
M  V30 16 2 16 17
M  V30 17 1 17 18
M  V30 18 1 18 19
M  V30 19 2 18 20
M  V30 20 1 13 21
M  V30 21 1 21 22
M  V30 22 2 22 23
M  V30 23 1 3 24
M  V30 24 2 24 25
M  V30 25 1 25 26
M  V30 26 2 26 27
M  V30 27 1 27 28
M  V30 28 1 27 29
M  V30 29 2 29 30
M  V30 30 1 23 8
M  V30 31 1 30 24
M  V30 32 2 21 10
M  V30 33 1 20 14
M  V30 34 1 1 31
M  V30 35 1 1 32
M  V30 36 1 1 33
M  V30 37 1 2 34
M  V30 38 1 2 35
M  V30 39 1 3 36 CFG=3
M  V30 40 1 4 37
M  V30 41 1 7 38
M  V30 42 1 9 39
M  V30 43 1 11 40
M  V30 44 1 15 41
M  V30 45 1 16 42
M  V30 46 1 19 43
M  V30 47 1 19 44
M  V30 48 1 19 45
M  V30 49 1 20 46
M  V30 50 1 22 47
M  V30 51 1 25 48
M  V30 52 1 26 49
M  V30 53 1 29 50
M  V30 54 1 30 51
M  V30 END BOND
M  V30 END CTAB
M  END
>  <Dataset>  (165) 
ChEMBL_Kinases

>  <Ligand_Instance>  (165) 
nan

>  <PDB_ID>  (165) 
nan

>  <Standardized_SMILES>  (165) 
CC[C@@H](NC(=O)Nc1cc2[nH]nc(-c3ccnc(C)c3)c2cn1)c1ccc(Cl)cc1

>  <Name>  (165) 
nan

>  <Pocket>  (165) 
nan

>  <ATP_Site>  (165) 
nan

>  <Peripheral>  (165) 
nan

>  <Num_H_Atoms_ProtBoundConf>  (165) 
nan

>  <Num_Resolved_Atoms>  (165) 
nan

>  <Num_Not_Resolved_Atoms>  (165) 
nan

$$$$
CHEMBL3658779
     RDKit          3D

  0  0  0  0  0  0  0  0  0  0999 V3000
M  V30 BEGIN CTAB
M  V30 COUNTS 51 54 0 0 0
M  V30 BEGIN ATOM
M  V30 1 C 3.283911 -3.316459 -3.750254 0
M  V30 2 O 2.679359 -3.230212 -2.516135 0
M  V30 3 C 3.159186 -4.135196 -1.593275 0
M  V30 4 C 2.391488 -3.905691 -0.299366 0 CFG=2
M  V30 5 N 2.594506 -2.540589 0.182214 0
M  V30 6 C 1.514916 -1.617116 0.263004 0
M  V30 7 O 0.361306 -2.014216 -0.097420 0
M  V30 8 N 1.710451 -0.272611 0.736420 0
M  V30 9 C 0.545550 0.547308 0.766695 0
M  V30 10 C 0.273558 1.274804 -0.373747 0
M  V30 11 C -0.831759 2.100379 -0.446809 0
M  V30 12 N -1.368540 2.917570 -1.373288 0
M  V30 13 N -2.466927 3.482001 -0.897875 0
M  V30 14 C -2.704662 3.066635 0.355611 0
M  V30 15 C -3.826136 3.466019 1.219749 0
M  V30 16 C -5.033461 3.453436 0.543382 0
M  V30 17 C -6.178988 3.814374 1.255168 0
M  V30 18 N -6.079266 4.159013 2.558315 0
M  V30 19 C -4.890440 4.161404 3.187957 0
M  V30 20 C -4.722990 4.536114 4.635773 0
M  V30 21 C -3.711366 3.813664 2.541643 0
M  V30 22 C -1.677621 2.186460 0.665429 0
M  V30 23 C -1.380563 1.447083 1.792874 0
M  V30 24 N -0.286274 0.646232 1.829945 0
M  V30 25 C 2.850144 -4.815061 0.772059 0
M  V30 26 C 3.641447 -5.909205 0.462958 0
M  V30 27 C 4.082436 -6.774402 1.452202 0
M  V30 28 C 3.708723 -6.515547 2.770773 0
M  V30 29 C 2.915944 -5.402965 3.005917 0
M  V30 30 N 2.480965 -4.551440 2.038630 0
M  V30 31 H 3.176883 -4.299003 -4.253534 0
M  V30 32 H 4.368286 -3.147158 -3.626340 0
M  V30 33 H 2.875038 -2.519079 -4.392943 0
M  V30 34 H 4.252262 -4.081882 -1.461500 0
M  V30 35 H 2.870614 -5.150385 -1.938932 0
M  V30 36 H 1.328487 -4.059767 -0.562365 0
M  V30 37 H 3.558179 -2.257973 0.467521 0
M  V30 38 H 2.682053 0.037286 1.032033 0
M  V30 39 H 0.896092 1.243711 -1.261486 0
M  V30 40 H -0.957909 3.062164 -2.312302 0
M  V30 41 H -5.182655 3.189583 -0.492307 0
M  V30 42 H -7.188870 3.856024 0.878776 0
M  V30 43 H -4.037024 5.384637 4.744224 0
M  V30 44 H -5.687324 4.639322 5.144069 0
M  V30 45 H -4.202883 3.643489 5.091418 0
M  V30 46 H -2.736399 3.791528 2.970652 0
M  V30 47 H -2.028927 1.505044 2.662595 0
M  V30 48 H 3.954772 -6.151690 -0.526820 0
M  V30 49 H 4.695197 -7.632014 1.259935 0
M  V30 50 H 3.997412 -7.122212 3.601342 0
M  V30 51 H 2.579522 -5.130118 4.012071 0
M  V30 END ATOM
M  V30 BEGIN BOND
M  V30 1 1 1 2
M  V30 2 1 2 3
M  V30 3 1 3 4
M  V30 4 1 4 5
M  V30 5 1 5 6
M  V30 6 2 6 7
M  V30 7 1 6 8
M  V30 8 1 8 9
M  V30 9 2 9 10
M  V30 10 1 10 11
M  V30 11 1 11 12
M  V30 12 1 12 13
M  V30 13 2 13 14
M  V30 14 1 14 15
M  V30 15 2 15 16
M  V30 16 1 16 17
M  V30 17 2 17 18
M  V30 18 1 18 19
M  V30 19 1 19 20
M  V30 20 2 19 21
M  V30 21 1 14 22
M  V30 22 1 22 23
M  V30 23 2 23 24
M  V30 24 1 4 25
M  V30 25 2 25 26
M  V30 26 1 26 27
M  V30 27 2 27 28
M  V30 28 1 28 29
M  V30 29 2 29 30
M  V30 30 1 24 9
M  V30 31 1 30 25
M  V30 32 2 22 11
M  V30 33 1 21 15
M  V30 34 1 1 31
M  V30 35 1 1 32
M  V30 36 1 1 33
M  V30 37 1 3 34
M  V30 38 1 3 35
M  V30 39 1 4 36 CFG=3
M  V30 40 1 5 37
M  V30 41 1 8 38
M  V30 42 1 10 39
M  V30 43 1 12 40
M  V30 44 1 16 41
M  V30 45 1 17 42
M  V30 46 1 20 43
M  V30 47 1 20 44
M  V30 48 1 20 45
M  V30 49 1 21 46
M  V30 50 1 23 47
M  V30 51 1 26 48
M  V30 52 1 27 49
M  V30 53 1 28 50
M  V30 54 1 29 51
M  V30 END BOND
M  V30 END CTAB
M  END
>  <Dataset>  (166) 
ChEMBL_Kinases

>  <Ligand_Instance>  (166) 
nan

>  <PDB_ID>  (166) 
nan

>  <Standardized_SMILES>  (166) 
COC[C@H](NC(=O)Nc1cc2[nH]nc(-c3ccnc(C)c3)c2cn1)c1ccccn1

>  <Name>  (166) 
nan

>  <Pocket>  (166) 
nan

>  <ATP_Site>  (166) 
nan

>  <Peripheral>  (166) 
nan

>  <Num_H_Atoms_ProtBoundConf>  (166) 
nan

>  <Num_Resolved_Atoms>  (166) 
nan

>  <Num_Not_Resolved_Atoms>  (166) 
nan

$$$$
CHEMBL3658780
     RDKit          3D

  0  0  0  0  0  0  0  0  0  0999 V3000
M  V30 BEGIN CTAB
M  V30 COUNTS 51 54 0 0 0
M  V30 BEGIN ATOM
M  V30 1 C 3.185606 -4.973907 -2.704366 0
M  V30 2 O 4.202642 -4.960084 -1.815217 0
M  V30 3 C 4.314708 -3.959260 -0.939897 0
M  V30 4 C 3.304845 -3.680101 0.097311 0 CFG=1
M  V30 5 N 1.977493 -3.338471 -0.245313 0
M  V30 6 C 1.478281 -2.038008 0.115755 0
M  V30 7 O 2.249028 -1.248588 0.727031 0
M  V30 8 N 0.213472 -1.460318 -0.104883 0
M  V30 9 C -0.332929 -0.201947 0.221242 0
M  V30 10 C 0.292985 0.828092 0.880622 0
M  V30 11 C -0.281682 2.043935 1.178319 0
M  V30 12 N 0.134692 3.161948 1.797891 0
M  V30 13 N -0.873325 4.028972 1.791314 0
M  V30 14 C -1.959942 3.505607 1.174944 0
M  V30 15 C -3.255950 4.143353 0.967356 0
M  V30 16 C -3.900569 4.078097 -0.251330 0
M  V30 17 C -5.119873 4.719130 -0.326143 0
M  V30 18 N -5.720404 5.389976 0.673041 0
M  V30 19 C -5.085821 5.446553 1.850335 0
M  V30 20 C -5.678612 6.160222 2.986446 0
M  V30 21 C -3.850891 4.828270 2.016494 0
M  V30 22 C -1.588487 2.226876 0.776561 0
M  V30 23 C -2.234098 1.206917 0.114214 0
M  V30 24 N -1.604918 0.050475 -0.138721 0
M  V30 25 C 3.234162 -4.891373 0.999110 0
M  V30 26 C 2.406136 -5.968856 0.780547 0
M  V30 27 C 2.347988 -7.071970 1.602615 0
M  V30 28 C 3.160769 -7.116069 2.715339 0
M  V30 29 C 3.988231 -6.040661 2.935049 0
M  V30 30 N 4.015916 -4.982786 2.109395 0
M  V30 31 H 2.211517 -5.035922 -2.215624 0
M  V30 32 H 3.173080 -3.954667 -3.207320 0
M  V30 33 H 3.309151 -5.765772 -3.487116 0
M  V30 34 H 5.286442 -4.154531 -0.346526 0
M  V30 35 H 4.605161 -3.018674 -1.511491 0
M  V30 36 H 3.666640 -2.865944 0.799729 0
M  V30 37 H 1.166194 -3.796722 -0.714664 0
M  V30 38 H -0.404959 -2.130855 -0.610895 0
M  V30 39 H 1.293738 0.724055 1.203362 0
M  V30 40 H 1.082377 3.318634 2.210179 0
M  V30 41 H -3.474163 3.555653 -1.096607 0
M  V30 42 H -5.652487 4.685217 -1.274656 0
M  V30 43 H -6.113447 5.470617 3.723436 0
M  V30 44 H -4.967124 6.904739 3.442032 0
M  V30 45 H -6.538884 6.788803 2.617758 0
M  V30 46 H -3.307236 4.853430 2.957105 0
M  V30 47 H -3.259546 1.340153 -0.204981 0
M  V30 48 H 1.756776 -5.963920 -0.078954 0
M  V30 49 H 1.679706 -7.888657 1.382931 0
M  V30 50 H 3.085626 -7.995108 3.332263 0
M  V30 51 H 4.629687 -6.083257 3.819641 0
M  V30 END ATOM
M  V30 BEGIN BOND
M  V30 1 1 1 2
M  V30 2 1 2 3
M  V30 3 1 3 4
M  V30 4 1 4 5
M  V30 5 1 5 6
M  V30 6 2 6 7
M  V30 7 1 6 8
M  V30 8 1 8 9
M  V30 9 2 9 10
M  V30 10 1 10 11
M  V30 11 1 11 12
M  V30 12 1 12 13
M  V30 13 2 13 14
M  V30 14 1 14 15
M  V30 15 2 15 16
M  V30 16 1 16 17
M  V30 17 2 17 18
M  V30 18 1 18 19
M  V30 19 1 19 20
M  V30 20 2 19 21
M  V30 21 1 14 22
M  V30 22 1 22 23
M  V30 23 2 23 24
M  V30 24 1 4 25
M  V30 25 2 25 26
M  V30 26 1 26 27
M  V30 27 2 27 28
M  V30 28 1 28 29
M  V30 29 2 29 30
M  V30 30 1 24 9
M  V30 31 1 30 25
M  V30 32 2 22 11
M  V30 33 1 21 15
M  V30 34 1 1 31
M  V30 35 1 1 32
M  V30 36 1 1 33
M  V30 37 1 3 34
M  V30 38 1 3 35
M  V30 39 1 4 36 CFG=1
M  V30 40 1 5 37
M  V30 41 1 8 38
M  V30 42 1 10 39
M  V30 43 1 12 40
M  V30 44 1 16 41
M  V30 45 1 17 42
M  V30 46 1 20 43
M  V30 47 1 20 44
M  V30 48 1 20 45
M  V30 49 1 21 46
M  V30 50 1 23 47
M  V30 51 1 26 48
M  V30 52 1 27 49
M  V30 53 1 28 50
M  V30 54 1 29 51
M  V30 END BOND
M  V30 END CTAB
M  END
>  <Dataset>  (167) 
ChEMBL_Kinases

>  <Ligand_Instance>  (167) 
nan

>  <PDB_ID>  (167) 
nan

>  <Standardized_SMILES>  (167) 
COC[C@@H](NC(=O)Nc1cc2[nH]nc(-c3ccnc(C)c3)c2cn1)c1ccccn1

>  <Name>  (167) 
nan

>  <Pocket>  (167) 
nan

>  <ATP_Site>  (167) 
nan

>  <Peripheral>  (167) 
nan

>  <Num_H_Atoms_ProtBoundConf>  (167) 
nan

>  <Num_Resolved_Atoms>  (167) 
nan

>  <Num_Not_Resolved_Atoms>  (167) 
nan

$$$$
CHEMBL3658781
     RDKit          3D

  0  0  0  0  0  0  0  0  0  0999 V3000
M  V30 BEGIN CTAB
M  V30 COUNTS 44 47 0 0 0
M  V30 BEGIN ATOM
M  V30 1 C -0.278193 -7.690709 1.374982 0
M  V30 2 C -0.415857 -6.566695 0.437718 0
M  V30 3 C 0.546834 -5.560961 0.353915 0
M  V30 4 C 0.412594 -4.505725 -0.528068 0
M  V30 5 C 1.404810 -3.441969 -0.637392 0
M  V30 6 N 2.748229 -3.561804 -0.703316 0
M  V30 7 N 3.326999 -2.366206 -0.795584 0
M  V30 8 C 2.327596 -1.465059 -0.788142 0
M  V30 9 C 2.452356 -0.092928 -0.864336 0
M  V30 10 C 1.293884 0.658509 -0.839643 0
M  V30 11 N 1.111105 2.070323 -0.901664 0
M  V30 12 C 1.094587 2.797982 0.315651 0
M  V30 13 O 1.242175 2.162601 1.374902 0
M  V30 14 N 0.925329 4.174941 0.421903 0
M  V30 15 C 0.854677 5.175681 1.456282 0
M  V30 16 C -0.264612 5.004772 2.357271 0
M  V30 17 S -1.698172 5.994378 1.996993 0
M  V30 18 C -2.698461 5.277461 3.445349 0
M  V30 19 N -1.917012 4.550670 3.868803 0
M  V30 20 C -0.690526 4.309799 3.446129 0
M  V30 21 C 0.223683 3.350233 4.111543 0
M  V30 22 N 0.089295 0.024978 -0.742438 0
M  V30 23 C -0.027209 -1.313989 -0.668450 0
M  V30 24 C 1.103993 -2.094428 -0.690233 0
M  V30 25 C -0.691633 -4.457143 -1.330709 0
M  V30 26 C -1.645677 -5.467704 -1.237270 0
M  V30 27 N -1.487450 -6.479471 -0.371097 0
M  V30 28 H 0.081750 -8.595520 0.845134 0
M  V30 29 H -1.286066 -7.961839 1.799373 0
M  V30 30 H 0.417046 -7.471726 2.209662 0
M  V30 31 H 1.414704 -5.576106 0.967519 0
M  V30 32 H 4.360476 -2.185165 -0.860507 0
M  V30 33 H 3.323703 0.509222 -0.942074 0
M  V30 34 H 0.990677 2.577419 -1.791293 0
M  V30 35 H 0.814164 4.604731 -0.551804 0
M  V30 36 H 1.781353 4.998731 2.080485 0
M  V30 37 H 0.974681 6.175976 1.051111 0
M  V30 38 H -3.722906 5.550491 3.711838 0
M  V30 39 H 0.105430 3.339889 5.233371 0
M  V30 40 H 1.295634 3.571942 3.944992 0
M  V30 41 H -0.039024 2.314432 3.801213 0
M  V30 42 H -0.986803 -1.805804 -0.590591 0
M  V30 43 H -0.915898 -3.692278 -2.059974 0
M  V30 44 H -2.554381 -5.512752 -1.833967 0
M  V30 END ATOM
M  V30 BEGIN BOND
M  V30 1 1 1 2
M  V30 2 2 2 3
M  V30 3 1 3 4
M  V30 4 1 4 5
M  V30 5 2 5 6
M  V30 6 1 6 7
M  V30 7 1 7 8
M  V30 8 2 8 9
M  V30 9 1 9 10
M  V30 10 1 10 11
M  V30 11 1 11 12
M  V30 12 2 12 13
M  V30 13 1 12 14
M  V30 14 1 14 15
M  V30 15 1 15 16
M  V30 16 1 16 17
M  V30 17 1 17 18
M  V30 18 2 18 19
M  V30 19 1 19 20
M  V30 20 1 20 21
M  V30 21 2 10 22
M  V30 22 1 22 23
M  V30 23 2 23 24
M  V30 24 2 4 25
M  V30 25 1 25 26
M  V30 26 2 26 27
M  V30 27 1 27 2
M  V30 28 1 24 5
M  V30 29 1 24 8
M  V30 30 2 20 16
M  V30 31 1 1 28
M  V30 32 1 1 29
M  V30 33 1 1 30
M  V30 34 1 3 31
M  V30 35 1 7 32
M  V30 36 1 9 33
M  V30 37 1 11 34
M  V30 38 1 14 35
M  V30 39 1 15 36
M  V30 40 1 15 37
M  V30 41 1 18 38
M  V30 42 1 21 39
M  V30 43 1 21 40
M  V30 44 1 21 41
M  V30 45 1 23 42
M  V30 46 1 25 43
M  V30 47 1 26 44
M  V30 END BOND
M  V30 END CTAB
M  END
>  <Dataset>  (168) 
ChEMBL_Kinases

>  <Ligand_Instance>  (168) 
nan

>  <PDB_ID>  (168) 
nan

>  <Standardized_SMILES>  (168) 
Cc1cc(-c2n[nH]c3cc(NC(=O)NCc4scnc4C)ncc23)ccn1

>  <Name>  (168) 
nan

>  <Pocket>  (168) 
nan

>  <ATP_Site>  (168) 
nan

>  <Peripheral>  (168) 
nan

>  <Num_H_Atoms_ProtBoundConf>  (168) 
nan

>  <Num_Resolved_Atoms>  (168) 
nan

>  <Num_Not_Resolved_Atoms>  (168) 
nan

$$$$
CHEMBL3658782
     RDKit          3D

  0  0  0  0  0  0  0  0  0  0999 V3000
M  V30 BEGIN CTAB
M  V30 COUNTS 42 45 0 0 0
M  V30 BEGIN ATOM
M  V30 1 C 0.602019 -5.917225 2.702874 0
M  V30 2 C 1.341721 -5.700071 1.409542 0
M  V30 3 C 1.610352 -4.416217 0.926896 0
M  V30 4 C 2.283117 -4.191142 -0.249625 0
M  V30 5 C 2.524861 -2.832541 -0.686501 0
M  V30 6 N 3.706798 -2.394812 -1.161267 0
M  V30 7 N 3.621861 -1.104530 -1.480758 0
M  V30 8 C 2.369779 -0.702394 -1.209564 0
M  V30 9 C 1.801548 0.545867 -1.371668 0
M  V30 10 C 0.464705 0.642029 -0.993136 0
M  V30 11 N -0.289012 1.849866 -1.087746 0
M  V30 12 C -0.227578 2.653886 0.085927 0
M  V30 13 O 0.424604 2.340134 1.114222 0
M  V30 14 N -0.911031 3.884469 0.173217 0
M  V30 15 C -0.893957 4.757665 1.341177 0
M  V30 16 C -1.791081 4.178508 2.394561 0
M  V30 17 C -1.554466 3.297256 3.423439 0
M  V30 18 C -2.712207 3.065943 4.129523 0
M  V30 19 N -3.650117 3.814081 3.519350 0
M  V30 20 N -3.109318 4.476239 2.489519 0
M  V30 21 N -0.212928 -0.409826 -0.506717 0
M  V30 22 C 0.327940 -1.630443 -0.343656 0
M  V30 23 C 1.650792 -1.767962 -0.706989 0
M  V30 24 C 2.702870 -5.300614 -0.970220 0
M  V30 25 C 2.429949 -6.582288 -0.480240 0
M  V30 26 N 1.758433 -6.759195 0.693721 0
M  V30 27 H 0.145474 -4.934033 3.012121 0
M  V30 28 H 1.280634 -6.223517 3.525305 0
M  V30 29 H -0.222885 -6.647143 2.573304 0
M  V30 30 H 1.233655 -3.632641 1.576924 0
M  V30 31 H 4.419639 -0.527140 -1.876423 0
M  V30 32 H 2.297340 1.425722 -1.757049 0
M  V30 33 H -0.875063 2.230137 -1.884407 0
M  V30 34 H -1.478582 4.203498 -0.664636 0
M  V30 35 H 0.165395 4.739968 1.729757 0
M  V30 36 H -1.173413 5.773962 1.073737 0
M  V30 37 H -0.590423 2.874801 3.613066 0
M  V30 38 H -2.744763 2.402196 4.979909 0
M  V30 39 H -4.639497 3.821518 3.863193 0
M  V30 40 H -0.210803 -2.481023 0.046652 0
M  V30 41 H 3.233884 -5.149080 -1.898604 0
M  V30 42 H 2.754646 -7.466456 -1.037022 0
M  V30 END ATOM
M  V30 BEGIN BOND
M  V30 1 1 1 2
M  V30 2 2 2 3
M  V30 3 1 3 4
M  V30 4 1 4 5
M  V30 5 2 5 6
M  V30 6 1 6 7
M  V30 7 1 7 8
M  V30 8 2 8 9
M  V30 9 1 9 10
M  V30 10 1 10 11
M  V30 11 1 11 12
M  V30 12 2 12 13
M  V30 13 1 12 14
M  V30 14 1 14 15
M  V30 15 1 15 16
M  V30 16 1 16 17
M  V30 17 2 17 18
M  V30 18 1 18 19
M  V30 19 1 19 20
M  V30 20 2 10 21
M  V30 21 1 21 22
M  V30 22 2 22 23
M  V30 23 2 4 24
M  V30 24 1 24 25
M  V30 25 2 25 26
M  V30 26 1 26 2
M  V30 27 1 23 5
M  V30 28 1 23 8
M  V30 29 2 20 16
M  V30 30 1 1 27
M  V30 31 1 1 28
M  V30 32 1 1 29
M  V30 33 1 3 30
M  V30 34 1 7 31
M  V30 35 1 9 32
M  V30 36 1 11 33
M  V30 37 1 14 34
M  V30 38 1 15 35
M  V30 39 1 15 36
M  V30 40 1 17 37
M  V30 41 1 18 38
M  V30 42 1 19 39
M  V30 43 1 22 40
M  V30 44 1 24 41
M  V30 45 1 25 42
M  V30 END BOND
M  V30 END CTAB
M  END
>  <Dataset>  (169) 
ChEMBL_Kinases

>  <Ligand_Instance>  (169) 
nan

>  <PDB_ID>  (169) 
nan

>  <Standardized_SMILES>  (169) 
Cc1cc(-c2n[nH]c3cc(NC(=O)NCc4cc[nH]n4)ncc23)ccn1

>  <Name>  (169) 
nan

>  <Pocket>  (169) 
nan

>  <ATP_Site>  (169) 
nan

>  <Peripheral>  (169) 
nan

>  <Num_H_Atoms_ProtBoundConf>  (169) 
nan

>  <Num_Resolved_Atoms>  (169) 
nan

>  <Num_Not_Resolved_Atoms>  (169) 
nan

$$$$
CHEMBL3658774
     RDKit          3D

  0  0  0  0  0  0  0  0  0  0999 V3000
M  V30 BEGIN CTAB
M  V30 COUNTS 60 64 0 0 0
M  V30 BEGIN ATOM
M  V30 1 C 6.180300 -5.483672 4.370073 0
M  V30 2 C 5.386783 -4.591144 5.271603 0
M  V30 3 C 5.083429 -3.335305 4.793663 0
M  V30 4 C 4.352234 -2.523781 5.634309 0
M  V30 5 C 3.934734 -1.158036 5.304432 0
M  V30 6 N 4.005441 -0.068544 6.091429 0
M  V30 7 N 3.531819 1.008025 5.455163 0
M  V30 8 C 3.154026 0.579225 4.234595 0
M  V30 9 C 2.601778 1.315694 3.205056 0
M  V30 10 C 2.290527 0.656084 2.029361 0
M  V30 11 N 1.717027 1.177494 0.824985 0
M  V30 12 C 0.332952 1.226466 0.598900 0
M  V30 13 O -0.371569 0.771076 1.551187 0
M  V30 14 N -0.275475 1.734900 -0.582883 0
M  V30 15 C -1.722378 1.665946 -0.552807 0
M  V30 16 C -2.348515 2.210787 -1.822934 0
M  V30 17 C -3.841095 2.078637 -1.656307 0
M  V30 18 C -4.238147 1.041820 -2.675199 0
M  V30 19 N -3.060515 0.418282 -3.184830 0
M  V30 20 C -3.229379 -0.006707 -4.557747 0
M  V30 21 C -4.313217 -1.000598 -4.703264 0
M  V30 22 C -3.842559 -2.305659 -4.544942 0
M  V30 23 C -4.692464 -3.406510 -4.644053 0
M  V30 24 C -6.038092 -3.208737 -4.905748 0
M  V30 25 C -6.494341 -1.914569 -5.060766 0
M  V30 26 C -5.653403 -0.827241 -4.962763 0
M  V30 27 C -1.973676 1.363428 -3.024151 0
M  V30 28 N 2.525256 -0.665426 1.908444 0
M  V30 29 C 3.063824 -1.406892 2.899725 0
M  V30 30 C 3.383568 -0.773572 4.082960 0
M  V30 31 C 3.965291 -2.971428 6.867516 0
M  V30 32 C 4.276557 -4.224930 7.326035 0
M  V30 33 N 4.998568 -5.030491 6.500087 0
M  V30 34 H 7.218383 -5.055697 4.263060 0
M  V30 35 H 6.237769 -6.510156 4.731645 0
M  V30 36 H 5.730906 -5.380231 3.342552 0
M  V30 37 H 5.370507 -2.956747 3.836310 0
M  V30 38 H 3.460135 1.991664 5.813895 0
M  V30 39 H 2.371704 2.351799 3.179892 0
M  V30 40 H 2.319344 1.549225 0.049779 0
M  V30 41 H 0.403833 2.084111 -1.300733 0
M  V30 42 H -2.155989 2.227139 0.285744 0
M  V30 43 H -1.978670 0.586359 -0.441098 0
M  V30 44 H -2.006208 3.258577 -1.922698 0
M  V30 45 H -4.365651 3.047453 -1.839137 0
M  V30 46 H -4.131085 1.774033 -0.630492 0
M  V30 47 H -4.906947 0.309336 -2.155493 0
M  V30 48 H -4.800570 1.588848 -3.488333 0
M  V30 49 H -2.279032 -0.343546 -5.003686 0
M  V30 50 H -3.542207 0.869467 -5.191103 0
M  V30 51 H -2.805966 -2.595002 -4.335837 0
M  V30 52 H -4.356599 -4.428055 -4.527054 0
M  V30 53 H -6.753964 -4.015515 -4.994947 0
M  V30 54 H -7.539358 -1.667273 -5.269157 0
M  V30 55 H -5.931685 0.200355 -5.071481 0
M  V30 56 H -1.940256 2.022026 -3.898924 0
M  V30 57 H -0.993287 0.888093 -2.907569 0
M  V30 58 H 3.252239 -2.463627 2.803280 0
M  V30 59 H 3.388949 -2.376929 7.569844 0
M  V30 60 H 4.001095 -4.645295 8.295480 0
M  V30 END ATOM
M  V30 BEGIN BOND
M  V30 1 1 1 2
M  V30 2 2 2 3
M  V30 3 1 3 4
M  V30 4 1 4 5
M  V30 5 2 5 6
M  V30 6 1 6 7
M  V30 7 1 7 8
M  V30 8 2 8 9
M  V30 9 1 9 10
M  V30 10 1 10 11
M  V30 11 1 11 12
M  V30 12 2 12 13
M  V30 13 1 12 14
M  V30 14 1 14 15
M  V30 15 1 15 16
M  V30 16 1 16 17
M  V30 17 1 17 18
M  V30 18 1 18 19
M  V30 19 1 19 20
M  V30 20 1 20 21
M  V30 21 2 21 22
M  V30 22 1 22 23
M  V30 23 2 23 24
M  V30 24 1 24 25
M  V30 25 2 25 26
M  V30 26 1 19 27
M  V30 27 2 10 28
M  V30 28 1 28 29
M  V30 29 2 29 30
M  V30 30 2 4 31
M  V30 31 1 31 32
M  V30 32 2 32 33
M  V30 33 1 33 2
M  V30 34 1 30 5
M  V30 35 1 30 8
M  V30 36 1 27 16
M  V30 37 1 26 21
M  V30 38 1 1 34
M  V30 39 1 1 35
M  V30 40 1 1 36
M  V30 41 1 3 37
M  V30 42 1 7 38
M  V30 43 1 9 39
M  V30 44 1 11 40
M  V30 45 1 14 41
M  V30 46 1 15 42
M  V30 47 1 15 43
M  V30 48 1 16 44
M  V30 49 1 17 45
M  V30 50 1 17 46
M  V30 51 1 18 47
M  V30 52 1 18 48
M  V30 53 1 20 49
M  V30 54 1 20 50
M  V30 55 1 22 51
M  V30 56 1 23 52
M  V30 57 1 24 53
M  V30 58 1 25 54
M  V30 59 1 26 55
M  V30 60 1 27 56
M  V30 61 1 27 57
M  V30 62 1 29 58
M  V30 63 1 31 59
M  V30 64 1 32 60
M  V30 END BOND
M  V30 END CTAB
M  END
>  <Dataset>  (170) 
ChEMBL_Kinases

>  <Ligand_Instance>  (170) 
nan

>  <PDB_ID>  (170) 
nan

>  <Standardized_SMILES>  (170) 
Cc1cc(-c2n[nH]c3cc(NC(=O)NCC4CCN(Cc5ccccc5)C4)ncc23)ccn1

>  <Name>  (170) 
nan

>  <Pocket>  (170) 
nan

>  <ATP_Site>  (170) 
nan

>  <Peripheral>  (170) 
nan

>  <Num_H_Atoms_ProtBoundConf>  (170) 
nan

>  <Num_Resolved_Atoms>  (170) 
nan

>  <Num_Not_Resolved_Atoms>  (170) 
nan

$$$$
CHEMBL3654793
     RDKit          3D

  0  0  0  0  0  0  0  0  0  0999 V3000
M  V30 BEGIN CTAB
M  V30 COUNTS 43 46 0 0 0
M  V30 BEGIN ATOM
M  V30 1 C 1.463010 -4.556173 3.216517 0
M  V30 2 C 0.406499 -3.689850 2.571987 0 CFG=1
M  V30 3 N 0.828797 -3.258558 1.236680 0
M  V30 4 C 0.978095 -1.865601 1.010807 0
M  V30 5 O 0.747731 -1.035263 1.952939 0
M  V30 6 N 1.379238 -1.297419 -0.230326 0
M  V30 7 C 1.515975 0.110921 -0.412618 0
M  V30 8 C 1.911071 0.608587 -1.660282 0
M  V30 9 C 2.010617 1.984410 -1.725997 0
M  V30 10 N 2.355775 2.860674 -2.696805 0
M  V30 11 N 2.291902 4.112932 -2.214901 0
M  V30 12 C 1.906170 4.097537 -0.926052 0
M  V30 13 C 1.729587 5.381093 -0.201130 0
M  V30 14 C 0.737334 6.367762 -0.625423 0
M  V30 15 C 0.340297 5.522107 0.500795 0
M  V30 16 F -0.536624 4.465935 0.306448 0
M  V30 17 F 0.320656 6.045429 1.765730 0
M  V30 18 C 1.732605 2.764659 -0.624239 0
M  V30 19 C 1.347408 2.243948 0.589213 0
M  V30 20 N 1.248079 0.903083 0.660213 0
M  V30 21 C -0.890909 -4.396930 2.508476 0
M  V30 22 C -1.187905 -5.582201 3.173113 0
M  V30 23 C -2.448686 -6.121306 3.010529 0
M  V30 24 C -3.453285 -5.566704 2.227146 0
M  V30 25 F -4.669355 -6.155638 2.116026 0
M  V30 26 C -3.155520 -4.375275 1.558637 0
M  V30 27 C -1.892033 -3.851926 1.732874 0
M  V30 28 H 1.110093 -4.757523 4.252242 0
M  V30 29 H 1.634285 -5.517193 2.708619 0
M  V30 30 H 2.417667 -3.988270 3.239988 0
M  V30 31 H 0.275986 -2.808422 3.231333 0
M  V30 32 H 1.018763 -3.927551 0.465083 0
M  V30 33 H 1.574846 -1.960700 -1.021961 0
M  V30 34 H 2.120459 -0.007479 -2.497925 0
M  V30 35 H 2.630738 2.576912 -3.681636 0
M  V30 36 H 2.566550 5.629940 0.485905 0
M  V30 37 H 0.959776 7.441267 -0.375645 0
M  V30 38 H 0.278992 6.291149 -1.626368 0
M  V30 39 H 1.138169 2.834900 1.467789 0
M  V30 40 H -0.423410 -6.012508 3.774613 0
M  V30 41 H -2.703629 -7.056350 3.525766 0
M  V30 42 H -3.907291 -3.917617 0.944039 0
M  V30 43 H -1.733558 -2.916169 1.176594 0
M  V30 END ATOM
M  V30 BEGIN BOND
M  V30 1 1 1 2
M  V30 2 1 2 3
M  V30 3 1 3 4
M  V30 4 2 4 5
M  V30 5 1 4 6
M  V30 6 1 6 7
M  V30 7 2 7 8
M  V30 8 1 8 9
M  V30 9 1 9 10
M  V30 10 1 10 11
M  V30 11 2 11 12
M  V30 12 1 12 13
M  V30 13 1 13 14
M  V30 14 1 14 15
M  V30 15 1 15 16
M  V30 16 1 15 17
M  V30 17 1 12 18
M  V30 18 1 18 19
M  V30 19 2 19 20
M  V30 20 1 2 21
M  V30 21 2 21 22
M  V30 22 1 22 23
M  V30 23 2 23 24
M  V30 24 1 24 25
M  V30 25 1 24 26
M  V30 26 2 26 27
M  V30 27 1 20 7
M  V30 28 1 27 21
M  V30 29 2 18 9
M  V30 30 1 15 13
M  V30 31 1 1 28
M  V30 32 1 1 29
M  V30 33 1 1 30
M  V30 34 1 2 31 CFG=1
M  V30 35 1 3 32
M  V30 36 1 6 33
M  V30 37 1 8 34
M  V30 38 1 10 35
M  V30 39 1 13 36
M  V30 40 1 14 37
M  V30 41 1 14 38
M  V30 42 1 19 39
M  V30 43 1 22 40
M  V30 44 1 23 41
M  V30 45 1 26 42
M  V30 46 1 27 43
M  V30 END BOND
M  V30 END CTAB
M  END
>  <Dataset>  (171) 
ChEMBL_Kinases

>  <Ligand_Instance>  (171) 
nan

>  <PDB_ID>  (171) 
nan

>  <Standardized_SMILES>  (171) 
C[C@@H](NC(=O)Nc1cc2[nH]nc(C3CC3(F)F)c2cn1)c1ccc(F)cc1

>  <Name>  (171) 
nan

>  <Pocket>  (171) 
nan

>  <ATP_Site>  (171) 
nan

>  <Peripheral>  (171) 
nan

>  <Num_H_Atoms_ProtBoundConf>  (171) 
nan

>  <Num_Resolved_Atoms>  (171) 
nan

>  <Num_Not_Resolved_Atoms>  (171) 
nan

$$$$
CHEMBL3654792
     RDKit          3D

  0  0  0  0  0  0  0  0  0  0999 V3000
M  V30 BEGIN CTAB
M  V30 COUNTS 43 46 0 0 0
M  V30 BEGIN ATOM
M  V30 1 C 2.045556 -4.897660 1.223398 0
M  V30 2 C 0.809570 -4.051094 1.436044 0 CFG=1
M  V30 3 N 0.654239 -3.029500 0.441512 0
M  V30 4 C 0.713230 -1.638480 0.522955 0
M  V30 5 O 0.946030 -1.162214 1.679243 0
M  V30 6 N 0.524017 -0.811638 -0.619032 0
M  V30 7 C 0.604640 0.600037 -0.426290 0
M  V30 8 C 1.893869 1.120439 -0.586713 0
M  V30 9 C 2.105346 2.478183 -0.425715 0
M  V30 10 N 3.107662 3.376000 -0.484825 0
M  V30 11 N 2.642776 4.604340 -0.221790 0
M  V30 12 C 1.300566 4.550014 0.022271 0
M  V30 13 C 0.665884 5.845917 0.359785 0
M  V30 14 C 0.984096 6.532369 1.669009 0
M  V30 15 C -0.386491 5.944592 1.422589 0
M  V30 16 F -1.444899 6.831660 1.237585 0
M  V30 17 F -0.686195 4.944708 2.291007 0
M  V30 18 C 0.983740 3.216077 -0.110506 0
M  V30 19 C -0.292902 2.725845 0.051389 0
M  V30 20 N -0.449434 1.392825 -0.116003 0
M  V30 21 C -0.371562 -4.909357 1.606284 0
M  V30 22 C -0.994716 -5.374440 0.464987 0
M  V30 23 C -2.115039 -6.189199 0.560877 0
M  V30 24 C -2.581418 -6.516204 1.823589 0
M  V30 25 C -1.984329 -6.070005 2.974365 0
M  V30 26 C -0.873664 -5.262589 2.847154 0
M  V30 27 H 2.181345 -5.216619 0.177000 0
M  V30 28 H 1.894041 -5.837377 1.802302 0
M  V30 29 H 2.938946 -4.406974 1.660220 0
M  V30 30 H 1.009140 -3.503581 2.403740 0
M  V30 31 H 0.460694 -3.439540 -0.517443 0
M  V30 32 H 0.332643 -1.230397 -1.565023 0
M  V30 33 H 2.763697 0.531583 -0.833336 0
M  V30 34 H 4.084941 3.087564 -0.709180 0
M  V30 35 H 0.529390 6.568536 -0.474876 0
M  V30 36 H 1.696099 6.026980 2.353805 0
M  V30 37 H 1.017262 7.622597 1.724749 0
M  V30 38 H -1.157733 3.324711 0.287817 0
M  V30 39 H -0.700364 -5.170353 -0.563067 0
M  V30 40 H -2.707056 -6.628057 -0.223728 0
M  V30 41 H -3.457453 -7.152242 2.005604 0
M  V30 42 H -2.335177 -6.315582 3.966607 0
M  V30 43 H -0.376019 -4.891256 3.750429 0
M  V30 END ATOM
M  V30 BEGIN BOND
M  V30 1 1 1 2
M  V30 2 1 2 3
M  V30 3 1 3 4
M  V30 4 2 4 5
M  V30 5 1 4 6
M  V30 6 1 6 7
M  V30 7 2 7 8
M  V30 8 1 8 9
M  V30 9 1 9 10
M  V30 10 1 10 11
M  V30 11 2 11 12
M  V30 12 1 12 13
M  V30 13 1 13 14
M  V30 14 1 14 15
M  V30 15 1 15 16
M  V30 16 1 15 17
M  V30 17 1 12 18
M  V30 18 1 18 19
M  V30 19 2 19 20
M  V30 20 1 2 21
M  V30 21 2 21 22
M  V30 22 1 22 23
M  V30 23 2 23 24
M  V30 24 1 24 25
M  V30 25 2 25 26
M  V30 26 1 20 7
M  V30 27 1 26 21
M  V30 28 2 18 9
M  V30 29 1 15 13
M  V30 30 1 1 27
M  V30 31 1 1 28
M  V30 32 1 1 29
M  V30 33 1 2 30 CFG=1
M  V30 34 1 3 31
M  V30 35 1 6 32
M  V30 36 1 8 33
M  V30 37 1 10 34
M  V30 38 1 13 35
M  V30 39 1 14 36
M  V30 40 1 14 37
M  V30 41 1 19 38
M  V30 42 1 22 39
M  V30 43 1 23 40
M  V30 44 1 24 41
M  V30 45 1 25 42
M  V30 46 1 26 43
M  V30 END BOND
M  V30 END CTAB
M  END
>  <Dataset>  (172) 
ChEMBL_Kinases

>  <Ligand_Instance>  (172) 
nan

>  <PDB_ID>  (172) 
nan

>  <Standardized_SMILES>  (172) 
C[C@@H](NC(=O)Nc1cc2[nH]nc(C3CC3(F)F)c2cn1)c1ccccc1

>  <Name>  (172) 
nan

>  <Pocket>  (172) 
nan

>  <ATP_Site>  (172) 
nan

>  <Peripheral>  (172) 
nan

>  <Num_H_Atoms_ProtBoundConf>  (172) 
nan

>  <Num_Resolved_Atoms>  (172) 
nan

>  <Num_Not_Resolved_Atoms>  (172) 
nan

$$$$
CHEMBL3654791
     RDKit          3D

  0  0  0  0  0  0  0  0  0  0999 V3000
M  V30 BEGIN CTAB
M  V30 COUNTS 47 50 0 0 0
M  V30 BEGIN ATOM
M  V30 1 C -0.846356 -5.738461 3.864467 0
M  V30 2 O -1.135705 -5.026997 2.701133 0
M  V30 3 C -0.097208 -4.189865 2.329762 0
M  V30 4 C -0.453219 -3.438482 1.064551 0 CFG=1
M  V30 5 N 0.692746 -2.580660 0.743212 0
M  V30 6 C 0.595770 -1.152096 0.769731 0
M  V30 7 O -0.532892 -0.693457 1.085641 0
M  V30 8 N 1.726416 -0.356191 0.452699 0
M  V30 9 C 1.504221 1.048648 0.514305 0
M  V30 10 C 1.071319 1.835561 -0.552110 0
M  V30 11 C 0.896001 3.190598 -0.353523 0
M  V30 12 N 0.489981 4.129574 -1.231450 0
M  V30 13 N 0.455156 5.327056 -0.627255 0
M  V30 14 C 0.843865 5.167570 0.663098 0
M  V30 15 C 1.013917 6.074427 1.821700 0
M  V30 16 C -0.067601 6.364610 2.776826 0
M  V30 17 C 0.187209 7.374963 1.715911 0
M  V30 18 F -0.691773 7.485059 0.652994 0
M  V30 19 F 0.904648 8.531029 2.008819 0
M  V30 20 C 1.126641 3.832264 0.860038 0
M  V30 21 C 1.558438 2.987675 1.887401 0
M  V30 22 N 1.727594 1.667951 1.688314 0
M  V30 23 C -0.802524 -4.327541 -0.046270 0
M  V30 24 C -2.088752 -4.584503 -0.530751 0
M  V30 25 C -2.317697 -5.441359 -1.586477 0
M  V30 26 C -1.288376 -6.090101 -2.219964 0
M  V30 27 C 0.007596 -5.856899 -1.762537 0
M  V30 28 C 0.212209 -4.990950 -0.699299 0
M  V30 29 H 0.047949 -6.376061 3.755352 0
M  V30 30 H -1.731484 -6.364521 4.101615 0
M  V30 31 H -0.714748 -5.021148 4.709831 0
M  V30 32 H 0.854127 -4.705516 2.146245 0
M  V30 33 H 0.049131 -3.412422 3.130035 0
M  V30 34 H -1.310150 -2.759516 1.304123 0
M  V30 35 H 1.607455 -3.034497 0.487230 0
M  V30 36 H 2.643640 -0.767831 0.195986 0
M  V30 37 H 0.894736 1.346593 -1.479844 0
M  V30 38 H 0.216817 4.058013 -2.249941 0
M  V30 39 H 2.071225 6.189543 2.143371 0
M  V30 40 H -1.035000 5.830551 2.757476 0
M  V30 41 H 0.248282 6.605140 3.824805 0
M  V30 42 H 1.742517 3.473948 2.840244 0
M  V30 43 H -2.880064 -4.044549 0.005527 0
M  V30 44 H -3.376704 -5.538880 -1.849057 0
M  V30 45 H -1.519793 -6.744177 -3.033666 0
M  V30 46 H 0.834092 -6.358457 -2.248064 0
M  V30 47 H 1.256433 -4.869907 -0.410635 0
M  V30 END ATOM
M  V30 BEGIN BOND
M  V30 1 1 1 2
M  V30 2 1 2 3
M  V30 3 1 3 4
M  V30 4 1 4 5
M  V30 5 1 5 6
M  V30 6 2 6 7
M  V30 7 1 6 8
M  V30 8 1 8 9
M  V30 9 2 9 10
M  V30 10 1 10 11
M  V30 11 1 11 12
M  V30 12 1 12 13
M  V30 13 2 13 14
M  V30 14 1 14 15
M  V30 15 1 15 16
M  V30 16 1 16 17
M  V30 17 1 17 18
M  V30 18 1 17 19
M  V30 19 1 14 20
M  V30 20 1 20 21
M  V30 21 2 21 22
M  V30 22 1 4 23
M  V30 23 2 23 24
M  V30 24 1 24 25
M  V30 25 2 25 26
M  V30 26 1 26 27
M  V30 27 2 27 28
M  V30 28 1 22 9
M  V30 29 1 28 23
M  V30 30 2 20 11
M  V30 31 1 17 15
M  V30 32 1 1 29
M  V30 33 1 1 30
M  V30 34 1 1 31
M  V30 35 1 3 32
M  V30 36 1 3 33
M  V30 37 1 4 34 CFG=1
M  V30 38 1 5 35
M  V30 39 1 8 36
M  V30 40 1 10 37
M  V30 41 1 12 38
M  V30 42 1 15 39
M  V30 43 1 16 40
M  V30 44 1 16 41
M  V30 45 1 21 42
M  V30 46 1 24 43
M  V30 47 1 25 44
M  V30 48 1 26 45
M  V30 49 1 27 46
M  V30 50 1 28 47
M  V30 END BOND
M  V30 END CTAB
M  END
>  <Dataset>  (173) 
ChEMBL_Kinases

>  <Ligand_Instance>  (173) 
nan

>  <PDB_ID>  (173) 
nan

>  <Standardized_SMILES>  (173) 
COC[C@@H](NC(=O)Nc1cc2[nH]nc(C3CC3(F)F)c2cn1)c1ccccc1

>  <Name>  (173) 
nan

>  <Pocket>  (173) 
nan

>  <ATP_Site>  (173) 
nan

>  <Peripheral>  (173) 
nan

>  <Num_H_Atoms_ProtBoundConf>  (173) 
nan

>  <Num_Resolved_Atoms>  (173) 
nan

>  <Num_Not_Resolved_Atoms>  (173) 
nan

$$$$
CHEMBL3654790
     RDKit          3D

  0  0  0  0  0  0  0  0  0  0999 V3000
M  V30 BEGIN CTAB
M  V30 COUNTS 47 50 0 0 0
M  V30 BEGIN ATOM
M  V30 1 C 0.810533 -5.006024 0.455610 0
M  V30 2 O 0.189378 -4.734495 -0.736571 0
M  V30 3 C -1.173018 -4.616312 -0.656982 0
M  V30 4 C -1.649378 -3.531656 0.246419 0 CFG=1
M  V30 5 N -1.114930 -2.268565 -0.260909 0
M  V30 6 C -0.237115 -1.306062 0.303525 0
M  V30 7 O 0.165565 -1.580578 1.462453 0
M  V30 8 N 0.074176 -0.170512 -0.494578 0
M  V30 9 C 0.973513 0.760727 0.152698 0
M  V30 10 C 2.349935 0.683182 0.042166 0
M  V30 11 C 3.127617 1.629231 0.705055 0
M  V30 12 N 4.482696 1.774110 0.758335 0
M  V30 13 N 4.723529 2.828173 1.521321 0
M  V30 14 C 3.576062 3.374170 1.966188 0
M  V30 15 C 3.399493 4.571640 2.850531 0
M  V30 16 C 3.276157 5.898738 2.213281 0
M  V30 17 C 4.507530 5.520351 3.031896 0
M  V30 18 C 2.520702 2.624238 1.457847 0
M  V30 19 C 1.156576 2.671808 1.545935 0
M  V30 20 N 0.409555 1.745268 0.896146 0
M  V30 21 C -3.124951 -3.450840 0.331698 0
M  V30 22 C -3.525427 -2.238557 0.903920 0
M  V30 23 C -4.884963 -1.959440 1.076933 0
M  V30 24 C -5.801600 -2.904729 0.670750 0
M  V30 25 C -5.411072 -4.118347 0.098234 0
M  V30 26 C -4.064988 -4.371923 -0.062562 0
M  V30 27 H 0.392058 -5.984116 0.834893 0
M  V30 28 H 1.909470 -5.180892 0.337159 0
M  V30 29 H 0.699878 -4.269421 1.249837 0
M  V30 30 H -1.575422 -5.615896 -0.405674 0
M  V30 31 H -1.534518 -4.430053 -1.710614 0
M  V30 32 H -1.247856 -3.695851 1.262124 0
M  V30 33 H -1.508706 -2.140545 -1.217659 0
M  V30 34 H -0.313494 -0.018063 -1.469750 0
M  V30 35 H 2.765129 -0.122122 -0.564129 0
M  V30 36 H 5.198696 1.165796 0.284630 0
M  V30 37 H 2.717436 4.412658 3.725900 0
M  V30 38 H 3.517940 6.068531 1.149268 0
M  V30 39 H 2.610841 6.657933 2.660451 0
M  V30 40 H 4.648112 5.980339 4.025474 0
M  V30 41 H 5.452326 5.285555 2.505880 0
M  V30 42 H 0.717634 3.461752 2.141918 0
M  V30 43 H -2.879278 -1.439596 1.251409 0
M  V30 44 H -5.231745 -1.034292 1.514971 0
M  V30 45 H -6.862385 -2.733500 0.784284 0
M  V30 46 H -6.062043 -4.892488 -0.237659 0
M  V30 47 H -3.579561 -5.243595 -0.480458 0
M  V30 END ATOM
M  V30 BEGIN BOND
M  V30 1 1 1 2
M  V30 2 1 2 3
M  V30 3 1 3 4
M  V30 4 1 4 5
M  V30 5 1 5 6
M  V30 6 2 6 7
M  V30 7 1 6 8
M  V30 8 1 8 9
M  V30 9 2 9 10
M  V30 10 1 10 11
M  V30 11 1 11 12
M  V30 12 1 12 13
M  V30 13 2 13 14
M  V30 14 1 14 15
M  V30 15 1 15 16
M  V30 16 1 16 17
M  V30 17 1 14 18
M  V30 18 1 18 19
M  V30 19 2 19 20
M  V30 20 1 4 21
M  V30 21 2 21 22
M  V30 22 1 22 23
M  V30 23 2 23 24
M  V30 24 1 24 25
M  V30 25 2 25 26
M  V30 26 1 20 9
M  V30 27 1 26 21
M  V30 28 2 18 11
M  V30 29 1 17 15
M  V30 30 1 1 27
M  V30 31 1 1 28
M  V30 32 1 1 29
M  V30 33 1 3 30
M  V30 34 1 3 31
M  V30 35 1 4 32 CFG=1
M  V30 36 1 5 33
M  V30 37 1 8 34
M  V30 38 1 10 35
M  V30 39 1 12 36
M  V30 40 1 15 37
M  V30 41 1 16 38
M  V30 42 1 16 39
M  V30 43 1 17 40
M  V30 44 1 17 41
M  V30 45 1 19 42
M  V30 46 1 22 43
M  V30 47 1 23 44
M  V30 48 1 24 45
M  V30 49 1 25 46
M  V30 50 1 26 47
M  V30 END BOND
M  V30 END CTAB
M  END
>  <Dataset>  (174) 
ChEMBL_Kinases

>  <Ligand_Instance>  (174) 
nan

>  <PDB_ID>  (174) 
nan

>  <Standardized_SMILES>  (174) 
COC[C@@H](NC(=O)Nc1cc2[nH]nc(C3CC3)c2cn1)c1ccccc1

>  <Name>  (174) 
nan

>  <Pocket>  (174) 
nan

>  <ATP_Site>  (174) 
nan

>  <Peripheral>  (174) 
nan

>  <Num_H_Atoms_ProtBoundConf>  (174) 
nan

>  <Num_Resolved_Atoms>  (174) 
nan

>  <Num_Not_Resolved_Atoms>  (174) 
nan

$$$$
CHEMBL3654789
     RDKit          3D

  0  0  0  0  0  0  0  0  0  0999 V3000
M  V30 BEGIN CTAB
M  V30 COUNTS 46 49 0 0 0
M  V30 BEGIN ATOM
M  V30 1 C 0.097136 -4.055986 4.352807 0
M  V30 2 C -0.720720 -3.635179 3.131914 0 CFG=1
M  V30 3 N 0.252161 -3.362402 2.072264 0
M  V30 4 C 0.396539 -2.019141 1.596319 0
M  V30 5 O -0.324108 -1.120290 2.111954 0
M  V30 6 N 1.349799 -1.772238 0.563006 0
M  V30 7 C 1.413656 -0.407303 0.164009 0
M  V30 8 C 2.307464 0.403164 0.835605 0
M  V30 9 C 2.444953 1.739036 0.524178 0
M  V30 10 N 3.141369 2.818333 0.910535 0
M  V30 11 N 2.816024 3.878471 0.209283 0
M  V30 12 C 1.854454 3.595394 -0.727058 0
M  V30 13 C 1.412961 4.669380 -1.625836 0
M  V30 14 C 1.990180 6.068667 -1.366674 0
M  V30 15 C -0.027802 4.685267 -2.072403 0
M  V30 16 C 1.072771 4.442621 -3.067070 0
M  V30 17 F 1.389887 5.493072 -3.945439 0
M  V30 18 F 1.109141 3.244427 -3.682216 0
M  V30 19 C 1.665911 2.258372 -0.481757 0
M  V30 20 C 0.779222 1.450546 -1.145209 0
M  V30 21 N 0.663603 0.152857 -0.823723 0
M  V30 22 C -1.685413 -4.673305 2.755077 0
M  V30 23 C -2.144374 -5.753935 3.481047 0
M  V30 24 C -3.057740 -6.637720 2.971334 0
M  V30 25 C -3.562550 -6.485095 1.700495 0
M  V30 26 F -4.463383 -7.412728 1.284147 0
M  V30 27 C -3.121881 -5.408090 0.942600 0
M  V30 28 C -2.193750 -4.517936 1.472770 0
M  V30 29 H 0.221604 -5.136183 4.433364 0
M  V30 30 H -0.376216 -3.688963 5.293817 0
M  V30 31 H 1.125695 -3.619599 4.303362 0
M  V30 32 H -1.217357 -2.675576 3.403923 0
M  V30 33 H 0.822995 -4.142693 1.680548 0
M  V30 34 H 1.956800 -2.490388 0.119155 0
M  V30 35 H 2.934192 0.036422 1.626692 0
M  V30 36 H 3.857000 2.772850 1.691903 0
M  V30 37 H 2.226296 6.090630 -0.278352 0
M  V30 38 H 1.219406 6.856354 -1.503600 0
M  V30 39 H 2.892293 6.230470 -1.973674 0
M  V30 40 H -0.517247 5.686542 -2.219456 0
M  V30 41 H -0.737482 3.906753 -1.770840 0
M  V30 42 H 0.135296 1.792285 -1.921856 0
M  V30 43 H -1.701604 -5.814686 4.482909 0
M  V30 44 H -3.336493 -7.441829 3.640268 0
M  V30 45 H -3.544951 -5.327342 -0.049697 0
M  V30 46 H -1.927441 -3.719777 0.787479 0
M  V30 END ATOM
M  V30 BEGIN BOND
M  V30 1 1 1 2
M  V30 2 1 2 3
M  V30 3 1 3 4
M  V30 4 2 4 5
M  V30 5 1 4 6
M  V30 6 1 6 7
M  V30 7 2 7 8
M  V30 8 1 8 9
M  V30 9 1 9 10
M  V30 10 1 10 11
M  V30 11 2 11 12
M  V30 12 1 12 13
M  V30 13 1 13 14
M  V30 14 1 13 15
M  V30 15 1 15 16
M  V30 16 1 16 17
M  V30 17 1 16 18
M  V30 18 1 12 19
M  V30 19 1 19 20
M  V30 20 2 20 21
M  V30 21 1 2 22
M  V30 22 2 22 23
M  V30 23 1 23 24
M  V30 24 2 24 25
M  V30 25 1 25 26
M  V30 26 1 25 27
M  V30 27 2 27 28
M  V30 28 1 21 7
M  V30 29 1 28 22
M  V30 30 2 19 9
M  V30 31 1 16 13
M  V30 32 1 1 29
M  V30 33 1 1 30
M  V30 34 1 1 31
M  V30 35 1 2 32 CFG=1
M  V30 36 1 3 33
M  V30 37 1 6 34
M  V30 38 1 8 35
M  V30 39 1 10 36
M  V30 40 1 14 37
M  V30 41 1 14 38
M  V30 42 1 14 39
M  V30 43 1 15 40
M  V30 44 1 15 41
M  V30 45 1 20 42
M  V30 46 1 23 43
M  V30 47 1 24 44
M  V30 48 1 27 45
M  V30 49 1 28 46
M  V30 END BOND
M  V30 END CTAB
M  END
>  <Dataset>  (175) 
ChEMBL_Kinases

>  <Ligand_Instance>  (175) 
nan

>  <PDB_ID>  (175) 
nan

>  <Standardized_SMILES>  (175) 
C[C@@H](NC(=O)Nc1cc2[nH]nc(C3(C)CC3(F)F)c2cn1)c1ccc(F)cc1

>  <Name>  (175) 
nan

>  <Pocket>  (175) 
nan

>  <ATP_Site>  (175) 
nan

>  <Peripheral>  (175) 
nan

>  <Num_H_Atoms_ProtBoundConf>  (175) 
nan

>  <Num_Resolved_Atoms>  (175) 
nan

>  <Num_Not_Resolved_Atoms>  (175) 
nan

$$$$
CHEMBL3654788
     RDKit          3D

  0  0  0  0  0  0  0  0  0  0999 V3000
M  V30 BEGIN CTAB
M  V30 COUNTS 47 50 0 0 0
M  V30 BEGIN ATOM
M  V30 1 C -2.385357 -4.722613 4.672884 0
M  V30 2 O -2.516264 -3.885492 3.568058 0
M  V30 3 C -1.318541 -3.706094 2.892374 0
M  V30 4 C -1.595302 -2.781420 1.719294 0 CFG=1
M  V30 5 N -0.359978 -2.560211 0.973458 0
M  V30 6 C 0.101486 -1.233798 0.870607 0
M  V30 7 O -0.535594 -0.301626 1.403118 0
M  V30 8 N 1.301687 -0.970111 0.152847 0
M  V30 9 C 1.817314 0.349105 0.014990 0
M  V30 10 C 2.996135 0.555273 -0.697690 0
M  V30 11 C 3.494183 1.835489 -0.829759 0
M  V30 12 N 4.535740 2.465588 -1.402118 0
M  V30 13 N 4.461792 3.786203 -1.171385 0
M  V30 14 C 3.348868 4.055183 -0.428230 0
M  V30 15 C 3.125007 5.473990 -0.061188 0
M  V30 16 C 3.883077 6.177370 0.970705 0
M  V30 17 C 2.592404 5.635977 1.401306 0
M  V30 18 C 2.762964 2.837328 -0.227322 0
M  V30 19 C 1.595262 2.650916 0.480595 0
M  V30 20 N 1.130131 1.376418 0.592815 0
M  V30 21 C -2.549725 -3.401874 0.764717 0
M  V30 22 C -3.845271 -2.952700 0.706924 0
M  V30 23 C -4.829129 -3.429633 -0.121158 0
M  V30 24 C -4.459754 -4.469857 -0.979102 0
M  V30 25 F -5.407052 -4.970867 -1.816482 0
M  V30 26 C -3.163440 -4.936182 -0.937463 0
M  V30 27 C -2.203518 -4.427674 -0.088128 0
M  V30 28 H -1.660664 -4.279029 5.367438 0
M  V30 29 H -3.400498 -4.828996 5.115262 0
M  V30 30 H -2.099875 -5.730692 4.329213 0
M  V30 31 H -0.494200 -3.328136 3.510596 0
M  V30 32 H -1.022605 -4.710838 2.507468 0
M  V30 33 H -2.013454 -1.854396 2.113468 0
M  V30 34 H 0.108489 -3.395857 0.560715 0
M  V30 35 H 1.806009 -1.773588 -0.277979 0
M  V30 36 H 3.554121 -0.234991 -1.160825 0
M  V30 37 H 5.256778 1.930709 -1.933545 0
M  V30 38 H 2.506416 6.029478 -0.801784 0
M  V30 39 H 3.949172 7.285829 0.854365 0
M  V30 40 H 4.814395 5.754230 1.379404 0
M  V30 41 H 2.628710 4.732139 2.051472 0
M  V30 42 H 1.708735 6.277425 1.540535 0
M  V30 43 H 1.022951 3.436332 0.942961 0
M  V30 44 H -4.132132 -2.134388 1.383242 0
M  V30 45 H -5.827117 -2.997630 -0.083245 0
M  V30 46 H -2.885846 -5.754953 -1.617720 0
M  V30 47 H -1.206427 -4.815606 -0.084107 0
M  V30 END ATOM
M  V30 BEGIN BOND
M  V30 1 1 1 2
M  V30 2 1 2 3
M  V30 3 1 3 4
M  V30 4 1 4 5
M  V30 5 1 5 6
M  V30 6 2 6 7
M  V30 7 1 6 8
M  V30 8 1 8 9
M  V30 9 2 9 10
M  V30 10 1 10 11
M  V30 11 1 11 12
M  V30 12 1 12 13
M  V30 13 2 13 14
M  V30 14 1 14 15
M  V30 15 1 15 16
M  V30 16 1 16 17
M  V30 17 1 14 18
M  V30 18 1 18 19
M  V30 19 2 19 20
M  V30 20 1 4 21
M  V30 21 2 21 22
M  V30 22 1 22 23
M  V30 23 2 23 24
M  V30 24 1 24 25
M  V30 25 1 24 26
M  V30 26 2 26 27
M  V30 27 1 20 9
M  V30 28 1 27 21
M  V30 29 2 18 11
M  V30 30 1 17 15
M  V30 31 1 1 28
M  V30 32 1 1 29
M  V30 33 1 1 30
M  V30 34 1 3 31
M  V30 35 1 3 32
M  V30 36 1 4 33 CFG=1
M  V30 37 1 5 34
M  V30 38 1 8 35
M  V30 39 1 10 36
M  V30 40 1 12 37
M  V30 41 1 15 38
M  V30 42 1 16 39
M  V30 43 1 16 40
M  V30 44 1 17 41
M  V30 45 1 17 42
M  V30 46 1 19 43
M  V30 47 1 22 44
M  V30 48 1 23 45
M  V30 49 1 26 46
M  V30 50 1 27 47
M  V30 END BOND
M  V30 END CTAB
M  END
>  <Dataset>  (176) 
ChEMBL_Kinases

>  <Ligand_Instance>  (176) 
nan

>  <PDB_ID>  (176) 
nan

>  <Standardized_SMILES>  (176) 
COC[C@@H](NC(=O)Nc1cc2[nH]nc(C3CC3)c2cn1)c1ccc(F)cc1

>  <Name>  (176) 
nan

>  <Pocket>  (176) 
nan

>  <ATP_Site>  (176) 
nan

>  <Peripheral>  (176) 
nan

>  <Num_H_Atoms_ProtBoundConf>  (176) 
nan

>  <Num_Resolved_Atoms>  (176) 
nan

>  <Num_Not_Resolved_Atoms>  (176) 
nan

$$$$
CHEMBL3654787
     RDKit          3D

  0  0  0  0  0  0  0  0  0  0999 V3000
M  V30 BEGIN CTAB
M  V30 COUNTS 33 35 0 0 0
M  V30 BEGIN ATOM
M  V30 1 C -1.576345 -4.073318 4.045413 0
M  V30 2 C -0.637770 -4.983318 3.284128 0
M  V30 3 N -0.728651 -4.626752 1.880358 0
M  V30 4 C -0.397708 -3.321876 1.478548 0
M  V30 5 O -0.043680 -2.564855 2.401758 0
M  V30 6 N -0.495419 -2.999544 0.098658 0
M  V30 7 C -0.151949 -1.666064 -0.274170 0
M  V30 8 C 1.157420 -1.383747 -0.609346 0
M  V30 9 C 1.506295 -0.097290 -0.972536 0
M  V30 10 N 2.586056 0.607277 -1.358958 0
M  V30 11 N 2.275375 1.876043 -1.583041 0
M  V30 12 C 0.942878 2.061826 -1.346385 0
M  V30 13 C 0.439432 3.443898 -1.539908 0
M  V30 14 C 0.736883 4.376161 -0.319371 0
M  V30 15 C -0.663150 4.021594 -0.764205 0
M  V30 16 C 0.478479 0.821620 -0.967151 0
M  V30 17 C -0.828126 0.568904 -0.639555 0
M  V30 18 N -1.124412 -0.710322 -0.288866 0
M  V30 19 H -2.337952 -3.655814 3.355870 0
M  V30 20 H -1.045620 -3.179534 4.458633 0
M  V30 21 H -2.150196 -4.600491 4.836451 0
M  V30 22 H -0.858519 -6.054300 3.457571 0
M  V30 23 H 0.393228 -4.710854 3.618813 0
M  V30 24 H -1.041017 -5.359489 1.202963 0
M  V30 25 H -0.809638 -3.721857 -0.614019 0
M  V30 26 H 1.959989 -2.108311 -0.611820 0
M  V30 27 H 3.524462 0.156017 -1.452467 0
M  V30 28 H 0.690834 3.946002 -2.504199 0
M  V30 29 H 1.135922 3.885522 0.593529 0
M  V30 30 H 1.109927 5.382209 -0.527060 0
M  V30 31 H -1.250572 3.528883 0.006850 0
M  V30 32 H -1.238018 4.855686 -1.264013 0
M  V30 33 H -1.617459 1.304024 -0.647362 0
M  V30 END ATOM
M  V30 BEGIN BOND
M  V30 1 1 1 2
M  V30 2 1 2 3
M  V30 3 1 3 4
M  V30 4 2 4 5
M  V30 5 1 4 6
M  V30 6 1 6 7
M  V30 7 2 7 8
M  V30 8 1 8 9
M  V30 9 1 9 10
M  V30 10 1 10 11
M  V30 11 2 11 12
M  V30 12 1 12 13
M  V30 13 1 13 14
M  V30 14 1 14 15
M  V30 15 1 12 16
M  V30 16 1 16 17
M  V30 17 2 17 18
M  V30 18 1 18 7
M  V30 19 2 16 9
M  V30 20 1 15 13
M  V30 21 1 1 19
M  V30 22 1 1 20
M  V30 23 1 1 21
M  V30 24 1 2 22
M  V30 25 1 2 23
M  V30 26 1 3 24
M  V30 27 1 6 25
M  V30 28 1 8 26
M  V30 29 1 10 27
M  V30 30 1 13 28
M  V30 31 1 14 29
M  V30 32 1 14 30
M  V30 33 1 15 31
M  V30 34 1 15 32
M  V30 35 1 17 33
M  V30 END BOND
M  V30 END CTAB
M  END
>  <Dataset>  (177) 
ChEMBL_Kinases

>  <Ligand_Instance>  (177) 
nan

>  <PDB_ID>  (177) 
nan

>  <Standardized_SMILES>  (177) 
CCNC(=O)Nc1cc2[nH]nc(C3CC3)c2cn1

>  <Name>  (177) 
nan

>  <Pocket>  (177) 
nan

>  <ATP_Site>  (177) 
nan

>  <Peripheral>  (177) 
nan

>  <Num_H_Atoms_ProtBoundConf>  (177) 
nan

>  <Num_Resolved_Atoms>  (177) 
nan

>  <Num_Not_Resolved_Atoms>  (177) 
nan

$$$$
CHEMBL3654786
     RDKit          3D

  0  0  0  0  0  0  0  0  0  0999 V3000
M  V30 BEGIN CTAB
M  V30 COUNTS 39 41 0 0 0
M  V30 BEGIN ATOM
M  V30 1 C 0.672853 -5.057359 4.904722 0
M  V30 2 C 0.431751 -5.474164 3.470380 0
M  V30 3 C 0.938413 -4.449138 2.482952 0
M  V30 4 C 0.706465 -4.847893 1.039358 0
M  V30 5 N 1.200581 -3.848527 0.108745 0
M  V30 6 C 0.730597 -2.503397 0.080959 0
M  V30 7 O -0.140675 -2.102909 0.861785 0
M  V30 8 N 1.226776 -1.534981 -0.839488 0
M  V30 9 C 0.747989 -0.191549 -0.857097 0
M  V30 10 C 1.268183 0.704627 -1.774646 0
M  V30 11 C 0.787835 1.999489 -1.771025 0
M  V30 12 N 0.977204 3.151241 -2.439949 0
M  V30 13 N 0.172244 4.109652 -1.955548 0
M  V30 14 C -0.578822 3.598813 -0.936947 0
M  V30 15 C -1.505594 4.554119 -0.288196 0
M  V30 16 C -0.840285 5.536580 0.683021 0
M  V30 17 C -1.751820 4.474637 1.211296 0
M  V30 18 C -0.183930 2.283229 -0.834883 0
M  V30 19 C -0.712185 1.409018 0.082022 0
M  V30 20 N -0.217717 0.139205 0.053273 0
M  V30 21 H 1.224977 -4.081049 4.862288 0
M  V30 22 H 1.263580 -5.834698 5.418214 0
M  V30 23 H -0.299491 -4.843007 5.435193 0
M  V30 24 H -0.682855 -5.552622 3.328084 0
M  V30 25 H 0.820796 -6.474415 3.292379 0
M  V30 26 H 2.020837 -4.335017 2.691571 0
M  V30 27 H 0.437646 -3.480443 2.659209 0
M  V30 28 H -0.322278 -5.164924 0.849247 0
M  V30 29 H 1.370427 -5.749350 0.887022 0
M  V30 30 H 1.948879 -4.046755 -0.619906 0
M  V30 31 H 1.964103 -1.838082 -1.514517 0
M  V30 32 H 2.019300 0.461320 -2.488430 0
M  V30 33 H 1.672817 3.210752 -3.216266 0
M  V30 34 H -2.332087 4.988834 -0.902488 0
M  V30 35 H 0.265185 5.440060 0.830052 0
M  V30 36 H -1.245561 6.568902 0.741521 0
M  V30 37 H -1.240824 3.728486 1.835152 0
M  V30 38 H -2.758382 4.766167 1.580810 0
M  V30 39 H -1.469967 1.644344 0.796242 0
M  V30 END ATOM
M  V30 BEGIN BOND
M  V30 1 1 1 2
M  V30 2 1 2 3
M  V30 3 1 3 4
M  V30 4 1 4 5
M  V30 5 1 5 6
M  V30 6 2 6 7
M  V30 7 1 6 8
M  V30 8 1 8 9
M  V30 9 2 9 10
M  V30 10 1 10 11
M  V30 11 1 11 12
M  V30 12 1 12 13
M  V30 13 2 13 14
M  V30 14 1 14 15
M  V30 15 1 15 16
M  V30 16 1 16 17
M  V30 17 1 14 18
M  V30 18 1 18 19
M  V30 19 2 19 20
M  V30 20 1 20 9
M  V30 21 2 18 11
M  V30 22 1 17 15
M  V30 23 1 1 21
M  V30 24 1 1 22
M  V30 25 1 1 23
M  V30 26 1 2 24
M  V30 27 1 2 25
M  V30 28 1 3 26
M  V30 29 1 3 27
M  V30 30 1 4 28
M  V30 31 1 4 29
M  V30 32 1 5 30
M  V30 33 1 8 31
M  V30 34 1 10 32
M  V30 35 1 12 33
M  V30 36 1 15 34
M  V30 37 1 16 35
M  V30 38 1 16 36
M  V30 39 1 17 37
M  V30 40 1 17 38
M  V30 41 1 19 39
M  V30 END BOND
M  V30 END CTAB
M  END
>  <Dataset>  (178) 
ChEMBL_Kinases

>  <Ligand_Instance>  (178) 
nan

>  <PDB_ID>  (178) 
nan

>  <Standardized_SMILES>  (178) 
CCCCNC(=O)Nc1cc2[nH]nc(C3CC3)c2cn1

>  <Name>  (178) 
nan

>  <Pocket>  (178) 
nan

>  <ATP_Site>  (178) 
nan

>  <Peripheral>  (178) 
nan

>  <Num_H_Atoms_ProtBoundConf>  (178) 
nan

>  <Num_Resolved_Atoms>  (178) 
nan

>  <Num_Not_Resolved_Atoms>  (178) 
nan

$$$$
CHEMBL3654785
     RDKit          3D

  0  0  0  0  0  0  0  0  0  0999 V3000
M  V30 BEGIN CTAB
M  V30 COUNTS 44 47 0 0 0
M  V30 BEGIN ATOM
M  V30 1 C 0.367152 -6.264071 -0.040813 0
M  V30 2 O 1.487014 -5.446457 -0.318788 0
M  V30 3 C 1.435332 -4.360162 -1.170654 0
M  V30 4 C 2.590369 -3.628970 -1.371119 0
M  V30 5 C 2.611899 -2.528064 -2.211282 0
M  V30 6 C 1.426691 -2.198370 -2.836399 0
M  V30 7 C 1.249299 -1.048218 -3.776842 0
M  V30 8 N 0.860512 0.163928 -3.079087 0
M  V30 9 C 0.666982 0.268274 -1.676852 0
M  V30 10 O 0.822612 -0.715953 -0.901212 0
M  V30 11 N 0.287412 1.502866 -1.103934 0
M  V30 12 C 0.089341 1.623248 0.302785 0
M  V30 13 C 1.212647 1.977552 1.033232 0
M  V30 14 C 1.126877 2.120593 2.404860 0
M  V30 15 N 1.890947 2.425530 3.470184 0
M  V30 16 N 1.217357 2.396771 4.588379 0
M  V30 17 C -0.089526 2.059664 4.344401 0
M  V30 18 C -0.975082 2.006202 5.493393 0
M  V30 19 C -1.536021 3.217208 6.140384 0
M  V30 20 C -2.415014 2.223000 5.523614 0
M  V30 21 C -0.109966 1.894517 2.975463 0
M  V30 22 C -1.229247 1.542819 2.261761 0
M  V30 23 N -1.107917 1.412791 0.928138 0
M  V30 24 C 0.264959 -2.926323 -2.640521 0
M  V30 25 C 0.252463 -4.024062 -1.799962 0
M  V30 26 H -0.532276 -5.659940 0.086196 0
M  V30 27 H 0.192311 -6.919394 -0.925768 0
M  V30 28 H 0.596353 -6.909313 0.827282 0
M  V30 29 H 3.523668 -3.889508 -0.878156 0
M  V30 30 H 3.472259 -1.905587 -2.420470 0
M  V30 31 H 0.515215 -1.258670 -4.553647 0
M  V30 32 H 2.229814 -0.809232 -4.256358 0
M  V30 33 H 0.731314 0.979813 -3.720408 0
M  V30 34 H 0.153373 2.334603 -1.738298 0
M  V30 35 H 2.193559 2.161251 0.616314 0
M  V30 36 H 2.921242 2.653945 3.340315 0
M  V30 37 H -0.632423 1.234114 6.251161 0
M  V30 38 H -1.263849 4.177367 5.659773 0
M  V30 39 H -1.519256 3.329572 7.245610 0
M  V30 40 H -2.994277 2.389715 4.618778 0
M  V30 41 H -3.054286 1.648428 6.263549 0
M  V30 42 H -2.183693 1.361381 2.691435 0
M  V30 43 H -0.689605 -2.692755 -3.119390 0
M  V30 44 H -0.658650 -4.590922 -1.649458 0
M  V30 END ATOM
M  V30 BEGIN BOND
M  V30 1 1 1 2
M  V30 2 1 2 3
M  V30 3 2 3 4
M  V30 4 1 4 5
M  V30 5 2 5 6
M  V30 6 1 6 7
M  V30 7 1 7 8
M  V30 8 1 8 9
M  V30 9 2 9 10
M  V30 10 1 9 11
M  V30 11 1 11 12
M  V30 12 2 12 13
M  V30 13 1 13 14
M  V30 14 1 14 15
M  V30 15 1 15 16
M  V30 16 2 16 17
M  V30 17 1 17 18
M  V30 18 1 18 19
M  V30 19 1 19 20
M  V30 20 1 17 21
M  V30 21 1 21 22
M  V30 22 2 22 23
M  V30 23 1 6 24
M  V30 24 2 24 25
M  V30 25 1 25 3
M  V30 26 1 23 12
M  V30 27 2 21 14
M  V30 28 1 20 18
M  V30 29 1 1 26
M  V30 30 1 1 27
M  V30 31 1 1 28
M  V30 32 1 4 29
M  V30 33 1 5 30
M  V30 34 1 7 31
M  V30 35 1 7 32
M  V30 36 1 8 33
M  V30 37 1 11 34
M  V30 38 1 13 35
M  V30 39 1 15 36
M  V30 40 1 18 37
M  V30 41 1 19 38
M  V30 42 1 19 39
M  V30 43 1 20 40
M  V30 44 1 20 41
M  V30 45 1 22 42
M  V30 46 1 24 43
M  V30 47 1 25 44
M  V30 END BOND
M  V30 END CTAB
M  END
>  <Dataset>  (179) 
ChEMBL_Kinases

>  <Ligand_Instance>  (179) 
nan

>  <PDB_ID>  (179) 
nan

>  <Standardized_SMILES>  (179) 
COc1ccc(CNC(=O)Nc2cc3[nH]nc(C4CC4)c3cn2)cc1

>  <Name>  (179) 
nan

>  <Pocket>  (179) 
nan

>  <ATP_Site>  (179) 
nan

>  <Peripheral>  (179) 
nan

>  <Num_H_Atoms_ProtBoundConf>  (179) 
nan

>  <Num_Resolved_Atoms>  (179) 
nan

>  <Num_Not_Resolved_Atoms>  (179) 
nan

$$$$
CHEMBL3654784
     RDKit          3D

  0  0  0  0  0  0  0  0  0  0999 V3000
M  V30 BEGIN CTAB
M  V30 COUNTS 45 49 0 0 0
M  V30 BEGIN ATOM
M  V30 1 O 0.052770 0.314845 0.273767 0
M  V30 2 C 0.306545 -0.729696 -0.402923 0
M  V30 3 N -0.198980 -2.057705 -0.197689 0
M  V30 4 C -1.083544 -2.056606 0.940786 0
M  V30 5 C -2.421687 -1.836568 0.925028 0
M  V30 6 C -3.095266 -1.878117 2.129285 0
M  V30 7 N -4.410355 -1.699082 2.409987 0
M  V30 8 N -4.566288 -1.837586 3.714576 0
M  V30 9 C -3.386645 -2.103925 4.304382 0
M  V30 10 C -2.989235 -2.346135 5.716584 0
M  V30 11 C -2.586974 -1.116964 6.537494 0
M  V30 12 C -3.870548 -1.854045 6.809721 0
M  V30 13 C -2.426251 -2.135871 3.313019 0
M  V30 14 C -1.055987 -2.352424 3.259372 0
M  V30 15 N -0.432894 -2.307239 2.091646 0
M  V30 16 N 1.214339 -0.448498 -1.476667 0
M  V30 17 C 1.748295 0.889224 -1.715241 0 CFG=2
M  V30 18 C 1.241851 1.340577 -3.057441 0
M  V30 19 C 2.009311 2.444014 -3.691895 0
M  V30 20 O 3.195450 2.809838 -3.005457 0
M  V30 21 C 3.954629 1.866197 -2.358099 0
M  V30 22 C 5.331581 1.824901 -2.317416 0
M  V30 23 C 5.937150 0.799207 -1.615798 0
M  V30 24 C 5.250086 -0.193524 -0.948434 0
M  V30 25 C 3.859995 -0.128317 -1.005460 0
M  V30 26 C 3.222259 0.895495 -1.706094 0
M  V30 27 H 0.149065 -2.767877 -0.883578 0
M  V30 28 H -2.868908 -1.644596 -0.022813 0
M  V30 29 H -5.157156 -1.488428 1.701972 0
M  V30 30 H -2.309846 -3.215141 5.914109 0
M  V30 31 H -1.820801 -1.218932 7.322509 0
M  V30 32 H -2.601613 -0.154866 5.987263 0
M  V30 33 H -4.812443 -1.360876 6.480008 0
M  V30 34 H -3.972551 -2.427988 7.751105 0
M  V30 35 H -0.526515 -2.556872 4.199804 0
M  V30 36 H 1.530128 -1.196577 -2.133758 0
M  V30 37 H 1.359501 1.614905 -0.971641 0
M  V30 38 H 1.190057 0.418578 -3.703432 0
M  V30 39 H 0.182417 1.639800 -2.912799 0
M  V30 40 H 1.398205 3.331577 -3.918885 0
M  V30 41 H 2.350082 2.073405 -4.702806 0
M  V30 42 H 5.869463 2.592263 -2.833173 0
M  V30 43 H 7.012422 0.773620 -1.588539 0
M  V30 44 H 5.741375 -0.988124 -0.404690 0
M  V30 45 H 3.316345 -0.898870 -0.487546 0
M  V30 END ATOM
M  V30 BEGIN BOND
M  V30 1 2 1 2
M  V30 2 1 2 3
M  V30 3 1 3 4
M  V30 4 2 4 5
M  V30 5 1 5 6
M  V30 6 1 6 7
M  V30 7 1 7 8
M  V30 8 2 8 9
M  V30 9 1 9 10
M  V30 10 1 10 11
M  V30 11 1 11 12
M  V30 12 1 9 13
M  V30 13 1 13 14
M  V30 14 2 14 15
M  V30 15 1 2 16
M  V30 16 1 16 17
M  V30 17 1 17 18
M  V30 18 1 18 19
M  V30 19 1 19 20
M  V30 20 1 20 21
M  V30 21 2 21 22
M  V30 22 1 22 23
M  V30 23 2 23 24
M  V30 24 1 24 25
M  V30 25 2 25 26
M  V30 26 1 15 4
M  V30 27 1 26 17
M  V30 28 2 13 6
M  V30 29 1 26 21
M  V30 30 1 12 10
M  V30 31 1 3 27
M  V30 32 1 5 28
M  V30 33 1 7 29
M  V30 34 1 10 30
M  V30 35 1 11 31
M  V30 36 1 11 32
M  V30 37 1 12 33
M  V30 38 1 12 34
M  V30 39 1 14 35
M  V30 40 1 16 36
M  V30 41 1 17 37 CFG=1
M  V30 42 1 18 38
M  V30 43 1 18 39
M  V30 44 1 19 40
M  V30 45 1 19 41
M  V30 46 1 22 42
M  V30 47 1 23 43
M  V30 48 1 24 44
M  V30 49 1 25 45
M  V30 END BOND
M  V30 END CTAB
M  END
>  <Dataset>  (180) 
ChEMBL_Kinases

>  <Ligand_Instance>  (180) 
nan

>  <PDB_ID>  (180) 
nan

>  <Standardized_SMILES>  (180) 
O=C(Nc1cc2[nH]nc(C3CC3)c2cn1)N[C@@H]1CCOc2ccccc21

>  <Name>  (180) 
nan

>  <Pocket>  (180) 
nan

>  <ATP_Site>  (180) 
nan

>  <Peripheral>  (180) 
nan

>  <Num_H_Atoms_ProtBoundConf>  (180) 
nan

>  <Num_Resolved_Atoms>  (180) 
nan

>  <Num_Not_Resolved_Atoms>  (180) 
nan

$$$$
CHEMBL3654783
     RDKit          3D

  0  0  0  0  0  0  0  0  0  0999 V3000
M  V30 BEGIN CTAB
M  V30 COUNTS 48 52 0 0 0
M  V30 BEGIN ATOM
M  V30 1 O -0.906866 -0.747550 -0.130733 0
M  V30 2 C -0.758367 -0.485624 1.069699 0
M  V30 3 N 0.297559 0.374516 1.381623 0
M  V30 4 C 1.250496 1.016068 0.559896 0
M  V30 5 C 1.371865 0.943143 -0.805485 0
M  V30 6 C 2.331078 1.599732 -1.545219 0
M  V30 7 N 2.605088 1.653337 -2.848070 0
M  V30 8 N 3.655606 2.445992 -3.058169 0
M  V30 9 C 4.089049 2.929714 -1.868130 0
M  V30 10 C 5.183138 3.834592 -1.439107 0
M  V30 11 C 6.528608 3.128445 -1.113125 0
M  V30 12 C 6.369690 4.008550 -2.339155 0
M  V30 13 C 3.236892 2.383737 -0.907179 0
M  V30 14 C 3.118311 2.459575 0.464202 0
M  V30 15 N 2.168448 1.803723 1.150524 0
M  V30 16 N -1.661517 -1.080040 1.962233 0
M  V30 17 C -2.712191 -1.957228 1.474232 0
M  V30 18 C -4.032623 -1.283481 1.757429 0
M  V30 19 C -5.184955 -2.237107 1.778235 0
M  V30 20 C -5.450373 -2.597425 3.235475 0
M  V30 21 O -4.495221 -3.575016 3.625319 0
M  V30 22 C -3.361078 -4.051466 2.968495 0
M  V30 23 C -3.007438 -5.348865 3.306602 0
M  V30 24 C -1.902830 -5.940838 2.727349 0
M  V30 25 C -1.130267 -5.239670 1.795201 0
M  V30 26 C -1.526058 -3.943513 1.490462 0
M  V30 27 C -2.624954 -3.308495 2.044943 0
M  V30 28 H 0.325436 0.521860 2.412126 0
M  V30 29 H 0.680145 0.337725 -1.347097 0
M  V30 30 H 2.088777 1.158157 -3.605526 0
M  V30 31 H 4.922233 4.628726 -0.709398 0
M  V30 32 H 6.536696 2.026465 -1.279906 0
M  V30 33 H 7.099381 3.512940 -0.253533 0
M  V30 34 H 6.341108 3.468695 -3.315203 0
M  V30 35 H 6.954287 4.945119 -2.312236 0
M  V30 36 H 3.817454 3.072313 1.018416 0
M  V30 37 H -1.551458 -0.870229 2.982202 0
M  V30 38 H -2.635963 -2.030262 0.370867 0
M  V30 39 H -3.950050 -0.763456 2.741565 0
M  V30 40 H -4.155874 -0.452876 1.015890 0
M  V30 41 H -4.956510 -3.187065 1.237115 0
M  V30 42 H -6.121205 -1.748540 1.410767 0
M  V30 43 H -6.481331 -2.911064 3.416595 0
M  V30 44 H -5.217830 -1.682457 3.849002 0
M  V30 45 H -3.616637 -5.884615 4.033538 0
M  V30 46 H -1.627397 -6.963788 2.996560 0
M  V30 47 H -0.264646 -5.687529 1.333670 0
M  V30 48 H -0.893680 -3.442138 0.761764 0
M  V30 END ATOM
M  V30 BEGIN BOND
M  V30 1 2 1 2
M  V30 2 1 2 3
M  V30 3 1 3 4
M  V30 4 2 4 5
M  V30 5 1 5 6
M  V30 6 1 6 7
M  V30 7 1 7 8
M  V30 8 2 8 9
M  V30 9 1 9 10
M  V30 10 1 10 11
M  V30 11 1 11 12
M  V30 12 1 9 13
M  V30 13 1 13 14
M  V30 14 2 14 15
M  V30 15 1 2 16
M  V30 16 1 16 17
M  V30 17 1 17 18
M  V30 18 1 18 19
M  V30 19 1 19 20
M  V30 20 1 20 21
M  V30 21 1 21 22
M  V30 22 2 22 23
M  V30 23 1 23 24
M  V30 24 2 24 25
M  V30 25 1 25 26
M  V30 26 2 26 27
M  V30 27 1 15 4
M  V30 28 1 27 17
M  V30 29 2 13 6
M  V30 30 1 27 22
M  V30 31 1 12 10
M  V30 32 1 3 28
M  V30 33 1 5 29
M  V30 34 1 7 30
M  V30 35 1 10 31
M  V30 36 1 11 32
M  V30 37 1 11 33
M  V30 38 1 12 34
M  V30 39 1 12 35
M  V30 40 1 14 36
M  V30 41 1 16 37
M  V30 42 1 17 38
M  V30 43 1 18 39
M  V30 44 1 18 40
M  V30 45 1 19 41
M  V30 46 1 19 42
M  V30 47 1 20 43
M  V30 48 1 20 44
M  V30 49 1 23 45
M  V30 50 1 24 46
M  V30 51 1 25 47
M  V30 52 1 26 48
M  V30 END BOND
M  V30 END CTAB
M  END
>  <Dataset>  (181) 
ChEMBL_Kinases

>  <Ligand_Instance>  (181) 
nan

>  <PDB_ID>  (181) 
nan

>  <Standardized_SMILES>  (181) 
O=C(Nc1cc2[nH]nc(C3CC3)c2cn1)NC1CCCOc2ccccc21

>  <Name>  (181) 
nan

>  <Pocket>  (181) 
nan

>  <ATP_Site>  (181) 
nan

>  <Peripheral>  (181) 
nan

>  <Num_H_Atoms_ProtBoundConf>  (181) 
nan

>  <Num_Resolved_Atoms>  (181) 
nan

>  <Num_Not_Resolved_Atoms>  (181) 
nan

$$$$
CHEMBL3654782
     RDKit          3D

  0  0  0  0  0  0  0  0  0  0999 V3000
M  V30 BEGIN CTAB
M  V30 COUNTS 42 45 0 0 0
M  V30 BEGIN ATOM
M  V30 1 C -1.450698 -5.093316 2.336148 0
M  V30 2 C -0.524557 -4.381034 1.377665 0 CFG=1
M  V30 3 N 0.085499 -3.197658 1.951990 0
M  V30 4 C -0.033412 -1.940304 1.306954 0
M  V30 5 O -0.677340 -1.923466 0.247246 0
M  V30 6 N 0.488367 -0.713409 1.721208 0
M  V30 7 C 0.421501 0.574439 1.150461 0
M  V30 8 C -0.211654 0.931799 -0.013499 0
M  V30 9 C -0.235719 2.211246 -0.510972 0
M  V30 10 N -0.720929 2.896383 -1.557368 0
M  V30 11 N -0.401513 4.178431 -1.497198 0
M  V30 12 C 0.336070 4.399244 -0.363906 0
M  V30 13 C 0.770766 5.763177 -0.106508 0
M  V30 14 C -0.130035 6.801174 0.445650 0
M  V30 15 C 1.065516 6.370904 1.184098 0
M  V30 16 C 0.423269 3.161187 0.227563 0
M  V30 17 C 1.059269 2.845376 1.380608 0
M  V30 18 N 1.038467 1.573802 1.801908 0
M  V30 19 C 0.628089 -5.277540 1.009745 0
M  V30 20 C 0.651121 -5.912886 -0.211292 0
M  V30 21 C 1.661584 -6.750499 -0.635465 0
M  V30 22 C 2.717946 -6.955675 0.239066 0
M  V30 23 C 2.689531 -6.315261 1.463553 0
M  V30 24 N 1.670659 -5.503445 1.826844 0
M  V30 25 H -1.154653 -6.170284 2.363368 0
M  V30 26 H -1.386295 -4.666968 3.354503 0
M  V30 27 H -2.491939 -5.083462 1.926173 0
M  V30 28 H -1.026762 -4.090427 0.451561 0
M  V30 29 H 0.634667 -3.205913 2.853591 0
M  V30 30 H 1.001030 -0.864810 2.614319 0
M  V30 31 H -0.723491 0.183995 -0.583252 0
M  V30 32 H -1.285157 2.381694 -2.298456 0
M  V30 33 H 1.428876 6.154842 -0.945587 0
M  V30 34 H -1.161784 6.468982 0.682071 0
M  V30 35 H -0.162054 7.810239 -0.016565 0
M  V30 36 H 1.033517 5.831608 2.128047 0
M  V30 37 H 1.869570 7.168474 1.250871 0
M  V30 38 H 1.579211 3.573500 1.959688 0
M  V30 39 H -0.206635 -5.718297 -0.866379 0
M  V30 40 H 1.559080 -7.185721 -1.614971 0
M  V30 41 H 3.504342 -7.613664 -0.103070 0
M  V30 42 H 3.531571 -6.509003 2.101303 0
M  V30 END ATOM
M  V30 BEGIN BOND
M  V30 1 1 1 2
M  V30 2 1 2 3
M  V30 3 1 3 4
M  V30 4 2 4 5
M  V30 5 1 4 6
M  V30 6 1 6 7
M  V30 7 2 7 8
M  V30 8 1 8 9
M  V30 9 1 9 10
M  V30 10 1 10 11
M  V30 11 2 11 12
M  V30 12 1 12 13
M  V30 13 1 13 14
M  V30 14 1 14 15
M  V30 15 1 12 16
M  V30 16 1 16 17
M  V30 17 2 17 18
M  V30 18 1 2 19
M  V30 19 2 19 20
M  V30 20 1 20 21
M  V30 21 2 21 22
M  V30 22 1 22 23
M  V30 23 2 23 24
M  V30 24 1 18 7
M  V30 25 1 24 19
M  V30 26 2 16 9
M  V30 27 1 15 13
M  V30 28 1 1 25
M  V30 29 1 1 26
M  V30 30 1 1 27
M  V30 31 1 2 28 CFG=3
M  V30 32 1 3 29
M  V30 33 1 6 30
M  V30 34 1 8 31
M  V30 35 1 10 32
M  V30 36 1 13 33
M  V30 37 1 14 34
M  V30 38 1 14 35
M  V30 39 1 15 36
M  V30 40 1 15 37
M  V30 41 1 17 38
M  V30 42 1 20 39
M  V30 43 1 21 40
M  V30 44 1 22 41
M  V30 45 1 23 42
M  V30 END BOND
M  V30 END CTAB
M  END
>  <Dataset>  (182) 
ChEMBL_Kinases

>  <Ligand_Instance>  (182) 
nan

>  <PDB_ID>  (182) 
nan

>  <Standardized_SMILES>  (182) 
C[C@@H](NC(=O)Nc1cc2[nH]nc(C3CC3)c2cn1)c1ccccn1

>  <Name>  (182) 
nan

>  <Pocket>  (182) 
nan

>  <ATP_Site>  (182) 
nan

>  <Peripheral>  (182) 
nan

>  <Num_H_Atoms_ProtBoundConf>  (182) 
nan

>  <Num_Resolved_Atoms>  (182) 
nan

>  <Num_Not_Resolved_Atoms>  (182) 
nan

$$$$
CHEMBL3654781
     RDKit          3D

  0  0  0  0  0  0  0  0  0  0999 V3000
M  V30 BEGIN CTAB
M  V30 COUNTS 46 49 0 0 0
M  V30 BEGIN ATOM
M  V30 1 C -1.867968 -5.223436 2.137844 0
M  V30 2 C -2.044369 -3.772258 1.853027 0 CFG=1
M  V30 3 N -1.404432 -3.340902 0.600641 0
M  V30 4 C -0.434368 -2.306806 0.607522 0
M  V30 5 O -0.167295 -1.801877 1.712862 0
M  V30 6 N 0.155991 -1.929818 -0.652662 0
M  V30 7 C 1.119252 -0.880791 -0.534758 0
M  V30 8 C 0.628641 0.410684 -0.653464 0
M  V30 9 C 1.514610 1.472976 -0.548143 0
M  V30 10 N 1.295437 2.815527 -0.625781 0
M  V30 11 N 2.467139 3.415190 -0.460636 0
M  V30 12 C 3.428872 2.469372 -0.278873 0
M  V30 13 C 4.884405 2.723520 -0.057933 0
M  V30 14 C 5.205913 2.864202 1.434242 0
M  V30 15 C 4.739846 4.315595 1.307458 0
M  V30 16 C 5.206518 4.217873 -0.150403 0
M  V30 17 C 2.867562 1.209766 -0.326740 0
M  V30 18 C 3.324701 -0.087613 -0.213112 0
M  V30 19 N 2.448411 -1.104868 -0.318358 0
M  V30 20 C -3.471945 -3.350415 1.738156 0
M  V30 21 C -4.134950 -2.733079 2.778524 0
M  V30 22 C -5.448577 -2.315468 2.749200 0
M  V30 23 C -6.119526 -2.553037 1.564072 0
M  V30 24 Cl -7.802669 -2.035868 1.480007 0
M  V30 25 C -5.523353 -3.172248 0.462207 0
M  V30 26 C -4.192145 -3.568396 0.562131 0
M  V30 27 H -1.620229 -5.788912 1.214427 0
M  V30 28 H -1.063646 -5.419817 2.876641 0
M  V30 29 H -2.840655 -5.589431 2.572439 0
M  V30 30 H -1.622028 -3.158278 2.678138 0
M  V30 31 H -1.694565 -3.825162 -0.278238 0
M  V30 32 H -0.097455 -2.384498 -1.578893 0
M  V30 33 H -0.433582 0.585318 -0.826262 0
M  V30 34 H 0.340118 3.219816 -0.789133 0
M  V30 35 H 5.573211 2.063339 -0.580013 0
M  V30 36 H 4.535664 2.196383 1.986357 0
M  V30 37 H 6.287120 2.805564 1.641352 0
M  V30 38 H 3.633620 4.365583 1.396270 0
M  V30 39 H 5.315604 5.021722 1.925174 0
M  V30 40 H 4.582326 4.784081 -0.869691 0
M  V30 41 H 6.290726 4.366280 -0.185813 0
M  V30 42 H 4.378268 -0.265007 -0.041585 0
M  V30 43 H -3.606585 -2.541591 3.723236 0
M  V30 44 H -5.921340 -1.835773 3.593554 0
M  V30 45 H -6.099451 -3.331254 -0.438650 0
M  V30 46 H -3.724527 -4.052657 -0.298441 0
M  V30 END ATOM
M  V30 BEGIN BOND
M  V30 1 1 1 2
M  V30 2 1 2 3
M  V30 3 1 3 4
M  V30 4 2 4 5
M  V30 5 1 4 6
M  V30 6 1 6 7
M  V30 7 2 7 8
M  V30 8 1 8 9
M  V30 9 1 9 10
M  V30 10 1 10 11
M  V30 11 2 11 12
M  V30 12 1 12 13
M  V30 13 1 13 14
M  V30 14 1 14 15
M  V30 15 1 15 16
M  V30 16 1 12 17
M  V30 17 1 17 18
M  V30 18 2 18 19
M  V30 19 1 2 20
M  V30 20 2 20 21
M  V30 21 1 21 22
M  V30 22 2 22 23
M  V30 23 1 23 24
M  V30 24 1 23 25
M  V30 25 2 25 26
M  V30 26 1 19 7
M  V30 27 1 26 20
M  V30 28 2 17 9
M  V30 29 1 16 13
M  V30 30 1 1 27
M  V30 31 1 1 28
M  V30 32 1 1 29
M  V30 33 1 2 30 CFG=1
M  V30 34 1 3 31
M  V30 35 1 6 32
M  V30 36 1 8 33
M  V30 37 1 10 34
M  V30 38 1 13 35
M  V30 39 1 14 36
M  V30 40 1 14 37
M  V30 41 1 15 38
M  V30 42 1 15 39
M  V30 43 1 16 40
M  V30 44 1 16 41
M  V30 45 1 18 42
M  V30 46 1 21 43
M  V30 47 1 22 44
M  V30 48 1 25 45
M  V30 49 1 26 46
M  V30 END BOND
M  V30 END CTAB
M  END
>  <Dataset>  (183) 
ChEMBL_Kinases

>  <Ligand_Instance>  (183) 
nan

>  <PDB_ID>  (183) 
nan

>  <Standardized_SMILES>  (183) 
C[C@@H](NC(=O)Nc1cc2[nH]nc(C3CCC3)c2cn1)c1ccc(Cl)cc1

>  <Name>  (183) 
nan

>  <Pocket>  (183) 
nan

>  <ATP_Site>  (183) 
nan

>  <Peripheral>  (183) 
nan

>  <Num_H_Atoms_ProtBoundConf>  (183) 
nan

>  <Num_Resolved_Atoms>  (183) 
nan

>  <Num_Not_Resolved_Atoms>  (183) 
nan

$$$$
CHEMBL3654780
     RDKit          3D

  0  0  0  0  0  0  0  0  0  0999 V3000
M  V30 BEGIN CTAB
M  V30 COUNTS 43 46 0 0 0
M  V30 BEGIN ATOM
M  V30 1 C -1.007537 -4.584754 3.244239 0
M  V30 2 C -1.303662 -3.657162 2.111172 0 CFG=1
M  V30 3 N -0.111743 -3.049940 1.549851 0
M  V30 4 C 0.228969 -1.676977 1.436115 0
M  V30 5 O -0.605508 -0.837954 1.878334 0
M  V30 6 N 1.489368 -1.338951 0.830710 0
M  V30 7 C 1.721373 0.072171 0.771791 0
M  V30 8 C 1.292076 0.784024 -0.355142 0
M  V30 9 C 1.489342 2.138064 -0.462889 0
M  V30 10 N 1.249228 3.154779 -1.314194 0
M  V30 11 N 1.692612 4.306188 -0.847990 0
M  V30 12 C 2.270872 4.105392 0.380861 0
M  V30 13 C 2.828295 5.280823 1.016475 0
M  V30 14 C 4.114774 5.902768 0.629465 0
M  V30 15 C 3.937309 5.341239 1.967055 0
M  V30 16 C 2.127843 2.754596 0.589344 0
M  V30 17 C 2.551115 2.090923 1.687085 0
M  V30 18 N 2.346565 0.761533 1.770977 0
M  V30 19 C -2.028933 -4.338890 0.997347 0
M  V30 20 C -3.409118 -4.180453 0.887285 0
M  V30 21 C -4.150208 -4.784084 -0.122471 0
M  V30 22 C -3.510789 -5.570993 -1.056376 0
M  V30 23 Cl -4.444275 -6.327311 -2.322719 0
M  V30 24 C -2.137305 -5.719112 -0.933670 0
M  V30 25 C -1.383108 -5.129890 0.059317 0
M  V30 26 H -1.775079 -4.436615 4.018023 0
M  V30 27 H -0.904293 -5.626763 2.891612 0
M  V30 28 H -0.026849 -4.241413 3.682116 0
M  V30 29 H -1.939996 -2.797433 2.457102 0
M  V30 30 H 0.564700 -3.766453 1.189956 0
M  V30 31 H 2.122529 -2.068616 0.491554 0
M  V30 32 H 0.786648 0.313440 -1.194963 0
M  V30 33 H 0.755117 2.985104 -2.240258 0
M  V30 34 H 2.032085 6.060845 1.234883 0
M  V30 35 H 4.657273 5.421530 -0.196687 0
M  V30 36 H 4.220688 7.005962 0.552288 0
M  V30 37 H 4.392232 4.417995 2.316865 0
M  V30 38 H 3.912290 6.079464 2.828864 0
M  V30 39 H 3.037149 2.539142 2.509830 0
M  V30 40 H -3.937694 -3.557805 1.620849 0
M  V30 41 H -5.222929 -4.597273 -0.120127 0
M  V30 42 H -1.616176 -6.337085 -1.662565 0
M  V30 43 H -0.330283 -5.269436 0.117475 0
M  V30 END ATOM
M  V30 BEGIN BOND
M  V30 1 1 1 2
M  V30 2 1 2 3
M  V30 3 1 3 4
M  V30 4 2 4 5
M  V30 5 1 4 6
M  V30 6 1 6 7
M  V30 7 2 7 8
M  V30 8 1 8 9
M  V30 9 1 9 10
M  V30 10 1 10 11
M  V30 11 2 11 12
M  V30 12 1 12 13
M  V30 13 1 13 14
M  V30 14 1 14 15
M  V30 15 1 12 16
M  V30 16 1 16 17
M  V30 17 2 17 18
M  V30 18 1 2 19
M  V30 19 2 19 20
M  V30 20 1 20 21
M  V30 21 2 21 22
M  V30 22 1 22 23
M  V30 23 1 22 24
M  V30 24 2 24 25
M  V30 25 1 18 7
M  V30 26 1 25 19
M  V30 27 2 16 9
M  V30 28 1 15 13
M  V30 29 1 1 26
M  V30 30 1 1 27
M  V30 31 1 1 28
M  V30 32 1 2 29 CFG=1
M  V30 33 1 3 30
M  V30 34 1 6 31
M  V30 35 1 8 32
M  V30 36 1 10 33
M  V30 37 1 13 34
M  V30 38 1 14 35
M  V30 39 1 14 36
M  V30 40 1 15 37
M  V30 41 1 15 38
M  V30 42 1 17 39
M  V30 43 1 20 40
M  V30 44 1 21 41
M  V30 45 1 24 42
M  V30 46 1 25 43
M  V30 END BOND
M  V30 END CTAB
M  END
>  <Dataset>  (184) 
ChEMBL_Kinases

>  <Ligand_Instance>  (184) 
nan

>  <PDB_ID>  (184) 
nan

>  <Standardized_SMILES>  (184) 
C[C@@H](NC(=O)Nc1cc2[nH]nc(C3CC3)c2cn1)c1ccc(Cl)cc1

>  <Name>  (184) 
nan

>  <Pocket>  (184) 
nan

>  <ATP_Site>  (184) 
nan

>  <Peripheral>  (184) 
nan

>  <Num_H_Atoms_ProtBoundConf>  (184) 
nan

>  <Num_Resolved_Atoms>  (184) 
nan

>  <Num_Not_Resolved_Atoms>  (184) 
nan

$$$$
CHEMBL3654779
     RDKit          3D

  0  0  0  0  0  0  0  0  0  0999 V3000
M  V30 BEGIN CTAB
M  V30 COUNTS 45 48 0 0 0
M  V30 BEGIN ATOM
M  V30 1 C -1.200498 -4.889796 2.998684 0
M  V30 2 C -1.702470 -3.895003 2.004901 0 CFG=1
M  V30 3 N -0.661211 -3.524204 1.034931 0
M  V30 4 C -0.201719 -2.184088 0.962340 0
M  V30 5 O -0.687036 -1.320448 1.727577 0
M  V30 6 N 0.818249 -1.789882 0.021555 0
M  V30 7 C 1.212997 -0.416792 0.026219 0
M  V30 8 C 0.545698 0.479978 -0.793103 0
M  V30 9 C 0.965080 1.786274 -0.749368 0
M  V30 10 N 0.591330 2.915821 -1.376274 0
M  V30 11 N 1.297210 3.962622 -1.017111 0
M  V30 12 C 2.224675 3.577019 -0.087928 0
M  V30 13 C 3.152848 4.523770 0.525546 0
M  V30 14 C 4.587755 4.443011 0.050768 0
M  V30 15 C 4.958272 4.117690 1.489147 0
M  V30 16 C 3.538396 4.370414 1.960954 0
M  V30 17 C 1.992062 2.245190 0.048579 0
M  V30 18 C 2.619325 1.308821 0.841461 0
M  V30 19 N 2.229763 0.023428 0.819069 0
M  V30 20 C -2.925257 -4.341091 1.302113 0
M  V30 21 C -4.223318 -3.976234 1.595027 0
M  V30 22 C -5.300729 -4.446471 0.880208 0
M  V30 23 C -5.109123 -5.323193 -0.182670 0
M  V30 24 C -3.794735 -5.666837 -0.447298 0
M  V30 25 N -2.773423 -5.193103 0.264975 0
M  V30 26 H -0.100897 -4.787830 3.098744 0
M  V30 27 H -1.452924 -5.938375 2.738990 0
M  V30 28 H -1.638567 -4.649237 3.988843 0
M  V30 29 H -1.940386 -2.951111 2.537167 0
M  V30 30 H -0.275699 -4.262463 0.411296 0
M  V30 31 H 1.192157 -2.565156 -0.601221 0
M  V30 32 H -0.272938 0.201636 -1.450881 0
M  V30 33 H -0.179669 3.024527 -2.093327 0
M  V30 34 H 2.819231 5.595525 0.332957 0
M  V30 35 H 4.723145 3.647824 -0.683911 0
M  V30 36 H 5.048169 5.375934 -0.310604 0
M  V30 37 H 5.267962 3.089458 1.669334 0
M  V30 38 H 5.710916 4.845459 1.916408 0
M  V30 39 H 3.060181 3.594983 2.559473 0
M  V30 40 H 3.523416 5.369475 2.518226 0
M  V30 41 H 3.436304 1.594820 1.482542 0
M  V30 42 H -4.312272 -3.284313 2.441499 0
M  V30 43 H -6.263021 -4.065467 1.234304 0
M  V30 44 H -6.003339 -5.639591 -0.684396 0
M  V30 45 H -3.667078 -6.355998 -1.285602 0
M  V30 END ATOM
M  V30 BEGIN BOND
M  V30 1 1 1 2
M  V30 2 1 2 3
M  V30 3 1 3 4
M  V30 4 2 4 5
M  V30 5 1 4 6
M  V30 6 1 6 7
M  V30 7 2 7 8
M  V30 8 1 8 9
M  V30 9 1 9 10
M  V30 10 1 10 11
M  V30 11 2 11 12
M  V30 12 1 12 13
M  V30 13 1 13 14
M  V30 14 1 14 15
M  V30 15 1 15 16
M  V30 16 1 12 17
M  V30 17 1 17 18
M  V30 18 2 18 19
M  V30 19 1 2 20
M  V30 20 2 20 21
M  V30 21 1 21 22
M  V30 22 2 22 23
M  V30 23 1 23 24
M  V30 24 2 24 25
M  V30 25 1 19 7
M  V30 26 1 25 20
M  V30 27 2 17 9
M  V30 28 1 16 13
M  V30 29 1 1 26
M  V30 30 1 1 27
M  V30 31 1 1 28
M  V30 32 1 2 29 CFG=1
M  V30 33 1 3 30
M  V30 34 1 6 31
M  V30 35 1 8 32
M  V30 36 1 10 33
M  V30 37 1 13 34
M  V30 38 1 14 35
M  V30 39 1 14 36
M  V30 40 1 15 37
M  V30 41 1 15 38
M  V30 42 1 16 39
M  V30 43 1 16 40
M  V30 44 1 18 41
M  V30 45 1 21 42
M  V30 46 1 22 43
M  V30 47 1 23 44
M  V30 48 1 24 45
M  V30 END BOND
M  V30 END CTAB
M  END
>  <Dataset>  (185) 
ChEMBL_Kinases

>  <Ligand_Instance>  (185) 
nan

>  <PDB_ID>  (185) 
nan

>  <Standardized_SMILES>  (185) 
C[C@@H](NC(=O)Nc1cc2[nH]nc(C3CCC3)c2cn1)c1ccccn1

>  <Name>  (185) 
nan

>  <Pocket>  (185) 
nan

>  <ATP_Site>  (185) 
nan

>  <Peripheral>  (185) 
nan

>  <Num_H_Atoms_ProtBoundConf>  (185) 
nan

>  <Num_Resolved_Atoms>  (185) 
nan

>  <Num_Not_Resolved_Atoms>  (185) 
nan

$$$$
CHEMBL3658450
     RDKit          3D

  0  0  0  0  0  0  0  0  0  0999 V3000
M  V30 BEGIN CTAB
M  V30 COUNTS 66 71 0 0 0
M  V30 BEGIN ATOM
M  V30 1 C 5.012451 1.326410 2.988465 0
M  V30 2 N 3.706780 1.882658 2.888410 0
M  V30 3 C 3.508752 2.777941 1.811019 0
M  V30 4 C 2.190231 3.507201 1.797662 0
M  V30 5 C 2.042213 4.213516 0.495153 0
M  V30 6 C 2.079745 3.430876 -0.723488 0
M  V30 7 C 1.196288 2.656489 -1.423104 0
M  V30 8 F -0.045971 2.614496 -0.893585 0
M  V30 9 C 1.428016 1.956036 -2.580935 0
M  V30 10 C 2.687984 2.015051 -3.137008 0
M  V30 11 C 3.649335 2.770510 -2.506550 0
M  V30 12 C 3.341157 3.444860 -1.347458 0
M  V30 13 F 4.416065 4.148283 -0.854782 0
M  V30 14 C 1.040447 2.726206 2.304185 0
M  V30 15 C 1.336014 1.258486 2.549206 0
M  V30 16 N 1.275994 0.499306 1.319378 0
M  V30 17 C 0.286139 -0.532267 1.120870 0
M  V30 18 O -0.510380 -0.699489 2.108374 0
M  V30 19 C 0.182458 -1.331872 -0.095341 0
M  V30 20 C 0.994104 -1.261113 -1.207407 0
M  V30 21 C 0.798125 -2.073730 -2.303398 0
M  V30 22 C -0.218875 -3.002892 -2.351512 0
M  V30 23 N -0.659774 -3.919643 -3.252404 0
M  V30 24 N -1.692593 -4.530431 -2.729020 0
M  V30 25 C -1.975539 -4.065373 -1.502507 0
M  V30 26 C -3.063966 -4.538913 -0.656660 0
M  V30 27 C -3.164435 -5.928763 -0.614144 0
M  V30 28 C -4.161715 -6.492612 0.158425 0
M  V30 29 C -5.071730 -5.774156 0.895780 0
M  V30 30 N -6.112130 -6.000787 1.711665 0
M  V30 31 N -6.622194 -4.855093 2.144759 0
M  V30 32 C -7.771060 -4.847251 3.053867 0
M  V30 33 C -5.925645 -3.824707 1.621741 0
M  V30 34 C -4.933346 -4.384466 0.823191 0
M  V30 35 C -3.958048 -3.780400 0.069219 0
M  V30 36 C -1.032660 -3.075012 -1.238743 0
M  V30 37 C -0.838048 -2.262544 -0.141197 0
M  V30 38 C 2.622412 1.054533 3.276398 0
M  V30 39 H 4.942582 0.400764 3.630117 0
M  V30 40 H 5.792461 1.991152 3.387391 0
M  V30 41 H 5.271031 0.937607 1.960871 0
M  V30 42 H 3.623679 2.216673 0.851819 0
M  V30 43 H 4.314633 3.566795 1.893122 0
M  V30 44 H 2.345202 4.364029 2.557070 0
M  V30 45 H 2.793183 5.044261 0.475967 0
M  V30 46 H 1.044993 4.775056 0.477223 0
M  V30 47 H 0.623260 1.389597 -3.010160 0
M  V30 48 H 2.824471 1.452550 -4.042077 0
M  V30 49 H 4.616742 2.782847 -2.982657 0
M  V30 50 H 0.711869 3.108359 3.317504 0
M  V30 51 H 0.163234 2.792582 1.665753 0
M  V30 52 H 0.517089 0.887674 3.226972 0
M  V30 53 H 1.904831 0.612529 0.499801 0
M  V30 54 H 1.786337 -0.536597 -1.165539 0
M  V30 55 H 1.466660 -1.975423 -3.150802 0
M  V30 56 H -0.145089 -3.989442 -4.156133 0
M  V30 57 H -2.494313 -6.601569 -1.160451 0
M  V30 58 H -4.261952 -7.580502 0.209067 0
M  V30 59 H -8.713234 -5.132621 2.537224 0
M  V30 60 H -7.914574 -3.819641 3.448426 0
M  V30 61 H -7.560739 -5.522699 3.921614 0
M  V30 62 H -6.130357 -2.789131 1.810163 0
M  V30 63 H -3.821921 -2.710931 -0.010771 0
M  V30 64 H -1.531545 -2.386865 0.699644 0
M  V30 65 H 2.926721 -0.014029 3.071945 0
M  V30 66 H 2.424928 1.061328 4.375611 0
M  V30 END ATOM
M  V30 BEGIN BOND
M  V30 1 1 1 2
M  V30 2 1 2 3
M  V30 3 1 3 4
M  V30 4 1 4 5
M  V30 5 1 5 6
M  V30 6 2 6 7
M  V30 7 1 7 8
M  V30 8 1 7 9
M  V30 9 2 9 10
M  V30 10 1 10 11
M  V30 11 2 11 12
M  V30 12 1 12 13
M  V30 13 1 4 14
M  V30 14 1 14 15
M  V30 15 1 15 16
M  V30 16 1 16 17
M  V30 17 2 17 18
M  V30 18 1 17 19
M  V30 19 2 19 20
M  V30 20 1 20 21
M  V30 21 2 21 22
M  V30 22 1 22 23
M  V30 23 1 23 24
M  V30 24 2 24 25
M  V30 25 1 25 26
M  V30 26 1 26 27
M  V30 27 2 27 28
M  V30 28 1 28 29
M  V30 29 2 29 30
M  V30 30 1 30 31
M  V30 31 1 31 32
M  V30 32 1 31 33
M  V30 33 2 33 34
M  V30 34 1 34 35
M  V30 35 1 25 36
M  V30 36 2 36 37
M  V30 37 1 15 38
M  V30 38 1 38 2
M  V30 39 1 12 6
M  V30 40 1 37 19
M  V30 41 1 36 22
M  V30 42 2 35 26
M  V30 43 1 34 29
M  V30 44 1 1 39
M  V30 45 1 1 40
M  V30 46 1 1 41
M  V30 47 1 3 42
M  V30 48 1 3 43
M  V30 49 1 4 44
M  V30 50 1 5 45
M  V30 51 1 5 46
M  V30 52 1 9 47
M  V30 53 1 10 48
M  V30 54 1 11 49
M  V30 55 1 14 50
M  V30 56 1 14 51
M  V30 57 1 15 52
M  V30 58 1 16 53
M  V30 59 1 20 54
M  V30 60 1 21 55
M  V30 61 1 23 56
M  V30 62 1 27 57
M  V30 63 1 28 58
M  V30 64 1 32 59
M  V30 65 1 32 60
M  V30 66 1 32 61
M  V30 67 1 33 62
M  V30 68 1 35 63
M  V30 69 1 37 64
M  V30 70 1 38 65
M  V30 71 1 38 66
M  V30 END BOND
M  V30 END CTAB
M  END
>  <Dataset>  (186) 
ChEMBL_Kinases

>  <Ligand_Instance>  (186) 
nan

>  <PDB_ID>  (186) 
nan

>  <Standardized_SMILES>  (186) 
CN1CC(Cc2c(F)cccc2F)CC(NC(=O)c2ccc3[nH]nc(-c4ccc5nn(C)cc5c4)c3c2)C1

>  <Name>  (186) 
nan

>  <Pocket>  (186) 
nan

>  <ATP_Site>  (186) 
nan

>  <Peripheral>  (186) 
nan

>  <Num_H_Atoms_ProtBoundConf>  (186) 
nan

>  <Num_Resolved_Atoms>  (186) 
nan

>  <Num_Not_Resolved_Atoms>  (186) 
nan

$$$$
CHEMBL3654762
     RDKit          3D

  0  0  0  0  0  0  0  0  0  0999 V3000
M  V30 BEGIN CTAB
M  V30 COUNTS 60 63 0 0 0
M  V30 BEGIN ATOM
M  V30 1 C 3.782099 -6.973153 1.377721 0
M  V30 2 C 4.370141 -5.623083 1.681927 0 CFG=1
M  V30 3 N 3.407640 -4.722325 2.285260 0
M  V30 4 C 2.993844 -3.601854 1.470357 0
M  V30 5 O 3.365729 -3.313118 0.310815 0
M  V30 6 N 2.029175 -2.804723 2.205374 0
M  V30 7 C 1.425004 -1.665349 1.599599 0
M  V30 8 C 2.002250 -0.417259 1.595468 0
M  V30 9 C 1.262021 0.569875 0.978417 0
M  V30 10 N 1.441400 1.877605 0.737367 0
M  V30 11 N 0.417922 2.396716 0.077314 0
M  V30 12 C -0.507764 1.439758 -0.154026 0
M  V30 13 C -1.687412 1.832977 -0.869931 0
M  V30 14 O -1.612007 2.933641 -1.536699 0
M  V30 15 N -2.978350 1.348830 -1.067940 0
M  V30 16 C -4.258052 1.425255 -1.619539 0
M  V30 17 C -5.138250 2.605317 -1.266258 0
M  V30 18 C -6.437821 2.358395 -2.006739 0
M  V30 19 C -7.353172 3.522177 -2.098085 0
M  V30 20 C -6.563900 4.692464 -2.715898 0
M  V30 21 C -5.519558 5.006563 -1.669252 0
M  V30 22 O -4.934922 6.239176 -1.971097 0
M  V30 23 C -4.485775 3.901903 -1.627780 0
M  V30 24 C 0.033862 0.311615 0.410967 0
M  V30 25 C -0.515848 -0.945973 0.430767 0
M  V30 26 N 0.206735 -1.907414 1.032439 0
M  V30 27 C 5.608970 -5.806713 2.461821 0
M  V30 28 C 6.922552 -5.802848 1.968694 0
M  V30 29 C 7.986281 -5.997026 2.833267 0
M  V30 30 C 7.819378 -6.196839 4.176673 0
M  V30 31 C 6.529815 -6.200853 4.664055 0
M  V30 32 C 5.431873 -6.011376 3.840009 0
M  V30 33 H 3.667509 -7.171326 0.282395 0
M  V30 34 H 4.494337 -7.745720 1.728010 0
M  V30 35 H 2.848674 -7.173389 1.936604 0
M  V30 36 H 4.651594 -5.193790 0.682552 0
M  V30 37 H 3.073308 -4.923457 3.248514 0
M  V30 38 H 1.589272 -2.852131 3.156270 0
M  V30 39 H 2.964207 -0.226222 2.043615 0
M  V30 40 H 2.285906 2.408867 1.038443 0
M  V30 41 H -2.926889 0.470030 -0.451056 0
M  V30 42 H -4.868598 0.525755 -1.330666 0
M  V30 43 H -4.253262 1.363593 -2.744906 0
M  V30 44 H -5.347893 2.523758 -0.175532 0
M  V30 45 H -6.296477 1.866058 -2.991364 0
M  V30 46 H -6.977066 1.572936 -1.395917 0
M  V30 47 H -7.692327 3.857069 -1.087861 0
M  V30 48 H -8.175504 3.296930 -2.774418 0
M  V30 49 H -6.104788 4.321521 -3.659923 0
M  V30 50 H -7.247848 5.544328 -2.853812 0
M  V30 51 H -6.034373 5.010314 -0.684676 0
M  V30 52 H -4.912933 6.286463 -2.968142 0
M  V30 53 H -3.806869 4.157472 -0.772612 0
M  V30 54 H -3.977421 3.771537 -2.587278 0
M  V30 55 H -1.467174 -1.160225 -0.017474 0
M  V30 56 H 6.984026 -5.639103 0.902508 0
M  V30 57 H 8.977107 -5.981870 2.381633 0
M  V30 58 H 8.676709 -6.348270 4.831217 0
M  V30 59 H 6.339780 -6.356865 5.726762 0
M  V30 60 H 4.449807 -6.021588 4.266917 0
M  V30 END ATOM
M  V30 BEGIN BOND
M  V30 1 1 1 2
M  V30 2 1 2 3
M  V30 3 1 3 4
M  V30 4 2 4 5
M  V30 5 1 4 6
M  V30 6 1 6 7
M  V30 7 2 7 8
M  V30 8 1 8 9
M  V30 9 1 9 10
M  V30 10 1 10 11
M  V30 11 2 11 12
M  V30 12 1 12 13
M  V30 13 2 13 14
M  V30 14 1 13 15
M  V30 15 1 15 16
M  V30 16 1 16 17
M  V30 17 1 17 18
M  V30 18 1 18 19
M  V30 19 1 19 20
M  V30 20 1 20 21
M  V30 21 1 21 22
M  V30 22 1 21 23
M  V30 23 1 12 24
M  V30 24 1 24 25
M  V30 25 2 25 26
M  V30 26 1 2 27
M  V30 27 2 27 28
M  V30 28 1 28 29
M  V30 29 2 29 30
M  V30 30 1 30 31
M  V30 31 2 31 32
M  V30 32 1 26 7
M  V30 33 1 32 27
M  V30 34 2 24 9
M  V30 35 1 23 17
M  V30 36 1 1 33
M  V30 37 1 1 34
M  V30 38 1 1 35
M  V30 39 1 2 36 CFG=3
M  V30 40 1 3 37
M  V30 41 1 6 38
M  V30 42 1 8 39
M  V30 43 1 10 40
M  V30 44 1 15 41
M  V30 45 1 16 42
M  V30 46 1 16 43
M  V30 47 1 17 44
M  V30 48 1 18 45
M  V30 49 1 18 46
M  V30 50 1 19 47
M  V30 51 1 19 48
M  V30 52 1 20 49
M  V30 53 1 20 50
M  V30 54 1 21 51
M  V30 55 1 22 52
M  V30 56 1 23 53
M  V30 57 1 23 54
M  V30 58 1 25 55
M  V30 59 1 28 56
M  V30 60 1 29 57
M  V30 61 1 30 58
M  V30 62 1 31 59
M  V30 63 1 32 60
M  V30 END BOND
M  V30 END CTAB
M  END
>  <Dataset>  (187) 
ChEMBL_Kinases

>  <Ligand_Instance>  (187) 
nan

>  <PDB_ID>  (187) 
nan

>  <Standardized_SMILES>  (187) 
C[C@@H](NC(=O)Nc1cc2[nH]nc(C(=O)NCC3CCCC(O)C3)c2cn1)c1ccccc1

>  <Name>  (187) 
nan

>  <Pocket>  (187) 
nan

>  <ATP_Site>  (187) 
nan

>  <Peripheral>  (187) 
nan

>  <Num_H_Atoms_ProtBoundConf>  (187) 
nan

>  <Num_Resolved_Atoms>  (187) 
nan

>  <Num_Not_Resolved_Atoms>  (187) 
nan

$$$$
CHEMBL3654763
     RDKit          3D

  0  0  0  0  0  0  0  0  0  0999 V3000
M  V30 BEGIN CTAB
M  V30 COUNTS 54 56 0 0 0
M  V30 BEGIN ATOM
M  V30 1 C 3.666700 -3.909313 2.503214 0
M  V30 2 O 4.353066 -3.106286 1.608100 0
M  V30 3 C 5.720274 -3.189202 1.765945 0
M  V30 4 C 6.491079 -2.312308 0.789427 0
M  V30 5 O 7.872420 -2.479744 1.032109 0
M  V30 6 C 6.220151 -0.853282 1.024062 0
M  V30 7 N 4.818286 -0.601811 0.772053 0
M  V30 8 C 4.508828 0.752142 0.990741 0
M  V30 9 O 5.598807 1.313250 1.347114 0
M  V30 10 C 3.336688 1.588104 0.911708 0
M  V30 11 N 3.495064 2.894021 1.210023 0
M  V30 12 N 2.316618 3.514144 1.086908 0
M  V30 13 C 1.339471 2.675945 0.710581 0
M  V30 14 C -0.008356 2.761147 0.443832 0
M  V30 15 C -0.614770 1.583954 0.077752 0
M  V30 16 N -2.010057 1.618547 -0.208440 0
M  V30 17 C -2.715120 0.442768 -0.593778 0
M  V30 18 O -2.037133 -0.602409 -0.662491 0
M  V30 19 N -4.106132 0.373089 -0.899631 0
M  V30 20 C -4.748900 -0.848474 -1.280736 0 CFG=2
M  V30 21 C -5.199905 -0.756520 -2.717077 0
M  V30 22 C -5.793117 -1.316313 -0.353944 0
M  V30 23 C -5.891537 -2.636139 0.053923 0
M  V30 24 C -6.846726 -3.134734 0.918963 0
M  V30 25 C -7.785979 -2.256298 1.425614 0
M  V30 26 C -7.732257 -0.918961 1.047959 0
M  V30 27 C -6.751242 -0.445672 0.169282 0
M  V30 28 N 0.032513 0.401318 -0.025338 0
M  V30 29 C 1.346596 0.332118 0.237492 0
M  V30 30 C 2.003924 1.478581 0.608063 0
M  V30 31 H 3.983232 -4.949544 2.330143 0
M  V30 32 H 2.589689 -3.841207 2.291929 0
M  V30 33 H 3.911490 -3.656075 3.553820 0
M  V30 34 H 5.984710 -2.829021 2.789290 0
M  V30 35 H 6.081311 -4.235879 1.728475 0
M  V30 36 H 6.265846 -2.671707 -0.221884 0
M  V30 37 H 8.006760 -3.464943 1.194794 0
M  V30 38 H 6.889130 -0.198690 0.430564 0
M  V30 39 H 6.416511 -0.666723 2.106187 0
M  V30 40 H 3.985228 -1.142110 0.472486 0
M  V30 41 H 2.204584 4.535021 1.270227 0
M  V30 42 H -0.471196 3.709991 0.538373 0
M  V30 43 H -2.575658 2.475949 -0.154202 0
M  V30 44 H -4.641612 1.251905 -0.834859 0
M  V30 45 H -3.946843 -1.643731 -1.272843 0
M  V30 46 H -6.143449 -0.239070 -2.878352 0
M  V30 47 H -4.411826 -0.144108 -3.241055 0
M  V30 48 H -5.118350 -1.758627 -3.203107 0
M  V30 49 H -5.184995 -3.374298 -0.307572 0
M  V30 50 H -6.891055 -4.163142 1.211818 0
M  V30 51 H -8.540245 -2.622907 2.101783 0
M  V30 52 H -8.481940 -0.257791 1.462294 0
M  V30 53 H -6.737808 0.604838 -0.104942 0
M  V30 54 H 1.838189 -0.603246 0.151901 0
M  V30 END ATOM
M  V30 BEGIN BOND
M  V30 1 1 1 2
M  V30 2 1 2 3
M  V30 3 1 3 4
M  V30 4 1 4 5
M  V30 5 1 4 6
M  V30 6 1 6 7
M  V30 7 1 7 8
M  V30 8 2 8 9
M  V30 9 1 8 10
M  V30 10 2 10 11
M  V30 11 1 11 12
M  V30 12 1 12 13
M  V30 13 2 13 14
M  V30 14 1 14 15
M  V30 15 1 15 16
M  V30 16 1 16 17
M  V30 17 2 17 18
M  V30 18 1 17 19
M  V30 19 1 19 20
M  V30 20 1 20 21
M  V30 21 1 20 22
M  V30 22 2 22 23
M  V30 23 1 23 24
M  V30 24 2 24 25
M  V30 25 1 25 26
M  V30 26 2 26 27
M  V30 27 2 15 28
M  V30 28 1 28 29
M  V30 29 2 29 30
M  V30 30 1 30 10
M  V30 31 1 30 13
M  V30 32 1 27 22
M  V30 33 1 1 31
M  V30 34 1 1 32
M  V30 35 1 1 33
M  V30 36 1 3 34
M  V30 37 1 3 35
M  V30 38 1 4 36
M  V30 39 1 5 37
M  V30 40 1 6 38
M  V30 41 1 6 39
M  V30 42 1 7 40
M  V30 43 1 12 41
M  V30 44 1 14 42
M  V30 45 1 16 43
M  V30 46 1 19 44
M  V30 47 1 20 45 CFG=3
M  V30 48 1 21 46
M  V30 49 1 21 47
M  V30 50 1 21 48
M  V30 51 1 23 49
M  V30 52 1 24 50
M  V30 53 1 25 51
M  V30 54 1 26 52
M  V30 55 1 27 53
M  V30 56 1 29 54
M  V30 END BOND
M  V30 END CTAB
M  END
>  <Dataset>  (188) 
ChEMBL_Kinases

>  <Ligand_Instance>  (188) 
nan

>  <PDB_ID>  (188) 
nan

>  <Standardized_SMILES>  (188) 
COCC(O)CNC(=O)c1n[nH]c2cc(NC(=O)N[C@H](C)c3ccccc3)ncc12

>  <Name>  (188) 
nan

>  <Pocket>  (188) 
nan

>  <ATP_Site>  (188) 
nan

>  <Peripheral>  (188) 
nan

>  <Num_H_Atoms_ProtBoundConf>  (188) 
nan

>  <Num_Resolved_Atoms>  (188) 
nan

>  <Num_Not_Resolved_Atoms>  (188) 
nan

$$$$
CHEMBL3654764
     RDKit          3D

  0  0  0  0  0  0  0  0  0  0999 V3000
M  V30 BEGIN CTAB
M  V30 COUNTS 52 55 0 0 0
M  V30 BEGIN ATOM
M  V30 1 C 3.530456 -3.968169 4.226153 0
M  V30 2 C 2.599001 -4.167195 3.048898 0 CFG=1
M  V30 3 N 3.051930 -3.373470 1.896957 0
M  V30 4 C 2.249923 -2.315594 1.382706 0
M  V30 5 O 1.129878 -1.986343 1.854007 0
M  V30 6 N 2.749038 -1.572643 0.251022 0
M  V30 7 C 1.942773 -0.512323 -0.262906 0
M  V30 8 C 2.385747 0.225879 -1.343371 0
M  V30 9 C 1.581216 1.242519 -1.813868 0
M  V30 10 N 1.635194 2.156329 -2.795798 0
M  V30 11 N 0.541305 2.935110 -2.812845 0
M  V30 12 C -0.283470 2.550333 -1.822599 0
M  V30 13 C -1.520239 3.273898 -1.680138 0
M  V30 14 O -1.743410 4.228044 -2.506789 0
M  V30 15 N -2.626463 3.234102 -0.841515 0
M  V30 16 C -3.773567 4.040723 -0.849779 0 CFG=2
M  V30 17 C -4.048097 4.830196 0.388673 0
M  V30 18 C -5.522032 5.144096 0.199417 0
M  V30 19 N -6.049388 3.807026 -0.114310 0
M  V30 20 O -7.072196 2.961660 0.158853 0
M  V30 21 C -5.056021 3.322942 -1.036734 0
M  V30 22 O -5.040611 2.447687 -1.941291 0
M  V30 23 C 0.368662 1.507290 -1.215032 0
M  V30 24 C -0.051564 0.772966 -0.154945 0
M  V30 25 N 0.745459 -0.214333 0.290691 0
M  V30 26 C 2.432250 -5.586402 2.669502 0
M  V30 27 C 3.421579 -6.156895 1.924590 0
M  V30 28 C 3.388917 -7.488254 1.499234 0
M  V30 29 C 2.311443 -8.278474 1.840166 0
M  V30 30 C 1.323281 -7.686505 2.591598 0
M  V30 31 C 1.347690 -6.374219 3.015204 0
M  V30 32 H 4.588781 -4.137457 3.966374 0
M  V30 33 H 3.174006 -4.636703 5.027113 0
M  V30 34 H 3.344888 -2.921903 4.584392 0
M  V30 35 H 1.607456 -3.793209 3.380750 0
M  V30 36 H 3.963694 -3.588308 1.457067 0
M  V30 37 H 3.650031 -1.790265 -0.176972 0
M  V30 38 H 3.316965 0.050137 -1.831488 0
M  V30 39 H 2.417314 2.263130 -3.468092 0
M  V30 40 H -2.565352 2.492178 -0.117532 0
M  V30 41 H -3.708848 4.785676 -1.679456 0
M  V30 42 H -3.983774 4.275135 1.333489 0
M  V30 43 H -3.519679 5.804246 0.416583 0
M  V30 44 H -5.713833 5.855824 -0.605578 0
M  V30 45 H -6.000634 5.418151 1.166495 0
M  V30 46 H -7.877357 3.151367 -0.388411 0
M  V30 47 H -0.992018 0.962736 0.325804 0
M  V30 48 H 4.319604 -5.640044 1.593150 0
M  V30 49 H 4.165846 -7.949193 0.909747 0
M  V30 50 H 2.205376 -9.320972 1.552293 0
M  V30 51 H 0.456087 -8.263252 2.885877 0
M  V30 52 H 0.567106 -5.913797 3.606332 0
M  V30 END ATOM
M  V30 BEGIN BOND
M  V30 1 1 1 2
M  V30 2 1 2 3
M  V30 3 1 3 4
M  V30 4 2 4 5
M  V30 5 1 4 6
M  V30 6 1 6 7
M  V30 7 2 7 8
M  V30 8 1 8 9
M  V30 9 1 9 10
M  V30 10 1 10 11
M  V30 11 2 11 12
M  V30 12 1 12 13
M  V30 13 2 13 14
M  V30 14 1 13 15
M  V30 15 1 15 16
M  V30 16 1 16 17
M  V30 17 1 17 18
M  V30 18 1 18 19
M  V30 19 1 19 20
M  V30 20 1 19 21
M  V30 21 2 21 22
M  V30 22 1 12 23
M  V30 23 1 23 24
M  V30 24 2 24 25
M  V30 25 1 2 26
M  V30 26 2 26 27
M  V30 27 1 27 28
M  V30 28 2 28 29
M  V30 29 1 29 30
M  V30 30 2 30 31
M  V30 31 1 25 7
M  V30 32 1 31 26
M  V30 33 2 23 9
M  V30 34 1 21 16
M  V30 35 1 1 32
M  V30 36 1 1 33
M  V30 37 1 1 34
M  V30 38 1 2 35 CFG=1
M  V30 39 1 3 36
M  V30 40 1 6 37
M  V30 41 1 8 38
M  V30 42 1 10 39
M  V30 43 1 15 40
M  V30 44 1 16 41 CFG=3
M  V30 45 1 17 42
M  V30 46 1 17 43
M  V30 47 1 18 44
M  V30 48 1 18 45
M  V30 49 1 20 46
M  V30 50 1 24 47
M  V30 51 1 27 48
M  V30 52 1 28 49
M  V30 53 1 29 50
M  V30 54 1 30 51
M  V30 55 1 31 52
M  V30 END BOND
M  V30 END CTAB
M  END
>  <Dataset>  (189) 
ChEMBL_Kinases

>  <Ligand_Instance>  (189) 
nan

>  <PDB_ID>  (189) 
nan

>  <Standardized_SMILES>  (189) 
C[C@@H](NC(=O)Nc1cc2[nH]nc(C(=O)N[C@@H]3CCN(O)C3=O)c2cn1)c1ccccc1

>  <Name>  (189) 
nan

>  <Pocket>  (189) 
nan

>  <ATP_Site>  (189) 
nan

>  <Peripheral>  (189) 
nan

>  <Num_H_Atoms_ProtBoundConf>  (189) 
nan

>  <Num_Resolved_Atoms>  (189) 
nan

>  <Num_Not_Resolved_Atoms>  (189) 
nan

$$$$
CHEMBL3654765
     RDKit          3D

  0  0  0  0  0  0  0  0  0  0999 V3000
M  V30 BEGIN CTAB
M  V30 COUNTS 59 61 0 0 0
M  V30 BEGIN ATOM
M  V30 1 C 5.344274 1.030640 3.256547 0
M  V30 2 C 5.664899 1.714608 1.936433 0
M  V30 3 C 6.055375 0.622708 0.964050 0
M  V30 4 C 4.404559 2.430550 1.473377 0
M  V30 5 C 3.950088 3.453304 2.460048 0
M  V30 6 O 4.952468 4.403205 2.635624 0
M  V30 7 C 2.685777 4.145348 2.088186 0
M  V30 8 N 1.583674 3.259421 1.878520 0
M  V30 9 C 0.294411 3.677821 1.522051 0
M  V30 10 O 0.350017 4.939739 1.440606 0
M  V30 11 C -0.929136 2.995503 1.265548 0
M  V30 12 N -1.977355 3.777194 0.935280 0
M  V30 13 N -3.045476 2.990100 0.725030 0
M  V30 14 C -2.773506 1.687452 0.898438 0
M  V30 15 C -3.433120 0.494839 0.824564 0
M  V30 16 C -2.741128 -0.667613 1.093872 0
M  V30 17 N -3.392536 -1.956299 1.027593 0
M  V30 18 C -3.270306 -2.483584 -0.307209 0
M  V30 19 O -2.685729 -1.921197 -1.295468 0
M  V30 20 N -3.814707 -3.741699 -0.671165 0
M  V30 21 C -3.697244 -4.284043 -2.023269 0 CFG=2
M  V30 22 C -5.112458 -4.501642 -2.516684 0
M  V30 23 C -2.990489 -5.588733 -1.945352 0
M  V30 24 C -1.987538 -5.874815 -2.862370 0
M  V30 25 C -1.237415 -7.026912 -2.928097 0
M  V30 26 C -1.542273 -7.985534 -1.958355 0
M  V30 27 C -2.541760 -7.728133 -1.026273 0
M  V30 28 C -3.259300 -6.554434 -1.010631 0
M  V30 29 N -1.418556 -0.585755 1.425430 0
M  V30 30 C -0.764414 0.564532 1.501318 0
M  V30 31 C -1.445618 1.726008 1.234860 0
M  V30 32 H 5.788471 0.029641 3.346057 0
M  V30 33 H 4.237918 0.894733 3.388428 0
M  V30 34 H 5.707158 1.646404 4.088324 0
M  V30 35 H 6.483709 2.439782 2.002079 0
M  V30 36 H 7.064766 0.797000 0.502555 0
M  V30 37 H 5.339596 0.551249 0.118029 0
M  V30 38 H 6.128581 -0.381674 1.455656 0
M  V30 39 H 3.647022 1.678965 1.221054 0
M  V30 40 H 4.669575 2.939775 0.524395 0
M  V30 41 H 3.860171 2.935080 3.453004 0
M  V30 42 H 5.483939 4.259485 3.460653 0
M  V30 43 H 2.859889 4.868017 1.268510 0
M  V30 44 H 2.410794 4.796835 2.969001 0
M  V30 45 H 1.718032 2.238530 1.990119 0
M  V30 46 H -4.000597 3.355660 0.451771 0
M  V30 47 H -4.466487 0.491525 0.560322 0
M  V30 48 H -3.900119 -2.520089 1.752063 0
M  V30 49 H -4.323897 -4.328529 0.026691 0
M  V30 50 H -3.142913 -3.575982 -2.682465 0
M  V30 51 H -5.133520 -5.059402 -3.478821 0
M  V30 52 H -5.645362 -3.532194 -2.608625 0
M  V30 53 H -5.665390 -5.056850 -1.731686 0
M  V30 54 H -1.750484 -5.125001 -3.621023 0
M  V30 55 H -0.479330 -7.163361 -3.673251 0
M  V30 56 H -0.954360 -8.899965 -2.002345 0
M  V30 57 H -2.743538 -8.512114 -0.285784 0
M  V30 58 H -4.025456 -6.358630 -0.294663 0
M  V30 59 H 0.275225 0.563595 1.766998 0
M  V30 END ATOM
M  V30 BEGIN BOND
M  V30 1 1 1 2
M  V30 2 1 2 3
M  V30 3 1 2 4
M  V30 4 1 4 5
M  V30 5 1 5 6
M  V30 6 1 5 7
M  V30 7 1 7 8
M  V30 8 1 8 9
M  V30 9 2 9 10
M  V30 10 1 9 11
M  V30 11 2 11 12
M  V30 12 1 12 13
M  V30 13 1 13 14
M  V30 14 2 14 15
M  V30 15 1 15 16
M  V30 16 1 16 17
M  V30 17 1 17 18
M  V30 18 2 18 19
M  V30 19 1 18 20
M  V30 20 1 20 21
M  V30 21 1 21 22
M  V30 22 1 21 23
M  V30 23 2 23 24
M  V30 24 1 24 25
M  V30 25 2 25 26
M  V30 26 1 26 27
M  V30 27 2 27 28
M  V30 28 2 16 29
M  V30 29 1 29 30
M  V30 30 2 30 31
M  V30 31 1 31 11
M  V30 32 1 31 14
M  V30 33 1 28 23
M  V30 34 1 1 32
M  V30 35 1 1 33
M  V30 36 1 1 34
M  V30 37 1 2 35
M  V30 38 1 3 36
M  V30 39 1 3 37
M  V30 40 1 3 38
M  V30 41 1 4 39
M  V30 42 1 4 40
M  V30 43 1 5 41
M  V30 44 1 6 42
M  V30 45 1 7 43
M  V30 46 1 7 44
M  V30 47 1 8 45
M  V30 48 1 13 46
M  V30 49 1 15 47
M  V30 50 1 17 48
M  V30 51 1 20 49
M  V30 52 1 21 50 CFG=3
M  V30 53 1 22 51
M  V30 54 1 22 52
M  V30 55 1 22 53
M  V30 56 1 24 54
M  V30 57 1 25 55
M  V30 58 1 26 56
M  V30 59 1 27 57
M  V30 60 1 28 58
M  V30 61 1 30 59
M  V30 END BOND
M  V30 END CTAB
M  END
>  <Dataset>  (190) 
ChEMBL_Kinases

>  <Ligand_Instance>  (190) 
nan

>  <PDB_ID>  (190) 
nan

>  <Standardized_SMILES>  (190) 
CC(C)CC(O)CNC(=O)c1n[nH]c2cc(NC(=O)N[C@H](C)c3ccccc3)ncc12

>  <Name>  (190) 
nan

>  <Pocket>  (190) 
nan

>  <ATP_Site>  (190) 
nan

>  <Peripheral>  (190) 
nan

>  <Num_H_Atoms_ProtBoundConf>  (190) 
nan

>  <Num_Resolved_Atoms>  (190) 
nan

>  <Num_Not_Resolved_Atoms>  (190) 
nan

$$$$
CHEMBL3654766
     RDKit          3D

  0  0  0  0  0  0  0  0  0  0999 V3000
M  V30 BEGIN CTAB
M  V30 COUNTS 54 57 0 0 0
M  V30 BEGIN ATOM
M  V30 1 C -0.375344 -6.887616 -1.575094 0
M  V30 2 C 0.792014 -5.892655 -1.608228 0 CFG=1
M  V30 3 N 0.893344 -5.261121 -0.283290 0
M  V30 4 C 0.670481 -3.862762 -0.169831 0
M  V30 5 O 0.385739 -3.067722 -1.099240 0
M  V30 6 N 0.750375 -3.190385 1.061099 0
M  V30 7 C 0.545624 -1.798431 1.284238 0
M  V30 8 C 1.641218 -0.945471 1.196919 0
M  V30 9 C 1.432948 0.400972 1.414632 0
M  V30 10 N 2.151659 1.533923 1.433371 0
M  V30 11 N 1.406750 2.607582 1.712979 0
M  V30 12 C 0.123468 2.216579 1.896671 0
M  V30 13 C -0.808009 3.266732 2.207676 0
M  V30 14 O -0.390938 4.455283 2.277961 0
M  V30 15 N -2.177372 3.300115 2.474496 0
M  V30 16 C -2.993683 4.414965 2.772065 0
M  V30 17 C -3.105419 5.505790 1.779708 0
M  V30 18 O -3.606149 5.130319 0.517574 0
M  V30 19 C -4.124838 6.531519 2.323148 0
M  V30 20 C -3.294608 7.589511 1.624018 0
M  V30 21 C -2.114237 6.618862 1.798788 0
M  V30 22 C 0.167664 0.858941 1.707872 0
M  V30 23 C -0.903899 0.005812 1.790755 0
M  V30 24 N -0.676332 -1.300492 1.574835 0
M  V30 25 C 1.997301 -6.699370 -1.930925 0
M  V30 26 C 2.689182 -6.709121 -3.128253 0
M  V30 27 C 3.801759 -7.516013 -3.287611 0
M  V30 28 C 4.243516 -8.322229 -2.266519 0
M  V30 29 C 3.545872 -8.313275 -1.057301 0
M  V30 30 C 2.438022 -7.513285 -0.890833 0
M  V30 31 H -1.248386 -6.485485 -2.130439 0
M  V30 32 H -0.119077 -7.836321 -2.090060 0
M  V30 33 H -0.597264 -7.121173 -0.512997 0
M  V30 34 H 0.544030 -5.137425 -2.362190 0
M  V30 35 H 1.126297 -5.850483 0.545060 0
M  V30 36 H 0.984064 -3.731410 1.944401 0
M  V30 37 H 2.642718 -1.257258 0.971566 0
M  V30 38 H 3.184001 1.570370 1.248623 0
M  V30 39 H -2.656091 2.379221 2.450014 0
M  V30 40 H -4.019779 4.146615 3.094140 0
M  V30 41 H -2.546490 4.885568 3.702869 0
M  V30 42 H -3.140710 5.720924 -0.135993 0
M  V30 43 H -4.133694 6.589136 3.417202 0
M  V30 44 H -5.122565 6.479629 1.896130 0
M  V30 45 H -3.196340 8.510333 2.214202 0
M  V30 46 H -3.568938 7.693593 0.559461 0
M  V30 47 H -1.749438 6.746651 2.860548 0
M  V30 48 H -1.366158 6.695097 1.016290 0
M  V30 49 H -1.890024 0.340875 2.015953 0
M  V30 50 H 2.283441 -6.045132 -3.895296 0
M  V30 51 H 4.245596 -7.435557 -4.249196 0
M  V30 52 H 5.123455 -8.917531 -2.488162 0
M  V30 53 H 3.977660 -8.985951 -0.316600 0
M  V30 54 H 2.028544 -7.634694 0.101497 0
M  V30 END ATOM
M  V30 BEGIN BOND
M  V30 1 1 1 2
M  V30 2 1 2 3
M  V30 3 1 3 4
M  V30 4 2 4 5
M  V30 5 1 4 6
M  V30 6 1 6 7
M  V30 7 2 7 8
M  V30 8 1 8 9
M  V30 9 1 9 10
M  V30 10 1 10 11
M  V30 11 2 11 12
M  V30 12 1 12 13
M  V30 13 2 13 14
M  V30 14 1 13 15
M  V30 15 1 15 16
M  V30 16 1 16 17
M  V30 17 1 17 18
M  V30 18 1 17 19
M  V30 19 1 19 20
M  V30 20 1 20 21
M  V30 21 1 12 22
M  V30 22 1 22 23
M  V30 23 2 23 24
M  V30 24 1 2 25
M  V30 25 2 25 26
M  V30 26 1 26 27
M  V30 27 2 27 28
M  V30 28 1 28 29
M  V30 29 2 29 30
M  V30 30 1 24 7
M  V30 31 1 30 25
M  V30 32 2 22 9
M  V30 33 1 21 17
M  V30 34 1 1 31
M  V30 35 1 1 32
M  V30 36 1 1 33
M  V30 37 1 2 34 CFG=3
M  V30 38 1 3 35
M  V30 39 1 6 36
M  V30 40 1 8 37
M  V30 41 1 10 38
M  V30 42 1 15 39
M  V30 43 1 16 40
M  V30 44 1 16 41
M  V30 45 1 18 42
M  V30 46 1 19 43
M  V30 47 1 19 44
M  V30 48 1 20 45
M  V30 49 1 20 46
M  V30 50 1 21 47
M  V30 51 1 21 48
M  V30 52 1 23 49
M  V30 53 1 26 50
M  V30 54 1 27 51
M  V30 55 1 28 52
M  V30 56 1 29 53
M  V30 57 1 30 54
M  V30 END BOND
M  V30 END CTAB
M  END
>  <Dataset>  (191) 
ChEMBL_Kinases

>  <Ligand_Instance>  (191) 
nan

>  <PDB_ID>  (191) 
nan

>  <Standardized_SMILES>  (191) 
C[C@@H](NC(=O)Nc1cc2[nH]nc(C(=O)NCC3(O)CCC3)c2cn1)c1ccccc1

>  <Name>  (191) 
nan

>  <Pocket>  (191) 
nan

>  <ATP_Site>  (191) 
nan

>  <Peripheral>  (191) 
nan

>  <Num_H_Atoms_ProtBoundConf>  (191) 
nan

>  <Num_Resolved_Atoms>  (191) 
nan

>  <Num_Not_Resolved_Atoms>  (191) 
nan

$$$$
CHEMBL3654767
     RDKit          3D

  0  0  0  0  0  0  0  0  0  0999 V3000
M  V30 BEGIN CTAB
M  V30 COUNTS 43 45 0 0 0
M  V30 BEGIN ATOM
M  V30 1 C -0.658085 -7.413045 -3.628785 0
M  V30 2 N -0.263027 -6.175224 -2.998278 0
M  V30 3 C 0.029898 -6.188591 -1.638607 0
M  V30 4 O -0.143115 -7.403642 -1.269672 0
M  V30 5 C 0.445438 -5.235111 -0.641597 0
M  V30 6 N 0.622065 -5.689549 0.614570 0
M  V30 7 N 1.002024 -4.685203 1.395934 0
M  V30 8 C 1.099133 -3.527062 0.722111 0
M  V30 9 C 1.431380 -2.217221 0.986633 0
M  V30 10 C 1.399251 -1.308989 -0.042203 0
M  V30 11 N 1.752540 0.030993 0.289752 0
M  V30 12 C 0.728728 0.925099 0.708309 0
M  V30 13 O -0.451266 0.496024 0.768962 0
M  V30 14 N 0.943733 2.267394 1.062502 0
M  V30 15 C -0.134543 3.127491 1.479895 0 CFG=2
M  V30 16 C -0.379283 4.306080 0.585498 0
M  V30 17 C 0.106240 3.544969 2.882091 0
M  V30 18 C -0.920407 3.519881 3.801888 0
M  V30 19 C -0.811258 3.884856 5.127615 0
M  V30 20 C 0.436732 4.312440 5.569535 0
M  V30 21 C 1.493617 4.346594 4.655285 0
M  V30 22 C 1.339897 3.972732 3.338910 0
M  V30 23 N 1.042041 -1.715991 -1.297455 0
M  V30 24 C 0.716490 -2.986503 -1.569290 0
M  V30 25 C 0.742563 -3.910795 -0.552702 0
M  V30 26 H -1.157498 -7.176933 -4.579246 0
M  V30 27 H 0.190355 -8.119374 -3.776063 0
M  V30 28 H -1.416932 -7.945168 -3.010448 0
M  V30 29 H -0.160447 -5.238004 -3.424459 0
M  V30 30 H 1.200113 -4.792727 2.414289 0
M  V30 31 H 1.703676 -1.966143 2.000699 0
M  V30 32 H 2.711558 0.473006 0.267421 0
M  V30 33 H 1.914076 2.650688 1.021375 0
M  V30 34 H -1.069482 2.515954 1.450974 0
M  V30 35 H -0.998768 3.994345 -0.278397 0
M  V30 36 H 0.503945 4.886779 0.311201 0
M  V30 37 H -1.033816 5.004865 1.174124 0
M  V30 38 H -1.887433 3.186316 3.450929 0
M  V30 39 H -1.696927 3.823136 5.763485 0
M  V30 40 H 0.526126 4.599516 6.608405 0
M  V30 41 H 2.455161 4.687539 5.040856 0
M  V30 42 H 2.175800 4.013250 2.668580 0
M  V30 43 H 0.444674 -3.254053 -2.565836 0
M  V30 END ATOM
M  V30 BEGIN BOND
M  V30 1 1 1 2
M  V30 2 1 2 3
M  V30 3 2 3 4
M  V30 4 1 3 5
M  V30 5 2 5 6
M  V30 6 1 6 7
M  V30 7 1 7 8
M  V30 8 2 8 9
M  V30 9 1 9 10
M  V30 10 1 10 11
M  V30 11 1 11 12
M  V30 12 2 12 13
M  V30 13 1 12 14
M  V30 14 1 14 15
M  V30 15 1 15 16
M  V30 16 1 15 17
M  V30 17 2 17 18
M  V30 18 1 18 19
M  V30 19 2 19 20
M  V30 20 1 20 21
M  V30 21 2 21 22
M  V30 22 2 10 23
M  V30 23 1 23 24
M  V30 24 2 24 25
M  V30 25 1 25 5
M  V30 26 1 25 8
M  V30 27 1 22 17
M  V30 28 1 1 26
M  V30 29 1 1 27
M  V30 30 1 1 28
M  V30 31 1 2 29
M  V30 32 1 7 30
M  V30 33 1 9 31
M  V30 34 1 11 32
M  V30 35 1 14 33
M  V30 36 1 15 34 CFG=1
M  V30 37 1 16 35
M  V30 38 1 16 36
M  V30 39 1 16 37
M  V30 40 1 18 38
M  V30 41 1 19 39
M  V30 42 1 20 40
M  V30 43 1 21 41
M  V30 44 1 22 42
M  V30 45 1 24 43
M  V30 END BOND
M  V30 END CTAB
M  END
>  <Dataset>  (192) 
ChEMBL_Kinases

>  <Ligand_Instance>  (192) 
nan

>  <PDB_ID>  (192) 
nan

>  <Standardized_SMILES>  (192) 
CNC(=O)c1n[nH]c2cc(NC(=O)N[C@H](C)c3ccccc3)ncc12

>  <Name>  (192) 
nan

>  <Pocket>  (192) 
nan

>  <ATP_Site>  (192) 
nan

>  <Peripheral>  (192) 
nan

>  <Num_H_Atoms_ProtBoundConf>  (192) 
nan

>  <Num_Resolved_Atoms>  (192) 
nan

>  <Num_Not_Resolved_Atoms>  (192) 
nan

$$$$
CHEMBL3654768
     RDKit          3D

  0  0  0  0  0  0  0  0  0  0999 V3000
M  V30 BEGIN CTAB
M  V30 COUNTS 46 48 0 0 0
M  V30 BEGIN ATOM
M  V30 1 C 4.169349 -7.295673 0.142348 0
M  V30 2 C 4.075082 -7.090514 -1.336061 0
M  V30 3 N 2.878713 -6.399613 -1.762384 0
M  V30 4 C 2.703415 -5.089484 -1.230244 0
M  V30 5 O 3.573733 -4.599521 -0.431895 0
M  V30 6 C 1.524009 -4.308243 -1.601275 0
M  V30 7 N 0.484587 -4.627746 -2.424223 0
M  V30 8 N -0.373670 -3.620141 -2.478142 0
M  V30 9 C 0.045314 -2.597758 -1.706729 0
M  V30 10 C -0.466755 -1.347422 -1.419468 0
M  V30 11 C 0.193052 -0.477790 -0.568959 0
M  V30 12 N -0.280725 0.825222 -0.231258 0
M  V30 13 C -1.122907 1.156753 0.847588 0
M  V30 14 O -1.477292 0.185785 1.569290 0
M  V30 15 N -1.512141 2.484755 1.062970 0
M  V30 16 C -2.388562 2.805168 2.191599 0 CFG=2
M  V30 17 C -3.693938 3.294259 1.598930 0
M  V30 18 C -1.785034 3.758552 3.141492 0
M  V30 19 C -1.858954 3.548571 4.523657 0
M  V30 20 C -1.261545 4.501182 5.321272 0
M  V30 21 C -0.604781 5.630511 4.878654 0
M  V30 22 C -0.536637 5.830849 3.495618 0
M  V30 23 C -1.128885 4.887408 2.689822 0
M  V30 24 N 1.361536 -0.912027 -0.034221 0
M  V30 25 C 1.874998 -2.128445 -0.303899 0
M  V30 26 C 1.245228 -3.031872 -1.151801 0
M  V30 27 H 3.855663 -8.335541 0.370549 0
M  V30 28 H 5.228061 -7.193856 0.509504 0
M  V30 29 H 3.483022 -6.650174 0.732083 0
M  V30 30 H 4.161293 -8.069548 -1.848195 0
M  V30 31 H 4.970315 -6.512551 -1.651112 0
M  V30 32 H 2.132977 -6.762267 -2.418319 0
M  V30 33 H -1.266566 -3.542385 -3.011773 0
M  V30 34 H -1.410872 -1.010815 -1.858541 0
M  V30 35 H 0.058055 1.576878 -0.878614 0
M  V30 36 H -1.222892 3.294559 0.469762 0
M  V30 37 H -2.640391 1.873610 2.762406 0
M  V30 38 H -4.552472 3.164426 2.278200 0
M  V30 39 H -3.569924 4.347629 1.229893 0
M  V30 40 H -3.860307 2.697645 0.670099 0
M  V30 41 H -2.358597 2.684802 4.934712 0
M  V30 42 H -1.339565 4.303305 6.398474 0
M  V30 43 H -0.155745 6.342002 5.550947 0
M  V30 44 H -0.034049 6.698088 3.108600 0
M  V30 45 H -1.037692 5.107217 1.615485 0
M  V30 46 H 2.810790 -2.442258 0.141060 0
M  V30 END ATOM
M  V30 BEGIN BOND
M  V30 1 1 1 2
M  V30 2 1 2 3
M  V30 3 1 3 4
M  V30 4 2 4 5
M  V30 5 1 4 6
M  V30 6 2 6 7
M  V30 7 1 7 8
M  V30 8 1 8 9
M  V30 9 2 9 10
M  V30 10 1 10 11
M  V30 11 1 11 12
M  V30 12 1 12 13
M  V30 13 2 13 14
M  V30 14 1 13 15
M  V30 15 1 15 16
M  V30 16 1 16 17
M  V30 17 1 16 18
M  V30 18 2 18 19
M  V30 19 1 19 20
M  V30 20 2 20 21
M  V30 21 1 21 22
M  V30 22 2 22 23
M  V30 23 2 11 24
M  V30 24 1 24 25
M  V30 25 2 25 26
M  V30 26 1 26 6
M  V30 27 1 26 9
M  V30 28 1 23 18
M  V30 29 1 1 27
M  V30 30 1 1 28
M  V30 31 1 1 29
M  V30 32 1 2 30
M  V30 33 1 2 31
M  V30 34 1 3 32
M  V30 35 1 8 33
M  V30 36 1 10 34
M  V30 37 1 12 35
M  V30 38 1 15 36
M  V30 39 1 16 37 CFG=1
M  V30 40 1 17 38
M  V30 41 1 17 39
M  V30 42 1 17 40
M  V30 43 1 19 41
M  V30 44 1 20 42
M  V30 45 1 21 43
M  V30 46 1 22 44
M  V30 47 1 23 45
M  V30 48 1 25 46
M  V30 END BOND
M  V30 END CTAB
M  END
>  <Dataset>  (193) 
ChEMBL_Kinases

>  <Ligand_Instance>  (193) 
nan

>  <PDB_ID>  (193) 
nan

>  <Standardized_SMILES>  (193) 
CCNC(=O)c1n[nH]c2cc(NC(=O)N[C@H](C)c3ccccc3)ncc12

>  <Name>  (193) 
nan

>  <Pocket>  (193) 
nan

>  <ATP_Site>  (193) 
nan

>  <Peripheral>  (193) 
nan

>  <Num_H_Atoms_ProtBoundConf>  (193) 
nan

>  <Num_Resolved_Atoms>  (193) 
nan

>  <Num_Not_Resolved_Atoms>  (193) 
nan

$$$$
CHEMBL3654778
     RDKit          3D

  0  0  0  0  0  0  0  0  0  0999 V3000
M  V30 BEGIN CTAB
M  V30 COUNTS 37 40 0 0 0
M  V30 BEGIN ATOM
M  V30 1 O 0.194383 -2.469130 1.339000 0
M  V30 2 C -0.898581 -2.284767 1.953733 0
M  V30 3 N -1.348731 -3.162776 2.949914 0
M  V30 4 C -0.549209 -4.327465 3.302303 0
M  V30 5 C 0.808475 -3.903858 3.795232 0
M  V30 6 C 1.754101 -4.970394 4.198377 0
M  V30 7 C 1.144370 -4.107110 5.251651 0
M  V30 8 N -1.606875 -1.111669 1.531477 0
M  V30 9 C -1.112407 -0.246954 0.514970 0
M  V30 10 C -1.788906 0.883507 0.103782 0
M  V30 11 C -1.239050 1.685543 -0.902305 0
M  V30 12 N -1.653014 2.827968 -1.504927 0
M  V30 13 N -0.765827 3.204816 -2.413850 0
M  V30 14 C 0.262053 2.322585 -2.439735 0
M  V30 15 C 1.509160 2.256468 -3.253317 0
M  V30 16 C 2.669139 2.986314 -2.600593 0
M  V30 17 C 2.059313 3.420180 -3.949418 0
M  V30 18 C -0.031695 1.369089 -1.493342 0
M  V30 19 C 0.610243 0.214900 -1.039696 0
M  V30 20 N 0.065299 -0.543476 -0.071022 0
M  V30 21 H -2.281732 -2.872348 3.371076 0
M  V30 22 H -0.474451 -5.039876 2.456679 0
M  V30 23 H -1.083762 -4.790821 4.158545 0
M  V30 24 H 1.144527 -2.912958 3.428274 0
M  V30 25 H 1.376497 -5.995935 4.162240 0
M  V30 26 H 2.796738 -4.835262 3.886149 0
M  V30 27 H 1.820988 -3.400127 5.775028 0
M  V30 28 H 0.345876 -4.518759 5.895400 0
M  V30 29 H -2.514692 -0.908821 2.003339 0
M  V30 30 H -2.745121 1.145784 0.562808 0
M  V30 31 H -2.544594 3.306886 -1.259463 0
M  V30 32 H 1.759244 1.218288 -3.623787 0
M  V30 33 H 2.472724 3.660348 -1.735875 0
M  V30 34 H 3.659702 2.488109 -2.613416 0
M  V30 35 H 1.495513 4.354476 -3.999499 0
M  V30 36 H 2.725429 3.175991 -4.822424 0
M  V30 37 H 1.562518 -0.075173 -1.474338 0
M  V30 END ATOM
M  V30 BEGIN BOND
M  V30 1 2 1 2
M  V30 2 1 2 3
M  V30 3 1 3 4
M  V30 4 1 4 5
M  V30 5 1 5 6
M  V30 6 1 6 7
M  V30 7 1 2 8
M  V30 8 1 8 9
M  V30 9 2 9 10
M  V30 10 1 10 11
M  V30 11 1 11 12
M  V30 12 1 12 13
M  V30 13 2 13 14
M  V30 14 1 14 15
M  V30 15 1 15 16
M  V30 16 1 16 17
M  V30 17 1 14 18
M  V30 18 1 18 19
M  V30 19 2 19 20
M  V30 20 1 7 5
M  V30 21 1 20 9
M  V30 22 2 18 11
M  V30 23 1 17 15
M  V30 24 1 3 21
M  V30 25 1 4 22
M  V30 26 1 4 23
M  V30 27 1 5 24
M  V30 28 1 6 25
M  V30 29 1 6 26
M  V30 30 1 7 27
M  V30 31 1 7 28
M  V30 32 1 8 29
M  V30 33 1 10 30
M  V30 34 1 12 31
M  V30 35 1 15 32
M  V30 36 1 16 33
M  V30 37 1 16 34
M  V30 38 1 17 35
M  V30 39 1 17 36
M  V30 40 1 19 37
M  V30 END BOND
M  V30 END CTAB
M  END
>  <Dataset>  (194) 
ChEMBL_Kinases

>  <Ligand_Instance>  (194) 
nan

>  <PDB_ID>  (194) 
nan

>  <Standardized_SMILES>  (194) 
O=C(NCC1CC1)Nc1cc2[nH]nc(C3CC3)c2cn1

>  <Name>  (194) 
nan

>  <Pocket>  (194) 
nan

>  <ATP_Site>  (194) 
nan

>  <Peripheral>  (194) 
nan

>  <Num_H_Atoms_ProtBoundConf>  (194) 
nan

>  <Num_Resolved_Atoms>  (194) 
nan

>  <Num_Not_Resolved_Atoms>  (194) 
nan

$$$$
CHEMBL3654770
     RDKit          3D

  0  0  0  0  0  0  0  0  0  0999 V3000
M  V30 BEGIN CTAB
M  V30 COUNTS 40 43 0 0 0
M  V30 BEGIN ATOM
M  V30 1 O -0.842870 -1.803073 1.147658 0
M  V30 2 C -1.737976 -1.445323 0.355422 0
M  V30 3 N -2.558197 -2.400896 -0.264752 0
M  V30 4 C -2.499943 -3.842696 -0.098725 0
M  V30 5 C -1.357112 -4.419162 -0.855563 0
M  V30 6 C -0.098877 -4.605183 -0.344102 0
M  V30 7 C 0.963462 -5.136371 -1.045394 0
M  V30 8 C 0.775573 -5.512136 -2.343745 0
M  V30 9 F 1.841659 -6.034893 -3.016735 0
M  V30 10 C -0.471733 -5.345016 -2.902224 0
M  V30 11 C -1.525157 -4.812229 -2.188492 0
M  V30 12 N -1.847319 -0.048638 0.146825 0
M  V30 13 C -0.967091 0.869990 0.820340 0
M  V30 14 C -1.195719 1.456808 2.046011 0
M  V30 15 C -0.234563 2.327885 2.560970 0
M  V30 16 N -0.218323 3.017111 3.717076 0
M  V30 17 N 0.923181 3.703034 3.738665 0
M  V30 18 C 1.622914 3.456848 2.617601 0
M  V30 19 C 2.955167 3.978678 2.167520 0
M  V30 20 C 4.183006 3.111370 2.588603 0
M  V30 21 C 3.914652 4.369922 3.299726 0
M  V30 22 C 0.918647 2.569896 1.815265 0
M  V30 23 C 1.117274 1.964211 0.587673 0
M  V30 24 N 0.169780 1.125483 0.113863 0
M  V30 25 H -3.276717 -1.955870 -0.912009 0
M  V30 26 H -3.417561 -4.263679 -0.571989 0
M  V30 27 H -2.437788 -4.123601 0.974697 0
M  V30 28 H 0.099167 -4.327160 0.675326 0
M  V30 29 H 1.952601 -5.261999 -0.581575 0
M  V30 30 H -0.560150 -5.661685 -3.937315 0
M  V30 31 H -2.489259 -4.705578 -2.687424 0
M  V30 32 H -2.566609 0.328954 -0.497114 0
M  V30 33 H -2.108304 1.204521 2.533184 0
M  V30 34 H -0.959217 3.009577 4.447705 0
M  V30 35 H 3.030713 4.511926 1.209810 0
M  V30 36 H 5.040561 3.090973 1.886585 0
M  V30 37 H 3.905764 2.112528 2.969176 0
M  V30 38 H 3.502412 4.255159 4.343055 0
M  V30 39 H 4.619748 5.201737 3.142707 0
M  V30 40 H 2.037683 2.190133 0.047522 0
M  V30 END ATOM
M  V30 BEGIN BOND
M  V30 1 2 1 2
M  V30 2 1 2 3
M  V30 3 1 3 4
M  V30 4 1 4 5
M  V30 5 2 5 6
M  V30 6 1 6 7
M  V30 7 2 7 8
M  V30 8 1 8 9
M  V30 9 1 8 10
M  V30 10 2 10 11
M  V30 11 1 2 12
M  V30 12 1 12 13
M  V30 13 2 13 14
M  V30 14 1 14 15
M  V30 15 1 15 16
M  V30 16 1 16 17
M  V30 17 2 17 18
M  V30 18 1 18 19
M  V30 19 1 19 20
M  V30 20 1 20 21
M  V30 21 1 18 22
M  V30 22 1 22 23
M  V30 23 2 23 24
M  V30 24 1 11 5
M  V30 25 1 24 13
M  V30 26 2 22 15
M  V30 27 1 21 19
M  V30 28 1 3 25
M  V30 29 1 4 26
M  V30 30 1 4 27
M  V30 31 1 6 28
M  V30 32 1 7 29
M  V30 33 1 10 30
M  V30 34 1 11 31
M  V30 35 1 12 32
M  V30 36 1 14 33
M  V30 37 1 16 34
M  V30 38 1 19 35
M  V30 39 1 20 36
M  V30 40 1 20 37
M  V30 41 1 21 38
M  V30 42 1 21 39
M  V30 43 1 23 40
M  V30 END BOND
M  V30 END CTAB
M  END
>  <Dataset>  (195) 
ChEMBL_Kinases

>  <Ligand_Instance>  (195) 
nan

>  <PDB_ID>  (195) 
nan

>  <Standardized_SMILES>  (195) 
O=C(NCc1ccc(F)cc1)Nc1cc2[nH]nc(C3CC3)c2cn1

>  <Name>  (195) 
nan

>  <Pocket>  (195) 
nan

>  <ATP_Site>  (195) 
nan

>  <Peripheral>  (195) 
nan

>  <Num_H_Atoms_ProtBoundConf>  (195) 
nan

>  <Num_Resolved_Atoms>  (195) 
nan

>  <Num_Not_Resolved_Atoms>  (195) 
nan

$$$$
CHEMBL3654771
     RDKit          3D

  0  0  0  0  0  0  0  0  0  0999 V3000
M  V30 BEGIN CTAB
M  V30 COUNTS 43 46 0 0 0
M  V30 BEGIN ATOM
M  V30 1 C -0.793133 -4.642104 3.178119 0
M  V30 2 C -1.146008 -3.748527 2.015899 0 CFG=1
M  V30 3 N 0.031435 -3.157858 1.407025 0
M  V30 4 C 0.317660 -1.758547 1.337548 0
M  V30 5 O -0.562972 -1.016058 1.867015 0
M  V30 6 N 1.514741 -1.317742 0.708527 0
M  V30 7 C 1.670813 0.098835 0.711629 0
M  V30 8 C 1.158181 0.843357 -0.357432 0
M  V30 9 C 1.284117 2.213426 -0.399704 0
M  V30 10 N 0.959956 3.257811 -1.181554 0
M  V30 11 N 1.362806 4.398006 -0.676969 0
M  V30 12 C 2.003579 4.173055 0.515582 0
M  V30 13 C 2.537959 5.330503 1.213846 0
M  V30 14 C 3.808391 5.999695 0.844791 0
M  V30 15 C 3.643483 5.355562 2.166689 0
M  V30 16 C 1.937771 2.804534 0.660647 0
M  V30 17 C 2.439664 2.102139 1.702707 0
M  V30 18 N 2.304270 0.763682 1.721709 0
M  V30 19 C -1.882842 -4.465823 0.942633 0
M  V30 20 C -1.988138 -3.725307 -0.217554 0
M  V30 21 C -2.656334 -4.275396 -1.310727 0
M  V30 22 C -3.213594 -5.555750 -1.241179 0
M  V30 23 F -3.871433 -6.131148 -2.277013 0
M  V30 24 C -3.093611 -6.276891 -0.065664 0
M  V30 25 C -2.432624 -5.730670 1.013243 0
M  V30 26 H -1.657900 -4.619394 3.873336 0
M  V30 27 H -0.552689 -5.642729 2.809452 0
M  V30 28 H 0.078553 -4.149016 3.682476 0
M  V30 29 H -1.740959 -2.872985 2.396587 0
M  V30 30 H 0.659780 -3.895092 1.016276 0
M  V30 31 H 2.143128 -2.059344 0.317455 0
M  V30 32 H 0.641730 0.394325 -1.199030 0
M  V30 33 H 0.435235 3.111309 -2.095237 0
M  V30 34 H 1.723607 6.083102 1.459239 0
M  V30 35 H 3.896492 7.107153 0.855846 0
M  V30 36 H 4.422964 5.574068 0.038339 0
M  V30 37 H 3.588058 6.040292 3.070748 0
M  V30 38 H 4.240635 4.475139 2.463057 0
M  V30 39 H 2.937397 2.533978 2.523987 0
M  V30 40 H -1.607967 -2.738837 -0.399957 0
M  V30 41 H -2.777191 -3.753177 -2.250951 0
M  V30 42 H -3.483935 -7.273765 0.102563 0
M  V30 43 H -2.306109 -6.233191 1.944793 0
M  V30 END ATOM
M  V30 BEGIN BOND
M  V30 1 1 1 2
M  V30 2 1 2 3
M  V30 3 1 3 4
M  V30 4 2 4 5
M  V30 5 1 4 6
M  V30 6 1 6 7
M  V30 7 2 7 8
M  V30 8 1 8 9
M  V30 9 1 9 10
M  V30 10 1 10 11
M  V30 11 2 11 12
M  V30 12 1 12 13
M  V30 13 1 13 14
M  V30 14 1 14 15
M  V30 15 1 12 16
M  V30 16 1 16 17
M  V30 17 2 17 18
M  V30 18 1 2 19
M  V30 19 2 19 20
M  V30 20 1 20 21
M  V30 21 2 21 22
M  V30 22 1 22 23
M  V30 23 1 22 24
M  V30 24 2 24 25
M  V30 25 1 18 7
M  V30 26 1 25 19
M  V30 27 2 16 9
M  V30 28 1 15 13
M  V30 29 1 1 26
M  V30 30 1 1 27
M  V30 31 1 1 28
M  V30 32 1 2 29 CFG=1
M  V30 33 1 3 30
M  V30 34 1 6 31
M  V30 35 1 8 32
M  V30 36 1 10 33
M  V30 37 1 13 34
M  V30 38 1 14 35
M  V30 39 1 14 36
M  V30 40 1 15 37
M  V30 41 1 15 38
M  V30 42 1 17 39
M  V30 43 1 20 40
M  V30 44 1 21 41
M  V30 45 1 24 42
M  V30 46 1 25 43
M  V30 END BOND
M  V30 END CTAB
M  END
>  <Dataset>  (196) 
ChEMBL_Kinases

>  <Ligand_Instance>  (196) 
nan

>  <PDB_ID>  (196) 
nan

>  <Standardized_SMILES>  (196) 
C[C@@H](NC(=O)Nc1cc2[nH]nc(C3CC3)c2cn1)c1ccc(F)cc1

>  <Name>  (196) 
nan

>  <Pocket>  (196) 
nan

>  <ATP_Site>  (196) 
nan

>  <Peripheral>  (196) 
nan

>  <Num_H_Atoms_ProtBoundConf>  (196) 
nan

>  <Num_Resolved_Atoms>  (196) 
nan

>  <Num_Not_Resolved_Atoms>  (196) 
nan

$$$$
CHEMBL3654772
     RDKit          3D

  0  0  0  0  0  0  0  0  0  0999 V3000
M  V30 BEGIN CTAB
M  V30 COUNTS 40 43 0 0 0
M  V30 BEGIN ATOM
M  V30 1 O 0.132278 -1.953487 -0.079173 0
M  V30 2 C -0.290504 -1.383669 -1.117250 0
M  V30 3 N -0.078581 -1.975104 -2.366003 0
M  V30 4 C 0.594081 -3.222270 -2.698280 0
M  V30 5 C 2.060797 -3.000436 -2.599124 0
M  V30 6 C 2.804246 -3.204227 -1.457455 0
M  V30 7 C 4.160535 -3.002331 -1.347001 0
M  V30 8 C 4.846532 -2.561309 -2.456602 0
M  V30 9 C 4.144064 -2.344452 -3.619181 0
M  V30 10 C 2.784251 -2.553390 -3.707392 0
M  V30 11 N -0.979040 -0.143630 -1.001415 0
M  V30 12 C -1.155516 0.396370 0.313682 0
M  V30 13 C -0.142435 1.236797 0.763032 0
M  V30 14 C -0.227207 1.803347 2.020298 0
M  V30 15 N 0.472524 2.635422 2.832000 0
M  V30 16 N -0.169620 2.808773 3.978693 0
M  V30 17 C -1.335770 2.095723 3.986531 0
M  V30 18 C -2.139965 2.180293 5.209546 0
M  V30 19 C -1.791298 1.437531 6.456553 0
M  V30 20 C -2.892230 0.920692 5.581085 0
M  V30 21 C -1.349643 1.478212 2.755276 0
M  V30 22 C -2.365123 0.648305 2.328997 0
M  V30 23 N -2.236763 0.118561 1.092585 0
M  V30 24 H -0.460258 -1.446124 -3.206769 0
M  V30 25 H 0.285349 -3.621809 -3.662237 0
M  V30 26 H 0.306125 -3.934858 -1.868937 0
M  V30 27 H 2.304564 -3.550505 -0.568358 0
M  V30 28 H 4.689555 -3.182585 -0.413023 0
M  V30 29 H 5.917559 -2.409145 -2.344392 0
M  V30 30 H 4.734966 -1.996716 -4.463855 0
M  V30 31 H 2.259270 -2.374734 -4.632800 0
M  V30 32 H -1.331573 0.331032 -1.872051 0
M  V30 33 H 0.739617 1.497692 0.196191 0
M  V30 34 H 1.378326 3.041876 2.528955 0
M  V30 35 H -2.667843 3.148013 5.344438 0
M  V30 36 H -0.807398 0.943112 6.439732 0
M  V30 37 H -2.124876 1.864375 7.418345 0
M  V30 38 H -3.949366 1.064705 5.892391 0
M  V30 39 H -2.674805 -0.047479 5.136269 0
M  V30 40 H -3.241346 0.408983 2.912525 0
M  V30 END ATOM
M  V30 BEGIN BOND
M  V30 1 2 1 2
M  V30 2 1 2 3
M  V30 3 1 3 4
M  V30 4 1 4 5
M  V30 5 2 5 6
M  V30 6 1 6 7
M  V30 7 2 7 8
M  V30 8 1 8 9
M  V30 9 2 9 10
M  V30 10 1 2 11
M  V30 11 1 11 12
M  V30 12 2 12 13
M  V30 13 1 13 14
M  V30 14 1 14 15
M  V30 15 1 15 16
M  V30 16 2 16 17
M  V30 17 1 17 18
M  V30 18 1 18 19
M  V30 19 1 19 20
M  V30 20 1 17 21
M  V30 21 1 21 22
M  V30 22 2 22 23
M  V30 23 1 10 5
M  V30 24 1 23 12
M  V30 25 2 21 14
M  V30 26 1 20 18
M  V30 27 1 3 24
M  V30 28 1 4 25
M  V30 29 1 4 26
M  V30 30 1 6 27
M  V30 31 1 7 28
M  V30 32 1 8 29
M  V30 33 1 9 30
M  V30 34 1 10 31
M  V30 35 1 11 32
M  V30 36 1 13 33
M  V30 37 1 15 34
M  V30 38 1 18 35
M  V30 39 1 19 36
M  V30 40 1 19 37
M  V30 41 1 20 38
M  V30 42 1 20 39
M  V30 43 1 22 40
M  V30 END BOND
M  V30 END CTAB
M  END
>  <Dataset>  (197) 
ChEMBL_Kinases

>  <Ligand_Instance>  (197) 
nan

>  <PDB_ID>  (197) 
nan

>  <Standardized_SMILES>  (197) 
O=C(NCc1ccccc1)Nc1cc2[nH]nc(C3CC3)c2cn1

>  <Name>  (197) 
nan

>  <Pocket>  (197) 
nan

>  <ATP_Site>  (197) 
nan

>  <Peripheral>  (197) 
nan

>  <Num_H_Atoms_ProtBoundConf>  (197) 
nan

>  <Num_Resolved_Atoms>  (197) 
nan

>  <Num_Not_Resolved_Atoms>  (197) 
nan

$$$$
CHEMBL3654773
     RDKit          3D

  0  0  0  0  0  0  0  0  0  0999 V3000
M  V30 BEGIN CTAB
M  V30 COUNTS 42 44 0 0 0
M  V30 BEGIN ATOM
M  V30 1 C -3.181856 -3.874913 -0.491804 0
M  V30 2 C -2.785220 -5.236005 -0.029183 0
M  V30 3 C -1.313551 -5.428890 0.166105 0
M  V30 4 C -0.466694 -5.244726 -1.039170 0
M  V30 5 N -0.505740 -3.942376 -1.649709 0
M  V30 6 C -0.110688 -2.800001 -0.901574 0
M  V30 7 O 0.275978 -2.940125 0.307411 0
M  V30 8 N -0.095096 -1.462101 -1.361860 0
M  V30 9 C 0.316563 -0.373078 -0.543824 0
M  V30 10 C -0.499487 0.383661 0.276331 0
M  V30 11 C 0.089475 1.403276 0.995656 0
M  V30 12 N -0.493372 2.269363 1.854096 0
M  V30 13 N 0.468888 3.078809 2.312128 0
M  V30 14 C 1.643915 2.735187 1.755934 0
M  V30 15 C 2.992312 3.367189 1.977112 0
M  V30 16 C 3.756964 2.719524 3.127668 0
M  V30 17 C 4.079692 4.120582 3.607819 0
M  V30 18 C 2.847185 4.586573 2.853480 0
M  V30 19 C 1.444339 1.664050 0.904524 0
M  V30 20 C 2.216572 0.883188 0.074181 0
M  V30 21 N 1.652984 -0.130983 -0.646382 0
M  V30 22 H -4.296317 -3.715235 -0.380765 0
M  V30 23 H -2.892709 -3.707842 -1.545232 0
M  V30 24 H -2.750577 -3.100836 0.190992 0
M  V30 25 H -3.343199 -5.416217 0.932151 0
M  V30 26 H -3.158704 -6.010895 -0.757001 0
M  V30 27 H -1.168342 -6.477807 0.555158 0
M  V30 28 H -0.960259 -4.788282 1.026030 0
M  V30 29 H -0.778669 -6.033384 -1.785511 0
M  V30 30 H 0.594016 -5.496154 -0.765535 0
M  V30 31 H -0.786336 -3.644795 -2.620230 0
M  V30 32 H -0.407293 -1.303950 -2.355059 0
M  V30 33 H -1.527091 0.110920 0.282678 0
M  V30 34 H -1.514451 2.307377 2.119197 0
M  V30 35 H 3.602449 3.484297 1.077005 0
M  V30 36 H 3.075043 2.231017 3.866579 0
M  V30 37 H 4.621363 2.113838 2.810205 0
M  V30 38 H 5.042032 4.485907 3.207523 0
M  V30 39 H 3.977255 4.227559 4.722765 0
M  V30 40 H 2.954053 5.566137 2.352253 0
M  V30 41 H 1.976962 4.486764 3.525974 0
M  V30 42 H 3.272507 1.110828 0.023598 0
M  V30 END ATOM
M  V30 BEGIN BOND
M  V30 1 1 1 2
M  V30 2 1 2 3
M  V30 3 1 3 4
M  V30 4 1 4 5
M  V30 5 1 5 6
M  V30 6 2 6 7
M  V30 7 1 6 8
M  V30 8 1 8 9
M  V30 9 2 9 10
M  V30 10 1 10 11
M  V30 11 1 11 12
M  V30 12 1 12 13
M  V30 13 2 13 14
M  V30 14 1 14 15
M  V30 15 1 15 16
M  V30 16 1 16 17
M  V30 17 1 17 18
M  V30 18 1 14 19
M  V30 19 1 19 20
M  V30 20 2 20 21
M  V30 21 1 21 9
M  V30 22 2 19 11
M  V30 23 1 18 15
M  V30 24 1 1 22
M  V30 25 1 1 23
M  V30 26 1 1 24
M  V30 27 1 2 25
M  V30 28 1 2 26
M  V30 29 1 3 27
M  V30 30 1 3 28
M  V30 31 1 4 29
M  V30 32 1 4 30
M  V30 33 1 5 31
M  V30 34 1 8 32
M  V30 35 1 10 33
M  V30 36 1 12 34
M  V30 37 1 15 35
M  V30 38 1 16 36
M  V30 39 1 16 37
M  V30 40 1 17 38
M  V30 41 1 17 39
M  V30 42 1 18 40
M  V30 43 1 18 41
M  V30 44 1 20 42
M  V30 END BOND
M  V30 END CTAB
M  END
>  <Dataset>  (198) 
ChEMBL_Kinases

>  <Ligand_Instance>  (198) 
nan

>  <PDB_ID>  (198) 
nan

>  <Standardized_SMILES>  (198) 
CCCCNC(=O)Nc1cc2[nH]nc(C3CCC3)c2cn1

>  <Name>  (198) 
nan

>  <Pocket>  (198) 
nan

>  <ATP_Site>  (198) 
nan

>  <Peripheral>  (198) 
nan

>  <Num_H_Atoms_ProtBoundConf>  (198) 
nan

>  <Num_Resolved_Atoms>  (198) 
nan

>  <Num_Not_Resolved_Atoms>  (198) 
nan

$$$$
CHEMBL3654774
     RDKit          3D

  0  0  0  0  0  0  0  0  0  0999 V3000
M  V30 BEGIN CTAB
M  V30 COUNTS 46 49 0 0 0
M  V30 BEGIN ATOM
M  V30 1 C -1.786711 -5.184248 2.307736 0
M  V30 2 C -1.976953 -3.745635 1.986543 0 CFG=1
M  V30 3 N -1.422278 -3.366010 0.679416 0
M  V30 4 C -0.464863 -2.323115 0.615771 0
M  V30 5 O -0.132020 -1.766797 1.689344 0
M  V30 6 N 0.082779 -1.945703 -0.659718 0
M  V30 7 C 1.035508 -0.883926 -0.587177 0
M  V30 8 C 0.527816 0.396867 -0.702962 0
M  V30 9 C 1.428059 1.442518 -0.636191 0
M  V30 10 N 1.244582 2.775492 -0.714386 0
M  V30 11 N 2.401100 3.405434 -0.598814 0
M  V30 12 C 3.409961 2.499512 -0.437198 0
M  V30 13 C 4.866180 2.747491 -0.268901 0
M  V30 14 C 5.252065 2.901679 1.206445 0
M  V30 15 C 4.720841 4.322317 1.092033 0
M  V30 16 C 5.127987 4.251362 -0.381941 0
M  V30 17 C 2.802408 1.258142 -0.459878 0
M  V30 18 C 3.237060 -0.052377 -0.351814 0
M  V30 19 N 2.372881 -1.102086 -0.413992 0
M  V30 20 C -3.423004 -3.343769 1.925091 0
M  V30 21 C -4.045043 -2.682039 2.963809 0
M  V30 22 C -5.360003 -2.292176 2.961198 0
M  V30 23 C -6.072884 -2.611470 1.803609 0
M  V30 24 F -7.382470 -2.231619 1.782656 0
M  V30 25 C -5.509418 -3.276706 0.719299 0
M  V30 26 C -4.176230 -3.637462 0.797134 0
M  V30 27 H -1.121736 -5.737020 1.613786 0
M  V30 28 H -1.362366 -5.340014 3.321360 0
M  V30 29 H -2.810066 -5.652490 2.362319 0
M  V30 30 H -1.520735 -3.104794 2.769713 0
M  V30 31 H -1.751670 -3.878481 -0.167937 0
M  V30 32 H -0.246141 -2.461669 -1.529463 0
M  V30 33 H -0.535388 0.570074 -0.840631 0
M  V30 34 H 0.292439 3.211833 -0.849425 0
M  V30 35 H 5.543919 2.125523 -0.868459 0
M  V30 36 H 4.630629 2.205501 1.804644 0
M  V30 37 H 6.334752 2.830885 1.376697 0
M  V30 38 H 3.620160 4.335739 1.251308 0
M  V30 39 H 5.289353 5.081983 1.655451 0
M  V30 40 H 4.425009 4.793739 -1.056050 0
M  V30 41 H 6.197509 4.526597 -0.492286 0
M  V30 42 H 4.300659 -0.236712 -0.213626 0
M  V30 43 H -3.414309 -2.467175 3.840646 0
M  V30 44 H -5.828496 -1.774574 3.785384 0
M  V30 45 H -6.141582 -3.483373 -0.140604 0
M  V30 46 H -3.770995 -4.147716 -0.052037 0
M  V30 END ATOM
M  V30 BEGIN BOND
M  V30 1 1 1 2
M  V30 2 1 2 3
M  V30 3 1 3 4
M  V30 4 2 4 5
M  V30 5 1 4 6
M  V30 6 1 6 7
M  V30 7 2 7 8
M  V30 8 1 8 9
M  V30 9 1 9 10
M  V30 10 1 10 11
M  V30 11 2 11 12
M  V30 12 1 12 13
M  V30 13 1 13 14
M  V30 14 1 14 15
M  V30 15 1 15 16
M  V30 16 1 12 17
M  V30 17 1 17 18
M  V30 18 2 18 19
M  V30 19 1 2 20
M  V30 20 2 20 21
M  V30 21 1 21 22
M  V30 22 2 22 23
M  V30 23 1 23 24
M  V30 24 1 23 25
M  V30 25 2 25 26
M  V30 26 1 19 7
M  V30 27 1 26 20
M  V30 28 2 17 9
M  V30 29 1 16 13
M  V30 30 1 1 27
M  V30 31 1 1 28
M  V30 32 1 1 29
M  V30 33 1 2 30 CFG=1
M  V30 34 1 3 31
M  V30 35 1 6 32
M  V30 36 1 8 33
M  V30 37 1 10 34
M  V30 38 1 13 35
M  V30 39 1 14 36
M  V30 40 1 14 37
M  V30 41 1 15 38
M  V30 42 1 15 39
M  V30 43 1 16 40
M  V30 44 1 16 41
M  V30 45 1 18 42
M  V30 46 1 21 43
M  V30 47 1 22 44
M  V30 48 1 25 45
M  V30 49 1 26 46
M  V30 END BOND
M  V30 END CTAB
M  END
>  <Dataset>  (199) 
ChEMBL_Kinases

>  <Ligand_Instance>  (199) 
nan

>  <PDB_ID>  (199) 
nan

>  <Standardized_SMILES>  (199) 
C[C@@H](NC(=O)Nc1cc2[nH]nc(C3CCC3)c2cn1)c1ccc(F)cc1

>  <Name>  (199) 
nan

>  <Pocket>  (199) 
nan

>  <ATP_Site>  (199) 
nan

>  <Peripheral>  (199) 
nan

>  <Num_H_Atoms_ProtBoundConf>  (199) 
nan

>  <Num_Resolved_Atoms>  (199) 
nan

>  <Num_Not_Resolved_Atoms>  (199) 
nan

$$$$
CHEMBL3654775
     RDKit          3D

  0  0  0  0  0  0  0  0  0  0999 V3000
M  V30 BEGIN CTAB
M  V30 COUNTS 46 49 0 0 0
M  V30 BEGIN ATOM
M  V30 1 C -1.114063 -4.918625 2.934066 0
M  V30 2 C -1.618880 -3.907282 1.956993 0 CFG=1
M  V30 3 N -0.589025 -3.476098 1.006016 0
M  V30 4 C -0.192795 -2.113371 0.982590 0
M  V30 5 O -0.697646 -1.261308 1.753059 0
M  V30 6 N 0.819159 -1.693500 0.047053 0
M  V30 7 C 1.196398 -0.315940 0.047684 0
M  V30 8 C 0.521390 0.575015 -0.771408 0
M  V30 9 C 0.937970 1.888374 -0.719735 0
M  V30 10 N 0.558902 3.018866 -1.342706 0
M  V30 11 N 1.255509 4.075181 -0.983211 0
M  V30 12 C 2.181219 3.684015 -0.055189 0
M  V30 13 C 3.098439 4.635198 0.556760 0
M  V30 14 C 4.531586 4.580074 0.066637 0
M  V30 15 C 4.943086 4.196439 1.474871 0
M  V30 16 C 3.534051 4.492195 1.966474 0
M  V30 17 C 1.961447 2.349777 0.081174 0
M  V30 18 C 2.592513 1.417882 0.870266 0
M  V30 19 N 2.211947 0.128693 0.844919 0
M  V30 20 C -2.844935 -4.339104 1.239484 0
M  V30 21 C -4.106274 -3.943278 1.649844 0
M  V30 22 C -5.294144 -4.303900 1.033634 0
M  V30 23 C -5.203047 -5.132163 -0.089292 0
M  V30 24 C -3.958124 -5.543592 -0.522688 0
M  V30 25 C -2.802656 -5.155752 0.127374 0
M  V30 26 H -0.012415 -4.751013 3.063482 0
M  V30 27 H -1.286163 -5.965535 2.612125 0
M  V30 28 H -1.584474 -4.735221 3.909274 0
M  V30 29 H -1.903732 -2.990805 2.516572 0
M  V30 30 H -0.170932 -4.198727 0.363091 0
M  V30 31 H 1.226095 -2.417753 -0.584697 0
M  V30 32 H -0.288039 0.291527 -1.424337 0
M  V30 33 H -0.217444 3.118970 -2.063447 0
M  V30 34 H 2.755354 5.704764 0.396258 0
M  V30 35 H 4.670693 3.825555 -0.715224 0
M  V30 36 H 4.983612 5.540799 -0.239090 0
M  V30 37 H 5.265708 3.175671 1.644992 0
M  V30 38 H 5.704092 4.906111 1.899284 0
M  V30 39 H 3.063085 3.712623 2.590353 0
M  V30 40 H 3.548780 5.474409 2.550722 0
M  V30 41 H 3.407065 1.705111 1.514129 0
M  V30 42 H -4.171712 -3.302552 2.519041 0
M  V30 43 H -6.251853 -3.982014 1.374384 0
M  V30 44 H -6.103532 -5.442767 -0.607321 0
M  V30 45 H -3.851885 -6.186099 -1.390080 0
M  V30 46 H -1.816033 -5.467319 -0.196280 0
M  V30 END ATOM
M  V30 BEGIN BOND
M  V30 1 1 1 2
M  V30 2 1 2 3
M  V30 3 1 3 4
M  V30 4 2 4 5
M  V30 5 1 4 6
M  V30 6 1 6 7
M  V30 7 2 7 8
M  V30 8 1 8 9
M  V30 9 1 9 10
M  V30 10 1 10 11
M  V30 11 2 11 12
M  V30 12 1 12 13
M  V30 13 1 13 14
M  V30 14 1 14 15
M  V30 15 1 15 16
M  V30 16 1 12 17
M  V30 17 1 17 18
M  V30 18 2 18 19
M  V30 19 1 2 20
M  V30 20 2 20 21
M  V30 21 1 21 22
M  V30 22 2 22 23
M  V30 23 1 23 24
M  V30 24 2 24 25
M  V30 25 1 19 7
M  V30 26 1 25 20
M  V30 27 2 17 9
M  V30 28 1 16 13
M  V30 29 1 1 26
M  V30 30 1 1 27
M  V30 31 1 1 28
M  V30 32 1 2 29 CFG=1
M  V30 33 1 3 30
M  V30 34 1 6 31
M  V30 35 1 8 32
M  V30 36 1 10 33
M  V30 37 1 13 34
M  V30 38 1 14 35
M  V30 39 1 14 36
M  V30 40 1 15 37
M  V30 41 1 15 38
M  V30 42 1 16 39
M  V30 43 1 16 40
M  V30 44 1 18 41
M  V30 45 1 21 42
M  V30 46 1 22 43
M  V30 47 1 23 44
M  V30 48 1 24 45
M  V30 49 1 25 46
M  V30 END BOND
M  V30 END CTAB
M  END
>  <Dataset>  (200) 
ChEMBL_Kinases

>  <Ligand_Instance>  (200) 
nan

>  <PDB_ID>  (200) 
nan

>  <Standardized_SMILES>  (200) 
C[C@@H](NC(=O)Nc1cc2[nH]nc(C3CCC3)c2cn1)c1ccccc1

>  <Name>  (200) 
nan

>  <Pocket>  (200) 
nan

>  <ATP_Site>  (200) 
nan

>  <Peripheral>  (200) 
nan

>  <Num_H_Atoms_ProtBoundConf>  (200) 
nan

>  <Num_Resolved_Atoms>  (200) 
nan

>  <Num_Not_Resolved_Atoms>  (200) 
nan

$$$$
CHEMBL3654776
     RDKit          3D

  0  0  0  0  0  0  0  0  0  0999 V3000
M  V30 BEGIN CTAB
M  V30 COUNTS 43 46 0 0 0
M  V30 BEGIN ATOM
M  V30 1 O -0.468191 -2.058422 -0.333941 0
M  V30 2 C -1.446487 -1.315963 -0.598866 0
M  V30 3 N -2.259226 -1.575823 -1.712038 0
M  V30 4 C -2.101591 -2.665661 -2.661247 0
M  V30 5 C -0.991058 -2.426166 -3.623020 0
M  V30 6 C 0.326565 -2.793995 -3.466557 0
M  V30 7 C 1.273372 -2.516340 -4.430319 0
M  V30 8 C 0.924617 -1.847458 -5.606715 0
M  V30 9 F 1.927454 -1.619565 -6.496988 0
M  V30 10 C -0.400221 -1.463714 -5.791548 0
M  V30 11 C -1.316178 -1.760058 -4.804036 0
M  V30 12 N -1.706679 -0.199244 0.266782 0
M  V30 13 C -0.879525 0.058819 1.394073 0
M  V30 14 C 0.189201 0.889580 1.065461 0
M  V30 15 C 1.112941 1.264413 2.015687 0
M  V30 16 N 2.219287 2.018375 2.027174 0
M  V30 17 N 2.754606 2.050236 3.230601 0
M  V30 18 C 2.022288 1.304104 4.113298 0
M  V30 19 C 2.312501 1.134456 5.529451 0
M  V30 20 C 2.902380 -0.188841 5.945511 0
M  V30 21 C 1.677469 -0.371956 6.827645 0
M  V30 22 C 1.228076 1.064479 6.530943 0
M  V30 23 C 1.013989 0.832540 3.324277 0
M  V30 24 C -0.066021 0.012839 3.582869 0
M  V30 25 N -0.966837 -0.358500 2.676804 0
M  V30 26 H -3.060419 -0.895309 -1.852509 0
M  V30 27 H -3.031527 -2.790677 -3.229577 0
M  V30 28 H -1.818733 -3.607105 -2.116710 0
M  V30 29 H 0.568404 -3.310532 -2.547587 0
M  V30 30 H 2.304772 -2.840657 -4.234716 0
M  V30 31 H -0.635898 -0.954167 -6.701662 0
M  V30 32 H -2.314355 -1.419465 -5.045196 0
M  V30 33 H -2.528841 0.440159 0.059733 0
M  V30 34 H 0.391913 1.302133 0.085846 0
M  V30 35 H 2.621465 2.526621 1.190182 0
M  V30 36 H 3.064465 1.932905 5.836650 0
M  V30 37 H 3.810765 -0.142807 6.576259 0
M  V30 38 H 3.032100 -0.950388 5.158550 0
M  V30 39 H 1.921759 -0.542061 7.907523 0
M  V30 40 H 0.952738 -1.126402 6.518386 0
M  V30 41 H 0.189973 1.202563 6.246549 0
M  V30 42 H 1.428215 1.696930 7.455634 0
M  V30 43 H -0.204561 -0.369254 4.576135 0
M  V30 END ATOM
M  V30 BEGIN BOND
M  V30 1 2 1 2
M  V30 2 1 2 3
M  V30 3 1 3 4
M  V30 4 1 4 5
M  V30 5 2 5 6
M  V30 6 1 6 7
M  V30 7 2 7 8
M  V30 8 1 8 9
M  V30 9 1 8 10
M  V30 10 2 10 11
M  V30 11 1 2 12
M  V30 12 1 12 13
M  V30 13 2 13 14
M  V30 14 1 14 15
M  V30 15 1 15 16
M  V30 16 1 16 17
M  V30 17 2 17 18
M  V30 18 1 18 19
M  V30 19 1 19 20
M  V30 20 1 20 21
M  V30 21 1 21 22
M  V30 22 1 18 23
M  V30 23 1 23 24
M  V30 24 2 24 25
M  V30 25 1 11 5
M  V30 26 1 25 13
M  V30 27 2 23 15
M  V30 28 1 22 19
M  V30 29 1 3 26
M  V30 30 1 4 27
M  V30 31 1 4 28
M  V30 32 1 6 29
M  V30 33 1 7 30
M  V30 34 1 10 31
M  V30 35 1 11 32
M  V30 36 1 12 33
M  V30 37 1 14 34
M  V30 38 1 16 35
M  V30 39 1 19 36
M  V30 40 1 20 37
M  V30 41 1 20 38
M  V30 42 1 21 39
M  V30 43 1 21 40
M  V30 44 1 22 41
M  V30 45 1 22 42
M  V30 46 1 24 43
M  V30 END BOND
M  V30 END CTAB
M  END
>  <Dataset>  (201) 
ChEMBL_Kinases

>  <Ligand_Instance>  (201) 
nan

>  <PDB_ID>  (201) 
nan

>  <Standardized_SMILES>  (201) 
O=C(NCc1ccc(F)cc1)Nc1cc2[nH]nc(C3CCC3)c2cn1

>  <Name>  (201) 
nan

>  <Pocket>  (201) 
nan

>  <ATP_Site>  (201) 
nan

>  <Peripheral>  (201) 
nan

>  <Num_H_Atoms_ProtBoundConf>  (201) 
nan

>  <Num_Resolved_Atoms>  (201) 
nan

>  <Num_Not_Resolved_Atoms>  (201) 
nan

$$$$
CHEMBL3654777
     RDKit          3D

  0  0  0  0  0  0  0  0  0  0999 V3000
M  V30 BEGIN CTAB
M  V30 COUNTS 43 46 0 0 0
M  V30 BEGIN ATOM
M  V30 1 O -0.048533 -2.278103 -0.605746 0
M  V30 2 C -1.030746 -1.664989 -1.091882 0
M  V30 3 N -1.551531 -2.067185 -2.326813 0
M  V30 4 C -1.083873 -3.152813 -3.171808 0
M  V30 5 C 0.145714 -2.678373 -3.858086 0
M  V30 6 C 1.465631 -2.772122 -3.480046 0
M  V30 7 C 2.408579 -2.232067 -4.325126 0
M  V30 8 C 2.147132 -1.604792 -5.519172 0
M  V30 9 C 0.817495 -1.514161 -5.893204 0
M  V30 10 C -0.154510 -2.044585 -5.069740 0
M  V30 11 N -1.598122 -0.561791 -0.366404 0
M  V30 12 C -0.972963 -0.242723 0.898961 0
M  V30 13 C 0.080269 0.650993 0.952547 0
M  V30 14 C 0.671628 0.948645 2.166904 0
M  V30 15 N 1.680210 1.745618 2.549617 0
M  V30 16 N 1.850580 1.665639 3.856751 0
M  V30 17 C 0.970380 0.814926 4.421578 0
M  V30 18 C 0.836840 0.453923 5.856691 0
M  V30 19 C -0.074842 1.327061 6.661267 0
M  V30 20 C 1.039473 1.484164 7.671819 0
M  V30 21 C 2.021965 0.990085 6.638589 0
M  V30 22 C 0.220015 0.358742 3.344459 0
M  V30 23 C -0.821911 -0.517033 3.243393 0
M  V30 24 N -1.392415 -0.801656 2.056218 0
M  V30 25 H -2.374271 -1.542968 -2.712546 0
M  V30 26 H -1.844377 -3.516516 -3.858411 0
M  V30 27 H -0.745208 -3.954469 -2.448364 0
M  V30 28 H 1.604620 -3.266963 -2.552301 0
M  V30 29 H 3.429988 -2.349097 -3.949381 0
M  V30 30 H 2.948030 -1.206378 -6.126628 0
M  V30 31 H 0.611125 -1.024037 -6.825882 0
M  V30 32 H -1.154859 -1.910093 -5.472992 0
M  V30 33 H -2.409383 -0.095792 -0.823547 0
M  V30 34 H 0.424832 1.104960 0.037368 0
M  V30 35 H 2.245096 2.341185 1.900602 0
M  V30 36 H 0.698439 -0.641847 5.997783 0
M  V30 37 H -0.888295 0.697561 7.114720 0
M  V30 38 H -0.446951 2.244354 6.197236 0
M  V30 39 H 1.024840 0.798770 8.536460 0
M  V30 40 H 1.177121 2.535819 7.995046 0
M  V30 41 H 2.711073 0.195438 6.939136 0
M  V30 42 H 2.520164 1.886409 6.179561 0
M  V30 43 H -1.183481 -0.983120 4.150163 0
M  V30 END ATOM
M  V30 BEGIN BOND
M  V30 1 2 1 2
M  V30 2 1 2 3
M  V30 3 1 3 4
M  V30 4 1 4 5
M  V30 5 2 5 6
M  V30 6 1 6 7
M  V30 7 2 7 8
M  V30 8 1 8 9
M  V30 9 2 9 10
M  V30 10 1 2 11
M  V30 11 1 11 12
M  V30 12 2 12 13
M  V30 13 1 13 14
M  V30 14 1 14 15
M  V30 15 1 15 16
M  V30 16 2 16 17
M  V30 17 1 17 18
M  V30 18 1 18 19
M  V30 19 1 19 20
M  V30 20 1 20 21
M  V30 21 1 17 22
M  V30 22 1 22 23
M  V30 23 2 23 24
M  V30 24 1 10 5
M  V30 25 1 24 12
M  V30 26 2 22 14
M  V30 27 1 21 18
M  V30 28 1 3 25
M  V30 29 1 4 26
M  V30 30 1 4 27
M  V30 31 1 6 28
M  V30 32 1 7 29
M  V30 33 1 8 30
M  V30 34 1 9 31
M  V30 35 1 10 32
M  V30 36 1 11 33
M  V30 37 1 13 34
M  V30 38 1 15 35
M  V30 39 1 18 36
M  V30 40 1 19 37
M  V30 41 1 19 38
M  V30 42 1 20 39
M  V30 43 1 20 40
M  V30 44 1 21 41
M  V30 45 1 21 42
M  V30 46 1 23 43
M  V30 END BOND
M  V30 END CTAB
M  END
>  <Dataset>  (202) 
ChEMBL_Kinases

>  <Ligand_Instance>  (202) 
nan

>  <PDB_ID>  (202) 
nan

>  <Standardized_SMILES>  (202) 
O=C(NCc1ccccc1)Nc1cc2[nH]nc(C3CCC3)c2cn1

>  <Name>  (202) 
nan

>  <Pocket>  (202) 
nan

>  <ATP_Site>  (202) 
nan

>  <Peripheral>  (202) 
nan

>  <Num_H_Atoms_ProtBoundConf>  (202) 
nan

>  <Num_Resolved_Atoms>  (202) 
nan

>  <Num_Not_Resolved_Atoms>  (202) 
nan

$$$$
CHEMBL3654769
     RDKit          3D

  0  0  0  0  0  0  0  0  0  0999 V3000
M  V30 BEGIN CTAB
M  V30 COUNTS 46 48 0 0 0
M  V30 BEGIN ATOM
M  V30 1 C 0.105554 -5.410730 2.639987 0
M  V30 2 C -0.288313 -3.972256 2.603906 0 CFG=1
M  V30 3 N -0.471536 -3.451925 1.259385 0
M  V30 4 C 0.192971 -2.342370 0.654703 0
M  V30 5 O 1.022787 -1.791903 1.424536 0
M  V30 6 N -0.153941 -2.001350 -0.707999 0
M  V30 7 C 0.578135 -0.875629 -1.179551 0
M  V30 8 C 1.791358 -0.796449 -1.831308 0
M  V30 9 C 2.269796 0.451749 -2.172863 0
M  V30 10 N 3.418961 0.751311 -2.806083 0
M  V30 11 N 3.477340 2.064366 -2.927776 0
M  V30 12 C 2.383880 2.644490 -2.385466 0
M  V30 13 C 1.903506 4.016426 -2.226241 0
M  V30 14 O 1.552130 4.622541 -3.280545 0
M  V30 15 N 1.876901 4.548033 -0.885424 0
M  V30 16 C 2.284796 3.835554 0.320652 0
M  V30 17 C 1.415117 5.897171 -0.663542 0
M  V30 18 C 1.577791 1.612475 -1.884648 0
M  V30 19 C 0.370237 1.494756 -1.233387 0
M  V30 20 N -0.112406 0.267587 -0.891086 0
M  V30 21 C -1.597311 -3.722382 3.311934 0
M  V30 22 C -1.546082 -3.210652 4.614332 0
M  V30 23 C -2.724698 -2.970821 5.281317 0
M  V30 24 C -3.970834 -3.203252 4.746232 0
M  V30 25 C -3.928784 -3.714282 3.442241 0
M  V30 26 C -2.802186 -3.981985 2.707233 0
M  V30 27 H 1.176524 -5.503836 2.425173 0
M  V30 28 H -0.496378 -6.041331 1.949441 0
M  V30 29 H -0.020531 -5.745718 3.702160 0
M  V30 30 H 0.512749 -3.374242 3.115398 0
M  V30 31 H -1.179067 -3.965307 0.671729 0
M  V30 32 H -0.855586 -2.517840 -1.268427 0
M  V30 33 H 2.228071 -1.763133 -1.998579 0
M  V30 34 H 4.142887 0.082140 -3.145166 0
M  V30 35 H 2.909957 4.474143 0.980775 0
M  V30 36 H 2.809475 2.881234 0.057478 0
M  V30 37 H 1.375110 3.489331 0.876486 0
M  V30 38 H 2.279767 6.541790 -0.401880 0
M  V30 39 H 0.745696 5.871759 0.244569 0
M  V30 40 H 0.793218 6.270265 -1.493527 0
M  V30 41 H -0.165733 2.408253 -1.014284 0
M  V30 42 H -0.593375 -3.011981 5.074781 0
M  V30 43 H -2.702779 -2.572765 6.290303 0
M  V30 44 H -4.930156 -3.037249 5.209296 0
M  V30 45 H -4.899108 -3.917686 2.966114 0
M  V30 46 H -2.867616 -4.374769 1.715522 0
M  V30 END ATOM
M  V30 BEGIN BOND
M  V30 1 1 1 2
M  V30 2 1 2 3
M  V30 3 1 3 4
M  V30 4 2 4 5
M  V30 5 1 4 6
M  V30 6 1 6 7
M  V30 7 2 7 8
M  V30 8 1 8 9
M  V30 9 1 9 10
M  V30 10 1 10 11
M  V30 11 2 11 12
M  V30 12 1 12 13
M  V30 13 2 13 14
M  V30 14 1 13 15
M  V30 15 1 15 16
M  V30 16 1 15 17
M  V30 17 1 12 18
M  V30 18 1 18 19
M  V30 19 2 19 20
M  V30 20 1 2 21
M  V30 21 2 21 22
M  V30 22 1 22 23
M  V30 23 2 23 24
M  V30 24 1 24 25
M  V30 25 2 25 26
M  V30 26 1 20 7
M  V30 27 1 26 21
M  V30 28 2 18 9
M  V30 29 1 1 27
M  V30 30 1 1 28
M  V30 31 1 1 29
M  V30 32 1 2 30 CFG=1
M  V30 33 1 3 31
M  V30 34 1 6 32
M  V30 35 1 8 33
M  V30 36 1 10 34
M  V30 37 1 16 35
M  V30 38 1 16 36
M  V30 39 1 16 37
M  V30 40 1 17 38
M  V30 41 1 17 39
M  V30 42 1 17 40
M  V30 43 1 19 41
M  V30 44 1 22 42
M  V30 45 1 23 43
M  V30 46 1 24 44
M  V30 47 1 25 45
M  V30 48 1 26 46
M  V30 END BOND
M  V30 END CTAB
M  END
>  <Dataset>  (203) 
ChEMBL_Kinases

>  <Ligand_Instance>  (203) 
nan

>  <PDB_ID>  (203) 
nan

>  <Standardized_SMILES>  (203) 
C[C@@H](NC(=O)Nc1cc2[nH]nc(C(=O)N(C)C)c2cn1)c1ccccc1

>  <Name>  (203) 
nan

>  <Pocket>  (203) 
nan

>  <ATP_Site>  (203) 
nan

>  <Peripheral>  (203) 
nan

>  <Num_H_Atoms_ProtBoundConf>  (203) 
nan

>  <Num_Resolved_Atoms>  (203) 
nan

>  <Num_Not_Resolved_Atoms>  (203) 
nan

$$$$
CHEMBL3654826
     RDKit          3D

  0  0  0  0  0  0  0  0  0  0999 V3000
M  V30 BEGIN CTAB
M  V30 COUNTS 38 40 0 0 0
M  V30 BEGIN ATOM
M  V30 1 C -1.396983 -6.356512 1.679922 0
M  V30 2 C -0.608064 -5.378445 2.477974 0
M  V30 3 C 0.041209 -4.345816 1.826205 0
M  V30 4 C 0.772441 -3.440747 2.574527 0
M  V30 5 C 1.511862 -2.299596 2.032593 0
M  V30 6 N 2.778068 -1.901823 2.358434 0
M  V30 7 N 3.107055 -0.823749 1.657820 0
M  V30 8 C 2.042740 -0.534716 0.881712 0
M  V30 9 C 1.909892 0.503532 -0.022558 0
M  V30 10 C 0.720190 0.618942 -0.722801 0
M  V30 11 N 0.361682 1.603818 -1.699239 0
M  V30 12 C -0.277341 2.807729 -1.230443 0
M  V30 13 O -0.485721 2.932347 -0.004477 0
M  V30 14 N -0.656074 3.812449 -2.118685 0
M  V30 15 C -1.302286 5.073116 -1.799797 0
M  V30 16 C -0.369244 5.823365 -0.872647 0
M  V30 17 F -0.889596 7.048052 -0.505198 0
M  V30 18 N -0.284386 -0.269566 -0.519750 0
M  V30 19 C -0.165078 -1.292957 0.365639 0
M  V30 20 C 1.010156 -1.433904 1.079074 0
M  V30 21 C 0.778293 -3.672756 3.955604 0
M  V30 22 C 0.128448 -4.704151 4.595626 0
M  V30 23 N -0.558883 -5.540989 3.812391 0
M  V30 24 H -2.413641 -5.986446 1.439575 0
M  V30 25 H -1.440269 -7.336517 2.205545 0
M  V30 26 H -0.865168 -6.477843 0.705863 0
M  V30 27 H 0.017828 -4.192666 0.755726 0
M  V30 28 H 4.011829 -0.293830 1.692712 0
M  V30 29 H 2.633428 1.264771 -0.266529 0
M  V30 30 H 0.534736 1.498643 -2.710621 0
M  V30 31 H -0.446022 3.630864 -3.145169 0
M  V30 32 H -1.573272 5.637761 -2.685853 0
M  V30 33 H -2.189222 4.809738 -1.162300 0
M  V30 34 H -0.187084 5.235907 0.045309 0
M  V30 35 H 0.626611 5.922870 -1.380874 0
M  V30 36 H -0.961607 -2.012133 0.538465 0
M  V30 37 H 1.344846 -2.976522 4.564190 0
M  V30 38 H 0.213345 -4.773353 5.684216 0
M  V30 END ATOM
M  V30 BEGIN BOND
M  V30 1 1 1 2
M  V30 2 2 2 3
M  V30 3 1 3 4
M  V30 4 1 4 5
M  V30 5 2 5 6
M  V30 6 1 6 7
M  V30 7 1 7 8
M  V30 8 2 8 9
M  V30 9 1 9 10
M  V30 10 1 10 11
M  V30 11 1 11 12
M  V30 12 2 12 13
M  V30 13 1 12 14
M  V30 14 1 14 15
M  V30 15 1 15 16
M  V30 16 1 16 17
M  V30 17 2 10 18
M  V30 18 1 18 19
M  V30 19 2 19 20
M  V30 20 2 4 21
M  V30 21 1 21 22
M  V30 22 2 22 23
M  V30 23 1 23 2
M  V30 24 1 20 5
M  V30 25 1 20 8
M  V30 26 1 1 24
M  V30 27 1 1 25
M  V30 28 1 1 26
M  V30 29 1 3 27
M  V30 30 1 7 28
M  V30 31 1 9 29
M  V30 32 1 11 30
M  V30 33 1 14 31
M  V30 34 1 15 32
M  V30 35 1 15 33
M  V30 36 1 16 34
M  V30 37 1 16 35
M  V30 38 1 19 36
M  V30 39 1 21 37
M  V30 40 1 22 38
M  V30 END BOND
M  V30 END CTAB
M  END
>  <Dataset>  (204) 
ChEMBL_Kinases

>  <Ligand_Instance>  (204) 
nan

>  <PDB_ID>  (204) 
nan

>  <Standardized_SMILES>  (204) 
Cc1cc(-c2n[nH]c3cc(NC(=O)NCCF)ncc23)ccn1

>  <Name>  (204) 
nan

>  <Pocket>  (204) 
nan

>  <ATP_Site>  (204) 
nan

>  <Peripheral>  (204) 
nan

>  <Num_H_Atoms_ProtBoundConf>  (204) 
nan

>  <Num_Resolved_Atoms>  (204) 
nan

>  <Num_Not_Resolved_Atoms>  (204) 
nan

$$$$
CHEMBL3654825
     RDKit          3D

  0  0  0  0  0  0  0  0  0  0999 V3000
M  V30 BEGIN CTAB
M  V30 COUNTS 51 54 0 0 0
M  V30 BEGIN ATOM
M  V30 1 C -0.005467 -7.037026 1.315194 0
M  V30 2 C 1.015612 -6.755944 0.298514 0
M  V30 3 C 1.167405 -5.484522 -0.244958 0
M  V30 4 C 2.088351 -5.144121 -1.189659 0
M  V30 5 C 2.210766 -3.800282 -1.729545 0
M  V30 6 N 2.354109 -3.456903 -3.034641 0
M  V30 7 N 2.436162 -2.138822 -3.168178 0
M  V30 8 C 2.347647 -1.587347 -1.944593 0
M  V30 9 C 2.371972 -0.284934 -1.485381 0
M  V30 10 C 2.256033 -0.015819 -0.130562 0
M  V30 11 N 2.266364 1.273253 0.467284 0
M  V30 12 C 1.064701 1.974390 0.647135 0
M  V30 13 O 0.024122 1.397162 0.254575 0
M  V30 14 N 0.899145 3.253845 1.219564 0
M  V30 15 C -0.176907 4.149786 1.524067 0
M  V30 16 C -1.200547 3.730671 2.496040 0
M  V30 17 C -1.930729 2.464531 2.234008 0
M  V30 18 N -3.131536 2.409039 3.078040 0
M  V30 19 C -3.863819 1.190680 2.734097 0
M  V30 20 C -4.018397 3.505188 2.796104 0
M  V30 21 C -3.293628 4.508102 1.946955 0
M  V30 22 O -2.104974 4.823216 2.608912 0
M  V30 23 N 2.120056 -1.049661 0.720098 0
M  V30 24 C 2.091159 -2.334989 0.317850 0
M  V30 25 C 2.205917 -2.611354 -1.028641 0
M  V30 26 C 2.919835 -6.154459 -1.622170 0
M  V30 27 C 2.793798 -7.429106 -1.101051 0
M  V30 28 N 1.859488 -7.700520 -0.166229 0
M  V30 29 H -0.115770 -6.261434 2.080475 0
M  V30 30 H 0.286164 -7.989120 1.815147 0
M  V30 31 H -0.983193 -7.255923 0.816896 0
M  V30 32 H 0.483504 -4.740911 0.138665 0
M  V30 33 H 2.549287 -1.573472 -4.037086 0
M  V30 34 H 2.477873 0.548063 -2.132680 0
M  V30 35 H 3.145193 1.728548 0.783892 0
M  V30 36 H 1.879868 3.607096 1.481678 0
M  V30 37 H 0.284302 5.098439 1.928902 0
M  V30 38 H -0.738285 4.427345 0.564871 0
M  V30 39 H -0.741956 3.632631 3.520186 0
M  V30 40 H -1.332385 1.601212 2.552580 0
M  V30 41 H -2.293627 2.313199 1.211886 0
M  V30 42 H -3.787334 0.975384 1.648398 0
M  V30 43 H -4.959579 1.315193 2.934633 0
M  V30 44 H -3.533505 0.334375 3.346064 0
M  V30 45 H -4.993667 3.199069 2.402246 0
M  V30 46 H -4.199655 4.009280 3.784831 0
M  V30 47 H -3.119886 4.153104 0.908652 0
M  V30 48 H -3.870280 5.454587 1.826251 0
M  V30 49 H 1.979546 -3.105454 1.058896 0
M  V30 50 H 3.673250 -5.998578 -2.355906 0
M  V30 51 H 3.391201 -8.293397 -1.367647 0
M  V30 END ATOM
M  V30 BEGIN BOND
M  V30 1 1 1 2
M  V30 2 2 2 3
M  V30 3 1 3 4
M  V30 4 1 4 5
M  V30 5 2 5 6
M  V30 6 1 6 7
M  V30 7 1 7 8
M  V30 8 2 8 9
M  V30 9 1 9 10
M  V30 10 1 10 11
M  V30 11 1 11 12
M  V30 12 2 12 13
M  V30 13 1 12 14
M  V30 14 1 14 15
M  V30 15 1 15 16
M  V30 16 1 16 17
M  V30 17 1 17 18
M  V30 18 1 18 19
M  V30 19 1 18 20
M  V30 20 1 20 21
M  V30 21 1 21 22
M  V30 22 2 10 23
M  V30 23 1 23 24
M  V30 24 2 24 25
M  V30 25 2 4 26
M  V30 26 1 26 27
M  V30 27 2 27 28
M  V30 28 1 28 2
M  V30 29 1 25 5
M  V30 30 1 25 8
M  V30 31 1 22 16
M  V30 32 1 1 29
M  V30 33 1 1 30
M  V30 34 1 1 31
M  V30 35 1 3 32
M  V30 36 1 7 33
M  V30 37 1 9 34
M  V30 38 1 11 35
M  V30 39 1 14 36
M  V30 40 1 15 37
M  V30 41 1 15 38
M  V30 42 1 16 39
M  V30 43 1 17 40
M  V30 44 1 17 41
M  V30 45 1 19 42
M  V30 46 1 19 43
M  V30 47 1 19 44
M  V30 48 1 20 45
M  V30 49 1 20 46
M  V30 50 1 21 47
M  V30 51 1 21 48
M  V30 52 1 24 49
M  V30 53 1 26 50
M  V30 54 1 27 51
M  V30 END BOND
M  V30 END CTAB
M  END
>  <Dataset>  (205) 
ChEMBL_Kinases

>  <Ligand_Instance>  (205) 
nan

>  <PDB_ID>  (205) 
nan

>  <Standardized_SMILES>  (205) 
Cc1cc(-c2n[nH]c3cc(NC(=O)NCC4CN(C)CCO4)ncc23)ccn1

>  <Name>  (205) 
nan

>  <Pocket>  (205) 
nan

>  <ATP_Site>  (205) 
nan

>  <Peripheral>  (205) 
nan

>  <Num_H_Atoms_ProtBoundConf>  (205) 
nan

>  <Num_Resolved_Atoms>  (205) 
nan

>  <Num_Not_Resolved_Atoms>  (205) 
nan

$$$$
CHEMBL3654824
     RDKit          3D

  0  0  0  0  0  0  0  0  0  0999 V3000
M  V30 BEGIN CTAB
M  V30 COUNTS 51 54 0 0 0
M  V30 BEGIN ATOM
M  V30 1 C 0.919271 -5.227077 0.789452 0
M  V30 2 N 0.669739 -4.316616 -0.304779 0
M  V30 3 C 1.423371 -4.599020 -1.471594 0
M  V30 4 C 1.229524 -3.663927 -2.627319 0
M  V30 5 N 1.571353 -2.287992 -2.363589 0
M  V30 6 C 1.037038 -1.375301 -1.420740 0
M  V30 7 O 0.110624 -1.756038 -0.662267 0
M  V30 8 N 1.489673 -0.039181 -1.277985 0
M  V30 9 C 0.885484 0.798697 -0.298695 0
M  V30 10 C 1.341349 2.093549 -0.177426 0
M  V30 11 C 0.740423 2.900216 0.784485 0
M  V30 12 N 0.916706 4.179185 1.178668 0
M  V30 13 N 0.072784 4.472957 2.155051 0
M  V30 14 C -0.710696 3.410579 2.465702 0
M  V30 15 C -1.753369 3.355855 3.485564 0
M  V30 16 C -1.847637 2.275583 4.345246 0
M  V30 17 C -2.814113 2.157548 5.338583 0
M  V30 18 N -3.699269 3.158240 5.456977 0
M  V30 19 C -3.658969 4.238141 4.648326 0
M  V30 20 C -4.661412 5.324183 4.816133 0
M  V30 21 C -2.702065 4.364962 3.657718 0
M  V30 22 C -0.287830 2.422165 1.601068 0
M  V30 23 C -0.691358 1.131916 1.429439 0
M  V30 24 N -0.104200 0.336869 0.486503 0
M  V30 25 C 1.201763 -6.013985 -2.026046 0
M  V30 26 C 2.461783 -6.157194 -2.872453 0
M  V30 27 O 3.334889 -5.147480 -2.494380 0
M  V30 28 C 2.928069 -4.713784 -1.235075 0
M  V30 29 H 0.329145 -4.875302 1.677946 0
M  V30 30 H 1.965409 -5.214380 1.113160 0
M  V30 31 H 0.515815 -6.208560 0.528307 0
M  V30 32 H -0.353667 -4.445297 -0.574755 0
M  V30 33 H 1.759631 -4.012513 -3.513104 0
M  V30 34 H 0.135737 -3.679774 -2.924609 0
M  V30 35 H 2.334340 -1.846878 -2.937712 0
M  V30 36 H 2.242338 0.286878 -1.886699 0
M  V30 37 H 2.134440 2.514058 -0.784142 0
M  V30 38 H 1.627803 4.831526 0.757531 0
M  V30 39 H -1.161004 1.441041 4.295010 0
M  V30 40 H -2.865182 1.305814 5.994508 0
M  V30 41 H -4.206734 6.294586 5.101345 0
M  V30 42 H -5.375081 5.048618 5.625794 0
M  V30 43 H -5.287503 5.449764 3.902543 0
M  V30 44 H -2.651346 5.230285 2.992423 0
M  V30 45 H -1.482467 0.704993 2.031316 0
M  V30 46 H 0.281723 -6.068992 -2.636923 0
M  V30 47 H 1.282979 -6.791235 -1.253695 0
M  V30 48 H 2.160836 -5.961788 -3.920723 0
M  V30 49 H 2.910328 -7.170456 -2.782238 0
M  V30 50 H 3.407466 -3.770936 -0.977572 0
M  V30 51 H 3.139772 -5.511209 -0.509617 0
M  V30 END ATOM
M  V30 BEGIN BOND
M  V30 1 1 1 2
M  V30 2 1 2 3
M  V30 3 1 3 4
M  V30 4 1 4 5
M  V30 5 1 5 6
M  V30 6 2 6 7
M  V30 7 1 6 8
M  V30 8 1 8 9
M  V30 9 2 9 10
M  V30 10 1 10 11
M  V30 11 1 11 12
M  V30 12 1 12 13
M  V30 13 2 13 14
M  V30 14 1 14 15
M  V30 15 2 15 16
M  V30 16 1 16 17
M  V30 17 2 17 18
M  V30 18 1 18 19
M  V30 19 1 19 20
M  V30 20 2 19 21
M  V30 21 1 14 22
M  V30 22 1 22 23
M  V30 23 2 23 24
M  V30 24 1 3 25
M  V30 25 1 25 26
M  V30 26 1 26 27
M  V30 27 1 27 28
M  V30 28 1 28 3
M  V30 29 1 24 9
M  V30 30 2 22 11
M  V30 31 1 21 15
M  V30 32 1 1 29
M  V30 33 1 1 30
M  V30 34 1 1 31
M  V30 35 1 2 32
M  V30 36 1 4 33
M  V30 37 1 4 34
M  V30 38 1 5 35
M  V30 39 1 8 36
M  V30 40 1 10 37
M  V30 41 1 12 38
M  V30 42 1 16 39
M  V30 43 1 17 40
M  V30 44 1 20 41
M  V30 45 1 20 42
M  V30 46 1 20 43
M  V30 47 1 21 44
M  V30 48 1 23 45
M  V30 49 1 25 46
M  V30 50 1 25 47
M  V30 51 1 26 48
M  V30 52 1 26 49
M  V30 53 1 28 50
M  V30 54 1 28 51
M  V30 END BOND
M  V30 END CTAB
M  END
>  <Dataset>  (206) 
ChEMBL_Kinases

>  <Ligand_Instance>  (206) 
nan

>  <PDB_ID>  (206) 
nan

>  <Standardized_SMILES>  (206) 
CNC1(CNC(=O)Nc2cc3[nH]nc(-c4ccnc(C)c4)c3cn2)CCOC1

>  <Name>  (206) 
nan

>  <Pocket>  (206) 
nan

>  <ATP_Site>  (206) 
nan

>  <Peripheral>  (206) 
nan

>  <Num_H_Atoms_ProtBoundConf>  (206) 
nan

>  <Num_Resolved_Atoms>  (206) 
nan

>  <Num_Not_Resolved_Atoms>  (206) 
nan

$$$$
CHEMBL3654823
     RDKit          3D

  0  0  0  0  0  0  0  0  0  0999 V3000
M  V30 BEGIN CTAB
M  V30 COUNTS 52 55 0 0 0
M  V30 BEGIN ATOM
M  V30 1 C 0.437991 -7.895278 0.577903 0
M  V30 2 C 1.711081 -7.378946 0.013346 0
M  V30 3 C 1.747622 -6.172453 -0.613215 0
M  V30 4 C 2.864987 -5.589043 -1.175421 0
M  V30 5 C 2.858728 -4.288146 -1.840183 0
M  V30 6 N 3.450403 -3.966058 -3.028416 0
M  V30 7 N 3.220884 -2.682042 -3.299069 0
M  V30 8 C 2.478988 -2.102604 -2.319722 0
M  V30 9 C 2.003176 -0.810456 -2.169566 0
M  V30 10 C 1.261988 -0.578930 -1.010758 0
M  V30 11 N 0.707021 0.702433 -0.718359 0
M  V30 12 C -0.055656 0.947068 0.470924 0
M  V30 13 O -0.211907 -0.018572 1.242092 0
M  V30 14 N -0.609473 2.228095 0.761493 0
M  V30 15 C -1.374948 2.403128 1.991731 0
M  V30 16 C -0.573451 3.317636 2.865561 0
M  V30 17 C -1.485461 3.881147 3.915953 0
M  V30 18 O -2.372235 4.715922 3.234446 0
M  V30 19 C -3.267228 4.047811 2.432318 0
M  V30 20 C -3.796118 5.117896 1.464542 0
M  V30 21 C -4.467600 3.727634 3.335604 0
M  V30 22 C -2.775047 2.844800 1.734244 0
M  V30 23 N 1.039920 -1.570117 -0.112890 0
M  V30 24 C 1.516227 -2.818821 -0.286458 0
M  V30 25 C 2.258418 -3.120346 -1.410656 0
M  V30 26 C 4.059769 -6.267610 -1.109513 0
M  V30 27 C 4.009350 -7.490794 -0.471129 0
M  V30 28 N 2.907553 -8.024995 0.062204 0
M  V30 29 H -0.074975 -7.201044 1.248777 0
M  V30 30 H 0.588546 -8.872623 1.076325 0
M  V30 31 H -0.245997 -8.093062 -0.284511 0
M  V30 32 H 0.801660 -5.616393 -0.675041 0
M  V30 33 H 3.571622 -2.199169 -4.155015 0
M  V30 34 H 2.175793 -0.034447 -2.870368 0
M  V30 35 H 0.858786 1.503160 -1.396148 0
M  V30 36 H -0.415542 2.962693 0.045283 0
M  V30 37 H -1.362382 1.406797 2.487145 0
M  V30 38 H -0.125519 4.098495 2.199143 0
M  V30 39 H 0.289408 2.757040 3.283463 0
M  V30 40 H -0.923867 4.470059 4.639196 0
M  V30 41 H -2.040338 3.041935 4.357615 0
M  V30 42 H -4.501521 5.773392 2.016347 0
M  V30 43 H -2.936057 5.793436 1.206107 0
M  V30 44 H -4.263195 4.681729 0.579355 0
M  V30 45 H -5.145101 3.034752 2.778038 0
M  V30 46 H -4.153290 3.267035 4.292374 0
M  V30 47 H -5.042879 4.660059 3.487452 0
M  V30 48 H -2.946178 2.998117 0.627501 0
M  V30 49 H -3.471654 2.004545 1.958299 0
M  V30 50 H 1.304576 -3.566239 0.466850 0
M  V30 51 H 4.945765 -5.844622 -1.535022 0
M  V30 52 H 4.931699 -8.080545 -0.386481 0
M  V30 END ATOM
M  V30 BEGIN BOND
M  V30 1 1 1 2
M  V30 2 2 2 3
M  V30 3 1 3 4
M  V30 4 1 4 5
M  V30 5 2 5 6
M  V30 6 1 6 7
M  V30 7 1 7 8
M  V30 8 2 8 9
M  V30 9 1 9 10
M  V30 10 1 10 11
M  V30 11 1 11 12
M  V30 12 2 12 13
M  V30 13 1 12 14
M  V30 14 1 14 15
M  V30 15 1 15 16
M  V30 16 1 16 17
M  V30 17 1 17 18
M  V30 18 1 18 19
M  V30 19 1 19 20
M  V30 20 1 19 21
M  V30 21 1 19 22
M  V30 22 2 10 23
M  V30 23 1 23 24
M  V30 24 2 24 25
M  V30 25 2 4 26
M  V30 26 1 26 27
M  V30 27 2 27 28
M  V30 28 1 28 2
M  V30 29 1 25 5
M  V30 30 1 25 8
M  V30 31 1 22 15
M  V30 32 1 1 29
M  V30 33 1 1 30
M  V30 34 1 1 31
M  V30 35 1 3 32
M  V30 36 1 7 33
M  V30 37 1 9 34
M  V30 38 1 11 35
M  V30 39 1 14 36
M  V30 40 1 15 37
M  V30 41 1 16 38
M  V30 42 1 16 39
M  V30 43 1 17 40
M  V30 44 1 17 41
M  V30 45 1 20 42
M  V30 46 1 20 43
M  V30 47 1 20 44
M  V30 48 1 21 45
M  V30 49 1 21 46
M  V30 50 1 21 47
M  V30 51 1 22 48
M  V30 52 1 22 49
M  V30 53 1 24 50
M  V30 54 1 26 51
M  V30 55 1 27 52
M  V30 END BOND
M  V30 END CTAB
M  END
>  <Dataset>  (207) 
ChEMBL_Kinases

>  <Ligand_Instance>  (207) 
nan

>  <PDB_ID>  (207) 
nan

>  <Standardized_SMILES>  (207) 
Cc1cc(-c2n[nH]c3cc(NC(=O)NC4CCOC(C)(C)C4)ncc23)ccn1

>  <Name>  (207) 
nan

>  <Pocket>  (207) 
nan

>  <ATP_Site>  (207) 
nan

>  <Peripheral>  (207) 
nan

>  <Num_H_Atoms_ProtBoundConf>  (207) 
nan

>  <Num_Resolved_Atoms>  (207) 
nan

>  <Num_Not_Resolved_Atoms>  (207) 
nan

$$$$
CHEMBL3654822
     RDKit          3D

  0  0  0  0  0  0  0  0  0  0999 V3000
M  V30 BEGIN CTAB
M  V30 COUNTS 42 44 0 0 0
M  V30 BEGIN ATOM
M  V30 1 C -0.449776 -6.686056 1.067777 0
M  V30 2 C 0.562067 -6.106847 0.141464 0
M  V30 3 C 0.940144 -4.777771 0.233982 0
M  V30 4 C 1.886816 -4.370783 -0.685841 0
M  V30 5 C 2.356648 -2.989000 -0.677207 0
M  V30 6 N 3.678256 -2.678530 -0.781057 0
M  V30 7 N 3.823045 -1.352119 -0.746104 0
M  V30 8 C 2.597980 -0.809639 -0.620072 0
M  V30 9 C 2.080938 0.475523 -0.529004 0
M  V30 10 C 0.729526 0.738590 -0.401988 0
M  V30 11 N 0.214841 2.062641 -0.309697 0
M  V30 12 C 0.062796 2.680979 0.945248 0
M  V30 13 O 0.408095 1.987828 1.934000 0
M  V30 14 N -0.423963 3.960256 1.184033 0
M  V30 15 C -0.728867 4.836366 2.267833 0
M  V30 16 C -1.819005 4.539736 3.201679 0
M  V30 17 O -1.840448 5.563232 4.184046 0
M  V30 18 C -1.881543 3.199946 3.855548 0
M  V30 19 F -0.763645 2.876763 4.586387 0
M  V30 20 F -2.975529 3.244797 4.792095 0
M  V30 21 F -2.222090 2.167971 3.034815 0
M  V30 22 N -0.155337 -0.295387 -0.362075 0
M  V30 23 C 0.289190 -1.581838 -0.446880 0
M  V30 24 C 1.643921 -1.810180 -0.572937 0
M  V30 25 C 2.399302 -5.245931 -1.615659 0
M  V30 26 C 1.965790 -6.570907 -1.643303 0
M  V30 27 N 1.036154 -6.998810 -0.751160 0
M  V30 28 H -0.146710 -7.686519 1.441071 0
M  V30 29 H -1.381090 -6.864364 0.456703 0
M  V30 30 H -0.708313 -6.009600 1.890717 0
M  V30 31 H 0.510837 -4.124313 0.981492 0
M  V30 32 H 4.672234 -0.743552 -0.798169 0
M  V30 33 H 2.751897 1.309658 -0.557467 0
M  V30 34 H -0.057128 2.594861 -1.163404 0
M  V30 35 H -0.638664 4.424980 0.240364 0
M  V30 36 H 0.241178 4.805797 2.907214 0
M  V30 37 H -0.705239 5.900671 1.927807 0
M  V30 38 H -2.840785 4.692296 2.664592 0
M  V30 39 H -2.396751 6.332504 3.897233 0
M  V30 40 H -0.412162 -2.404766 -0.415371 0
M  V30 41 H 3.143394 -4.889385 -2.324224 0
M  V30 42 H 2.416888 -7.191645 -2.402769 0
M  V30 END ATOM
M  V30 BEGIN BOND
M  V30 1 1 1 2
M  V30 2 2 2 3
M  V30 3 1 3 4
M  V30 4 1 4 5
M  V30 5 2 5 6
M  V30 6 1 6 7
M  V30 7 1 7 8
M  V30 8 2 8 9
M  V30 9 1 9 10
M  V30 10 1 10 11
M  V30 11 1 11 12
M  V30 12 2 12 13
M  V30 13 1 12 14
M  V30 14 1 14 15
M  V30 15 1 15 16
M  V30 16 1 16 17
M  V30 17 1 16 18
M  V30 18 1 18 19
M  V30 19 1 18 20
M  V30 20 1 18 21
M  V30 21 2 10 22
M  V30 22 1 22 23
M  V30 23 2 23 24
M  V30 24 2 4 25
M  V30 25 1 25 26
M  V30 26 2 26 27
M  V30 27 1 27 2
M  V30 28 1 24 5
M  V30 29 1 24 8
M  V30 30 1 1 28
M  V30 31 1 1 29
M  V30 32 1 1 30
M  V30 33 1 3 31
M  V30 34 1 7 32
M  V30 35 1 9 33
M  V30 36 1 11 34
M  V30 37 1 14 35
M  V30 38 1 15 36
M  V30 39 1 15 37
M  V30 40 1 16 38
M  V30 41 1 17 39
M  V30 42 1 23 40
M  V30 43 1 25 41
M  V30 44 1 26 42
M  V30 END BOND
M  V30 END CTAB
M  END
>  <Dataset>  (208) 
ChEMBL_Kinases

>  <Ligand_Instance>  (208) 
nan

>  <PDB_ID>  (208) 
nan

>  <Standardized_SMILES>  (208) 
Cc1cc(-c2n[nH]c3cc(NC(=O)NCC(O)C(F)(F)F)ncc23)ccn1

>  <Name>  (208) 
nan

>  <Pocket>  (208) 
nan

>  <ATP_Site>  (208) 
nan

>  <Peripheral>  (208) 
nan

>  <Num_H_Atoms_ProtBoundConf>  (208) 
nan

>  <Num_Resolved_Atoms>  (208) 
nan

>  <Num_Not_Resolved_Atoms>  (208) 
nan

$$$$
CHEMBL3654821
     RDKit          3D

  0  0  0  0  0  0  0  0  0  0999 V3000
M  V30 BEGIN CTAB
M  V30 COUNTS 42 44 0 0 0
M  V30 BEGIN ATOM
M  V30 1 C -0.201602 -6.846552 0.824238 0
M  V30 2 C 0.675894 -6.279320 -0.238674 0
M  V30 3 C 1.041823 -4.966042 -0.108070 0
M  V30 4 C 1.851946 -4.335104 -1.032228 0
M  V30 5 C 2.286645 -2.940373 -0.965187 0
M  V30 6 N 3.543989 -2.460779 -1.184463 0
M  V30 7 N 3.558677 -1.138001 -1.033918 0
M  V30 8 C 2.299060 -0.779600 -0.716734 0
M  V30 9 C 1.821564 0.494295 -0.464200 0
M  V30 10 C 0.481548 0.632315 -0.155037 0
M  V30 11 N -0.235418 1.829348 0.140911 0
M  V30 12 C -0.354630 2.324073 1.483630 0
M  V30 13 O 0.226068 1.611132 2.365769 0
M  V30 14 N -1.061659 3.510198 1.800939 0
M  V30 15 C -1.162175 3.976348 3.147240 0
M  V30 16 C -0.489471 5.316224 3.313707 0
M  V30 17 O 0.854625 5.129185 2.966283 0
M  V30 18 C -2.564834 4.033197 3.699619 0
M  V30 19 F -2.423541 4.510722 5.010250 0
M  V30 20 F -3.111522 2.773404 3.852268 0
M  V30 21 F -3.367564 4.916374 3.037465 0
M  V30 22 N -0.323310 -0.457919 -0.105715 0
M  V30 23 C 0.117642 -1.708315 -0.347522 0
M  V30 24 C 1.455316 -1.873638 -0.659348 0
M  V30 25 C 2.272446 -5.103268 -2.095872 0
M  V30 26 C 1.889214 -6.444216 -2.214303 0
M  V30 27 N 1.086843 -7.025531 -1.275752 0
M  V30 28 H 0.356117 -7.454545 1.555887 0
M  V30 29 H -0.931426 -7.506536 0.314917 0
M  V30 30 H -0.770955 -6.061914 1.347643 0
M  V30 31 H 0.704919 -4.369995 0.733782 0
M  V30 32 H 4.386142 -0.508528 -1.141738 0
M  V30 33 H 2.370067 1.426191 -0.475855 0
M  V30 34 H -0.708537 2.407743 -0.588687 0
M  V30 35 H -1.522190 4.057211 1.021068 0
M  V30 36 H -0.601976 3.241055 3.788873 0
M  V30 37 H -0.614382 5.718900 4.321296 0
M  V30 38 H -0.918466 5.991670 2.533979 0
M  V30 39 H 1.328227 4.845646 3.791047 0
M  V30 40 H -0.516892 -2.583387 -0.310441 0
M  V30 41 H 2.916665 -4.649459 -2.856319 0
M  V30 42 H 2.220004 -7.044756 -3.049033 0
M  V30 END ATOM
M  V30 BEGIN BOND
M  V30 1 1 1 2
M  V30 2 2 2 3
M  V30 3 1 3 4
M  V30 4 1 4 5
M  V30 5 2 5 6
M  V30 6 1 6 7
M  V30 7 1 7 8
M  V30 8 2 8 9
M  V30 9 1 9 10
M  V30 10 1 10 11
M  V30 11 1 11 12
M  V30 12 2 12 13
M  V30 13 1 12 14
M  V30 14 1 14 15
M  V30 15 1 15 16
M  V30 16 1 16 17
M  V30 17 1 15 18
M  V30 18 1 18 19
M  V30 19 1 18 20
M  V30 20 1 18 21
M  V30 21 2 10 22
M  V30 22 1 22 23
M  V30 23 2 23 24
M  V30 24 2 4 25
M  V30 25 1 25 26
M  V30 26 2 26 27
M  V30 27 1 27 2
M  V30 28 1 24 5
M  V30 29 1 24 8
M  V30 30 1 1 28
M  V30 31 1 1 29
M  V30 32 1 1 30
M  V30 33 1 3 31
M  V30 34 1 7 32
M  V30 35 1 9 33
M  V30 36 1 11 34
M  V30 37 1 14 35
M  V30 38 1 15 36
M  V30 39 1 16 37
M  V30 40 1 16 38
M  V30 41 1 17 39
M  V30 42 1 23 40
M  V30 43 1 25 41
M  V30 44 1 26 42
M  V30 END BOND
M  V30 END CTAB
M  END
>  <Dataset>  (209) 
ChEMBL_Kinases

>  <Ligand_Instance>  (209) 
nan

>  <PDB_ID>  (209) 
nan

>  <Standardized_SMILES>  (209) 
Cc1cc(-c2n[nH]c3cc(NC(=O)NC(CO)C(F)(F)F)ncc23)ccn1

>  <Name>  (209) 
nan

>  <Pocket>  (209) 
nan

>  <ATP_Site>  (209) 
nan

>  <Peripheral>  (209) 
nan

>  <Num_H_Atoms_ProtBoundConf>  (209) 
nan

>  <Num_Resolved_Atoms>  (209) 
nan

>  <Num_Not_Resolved_Atoms>  (209) 
nan

$$$$
CHEMBL3654820
     RDKit          3D

  0  0  0  0  0  0  0  0  0  0999 V3000
M  V30 BEGIN CTAB
M  V30 COUNTS 53 56 0 0 0
M  V30 BEGIN ATOM
M  V30 1 C -2.043284 -7.243827 -0.447375 0
M  V30 2 C -0.968696 -6.908607 -1.420271 0
M  V30 3 C -0.661702 -5.567541 -1.602665 0
M  V30 4 C 0.330098 -5.220940 -2.497766 0
M  V30 5 C 0.785408 -3.872282 -2.817448 0
M  V30 6 N 1.031600 -3.349200 -4.033519 0
M  V30 7 N 1.431180 -2.087158 -3.917816 0
M  V30 8 C 1.441913 -1.794163 -2.604102 0
M  V30 9 C 1.786181 -0.604639 -1.987608 0
M  V30 10 C 1.725424 -0.525307 -0.633231 0
M  V30 11 N 2.022175 0.563114 0.215106 0
M  V30 12 C 1.048008 1.497541 0.588179 0
M  V30 13 O -0.080726 1.303120 0.125773 0
M  V30 14 N 1.244305 2.606306 1.421666 0
M  V30 15 C 0.401878 3.662172 1.920141 0
M  V30 16 C -0.766714 3.147657 2.753013 0
M  V30 17 N -0.275075 2.398940 3.855509 0
M  V30 18 C 0.558789 3.176376 4.714550 0
M  V30 19 C -1.200647 1.559865 4.537328 0
M  V30 20 C -1.678136 4.289720 3.218424 0
M  V30 21 C -2.845973 3.400168 2.813734 0
M  V30 22 C -1.869290 2.638176 1.915941 0
M  V30 23 N 1.328942 -1.612334 0.087876 0
M  V30 24 C 0.989108 -2.781867 -0.497083 0
M  V30 25 C 1.039771 -2.897895 -1.878786 0
M  V30 26 C 0.950723 -6.273007 -3.155245 0
M  V30 27 C 0.630570 -7.601968 -2.959691 0
M  V30 28 N -0.346332 -7.896115 -2.074413 0
M  V30 29 H -2.929531 -6.578949 -0.577260 0
M  V30 30 H -1.665704 -7.167906 0.589908 0
M  V30 31 H -2.396128 -8.274702 -0.630319 0
M  V30 32 H -1.141095 -4.747237 -1.094207 0
M  V30 33 H 1.682731 -1.463416 -4.708582 0
M  V30 34 H 2.103901 0.284835 -2.472310 0
M  V30 35 H 2.995102 0.684654 0.581432 0
M  V30 36 H 2.268273 2.638910 1.737863 0
M  V30 37 H 0.990960 4.313942 2.586176 0
M  V30 38 H 0.038029 4.329784 1.104712 0
M  V30 39 H 0.408278 4.259128 4.540344 0
M  V30 40 H 1.636196 2.994013 4.485849 0
M  V30 41 H 0.352408 2.896458 5.780345 0
M  V30 42 H -1.810445 2.059238 5.314705 0
M  V30 43 H -1.785152 0.962705 3.812053 0
M  V30 44 H -0.574032 0.784221 5.070975 0
M  V30 45 H -1.615150 4.403810 4.314324 0
M  V30 46 H -1.581002 5.216848 2.646239 0
M  V30 47 H -3.586883 4.017611 2.268152 0
M  V30 48 H -3.303608 2.801213 3.599629 0
M  V30 49 H -2.139877 1.589790 1.907492 0
M  V30 50 H -1.926159 3.082408 0.884529 0
M  V30 51 H 0.673956 -3.650398 0.053267 0
M  V30 52 H 1.735713 -6.068138 -3.869037 0
M  V30 53 H 1.145788 -8.389111 -3.498895 0
M  V30 END ATOM
M  V30 BEGIN BOND
M  V30 1 1 1 2
M  V30 2 2 2 3
M  V30 3 1 3 4
M  V30 4 1 4 5
M  V30 5 2 5 6
M  V30 6 1 6 7
M  V30 7 1 7 8
M  V30 8 2 8 9
M  V30 9 1 9 10
M  V30 10 1 10 11
M  V30 11 1 11 12
M  V30 12 2 12 13
M  V30 13 1 12 14
M  V30 14 1 14 15
M  V30 15 1 15 16
M  V30 16 1 16 17
M  V30 17 1 17 18
M  V30 18 1 17 19
M  V30 19 1 16 20
M  V30 20 1 20 21
M  V30 21 1 21 22
M  V30 22 2 10 23
M  V30 23 1 23 24
M  V30 24 2 24 25
M  V30 25 2 4 26
M  V30 26 1 26 27
M  V30 27 2 27 28
M  V30 28 1 28 2
M  V30 29 1 25 5
M  V30 30 1 25 8
M  V30 31 1 22 16
M  V30 32 1 1 29
M  V30 33 1 1 30
M  V30 34 1 1 31
M  V30 35 1 3 32
M  V30 36 1 7 33
M  V30 37 1 9 34
M  V30 38 1 11 35
M  V30 39 1 14 36
M  V30 40 1 15 37
M  V30 41 1 15 38
M  V30 42 1 18 39
M  V30 43 1 18 40
M  V30 44 1 18 41
M  V30 45 1 19 42
M  V30 46 1 19 43
M  V30 47 1 19 44
M  V30 48 1 20 45
M  V30 49 1 20 46
M  V30 50 1 21 47
M  V30 51 1 21 48
M  V30 52 1 22 49
M  V30 53 1 22 50
M  V30 54 1 24 51
M  V30 55 1 26 52
M  V30 56 1 27 53
M  V30 END BOND
M  V30 END CTAB
M  END
>  <Dataset>  (210) 
ChEMBL_Kinases

>  <Ligand_Instance>  (210) 
nan

>  <PDB_ID>  (210) 
nan

>  <Standardized_SMILES>  (210) 
Cc1cc(-c2n[nH]c3cc(NC(=O)NCC4(N(C)C)CCC4)ncc23)ccn1

>  <Name>  (210) 
nan

>  <Pocket>  (210) 
nan

>  <ATP_Site>  (210) 
nan

>  <Peripheral>  (210) 
nan

>  <Num_H_Atoms_ProtBoundConf>  (210) 
nan

>  <Num_Resolved_Atoms>  (210) 
nan

>  <Num_Not_Resolved_Atoms>  (210) 
nan

$$$$
CHEMBL3654819
     RDKit          3D

  0  0  0  0  0  0  0  0  0  0999 V3000
M  V30 BEGIN CTAB
M  V30 COUNTS 49 52 0 0 0
M  V30 BEGIN ATOM
M  V30 1 C 6.774818 -5.100772 1.902556 0
M  V30 2 C 6.088937 -3.843602 1.453675 0
M  V30 3 N 5.685254 -2.915697 2.253995 0
M  V30 4 O 5.094991 -1.887766 1.562049 0
M  V30 5 C 4.553664 -2.484318 0.383145 0
M  V30 6 C 3.423138 -3.355030 0.754364 0
M  V30 7 C 4.360862 -1.507058 -0.717376 0
M  V30 8 N 3.492978 -0.406505 -0.393581 0
M  V30 9 C 2.154458 -0.270357 -0.032922 0
M  V30 10 O 1.459348 -1.310578 0.041688 0
M  V30 11 N 1.499349 0.953365 0.260989 0
M  V30 12 C 0.118411 0.939286 0.617503 0
M  V30 13 C -0.277273 0.816558 1.935459 0
M  V30 14 C -1.623044 0.804115 2.270067 0
M  V30 15 N -2.321454 0.702716 3.416086 0
M  V30 16 N -3.620969 0.748681 3.145323 0
M  V30 17 C -3.840557 0.880737 1.826623 0
M  V30 18 C -5.149500 0.962797 1.187750 0
M  V30 19 C -6.150815 0.090260 1.562127 0
M  V30 20 C -7.395885 0.158841 0.963250 0
M  V30 21 N -7.640380 1.076703 0.011141 0
M  V30 22 C -6.689866 1.959264 -0.394335 0
M  V30 23 C -7.035719 2.940793 -1.448771 0
M  V30 24 C -5.463546 1.870899 0.214727 0
M  V30 25 C -2.576754 0.915601 1.275017 0
M  V30 26 C -2.169137 1.037563 -0.036922 0
M  V30 27 N -0.854879 1.046830 -0.334173 0
M  V30 28 C 5.747653 -3.423185 0.068778 0
M  V30 29 H 7.336584 -4.866396 2.816911 0
M  V30 30 H 6.039823 -5.910238 2.112761 0
M  V30 31 H 7.494213 -5.403787 1.119840 0
M  V30 32 H 2.896112 -2.932561 1.639217 0
M  V30 33 H 2.767769 -3.672565 -0.069871 0
M  V30 34 H 3.845486 -4.339824 1.142709 0
M  V30 35 H 3.808860 -2.048938 -1.559898 0
M  V30 36 H 5.311217 -1.122303 -1.136970 0
M  V30 37 H 3.954942 0.555295 -0.426622 0
M  V30 38 H 2.049683 1.838113 0.208115 0
M  V30 39 H 0.453422 0.726744 2.742857 0
M  V30 40 H -1.814891 0.606489 4.323642 0
M  V30 41 H -6.021607 -0.665248 2.314833 0
M  V30 42 H -8.210274 -0.512334 1.232230 0
M  V30 43 H -7.839229 3.631941 -1.079662 0
M  V30 44 H -6.144500 3.551091 -1.655832 0
M  V30 45 H -7.357016 2.437282 -2.389382 0
M  V30 46 H -4.724456 2.575765 -0.117742 0
M  V30 47 H -2.917935 1.125854 -0.825928 0
M  V30 48 H 6.595122 -2.831270 -0.316268 0
M  V30 49 H 5.425491 -4.250702 -0.577569 0
M  V30 END ATOM
M  V30 BEGIN BOND
M  V30 1 1 1 2
M  V30 2 2 2 3
M  V30 3 1 3 4
M  V30 4 1 4 5
M  V30 5 1 5 6
M  V30 6 1 5 7
M  V30 7 1 7 8
M  V30 8 1 8 9
M  V30 9 2 9 10
M  V30 10 1 9 11
M  V30 11 1 11 12
M  V30 12 2 12 13
M  V30 13 1 13 14
M  V30 14 1 14 15
M  V30 15 1 15 16
M  V30 16 2 16 17
M  V30 17 1 17 18
M  V30 18 2 18 19
M  V30 19 1 19 20
M  V30 20 2 20 21
M  V30 21 1 21 22
M  V30 22 1 22 23
M  V30 23 2 22 24
M  V30 24 1 17 25
M  V30 25 1 25 26
M  V30 26 2 26 27
M  V30 27 1 5 28
M  V30 28 1 28 2
M  V30 29 1 27 12
M  V30 30 2 25 14
M  V30 31 1 24 18
M  V30 32 1 1 29
M  V30 33 1 1 30
M  V30 34 1 1 31
M  V30 35 1 6 32
M  V30 36 1 6 33
M  V30 37 1 6 34
M  V30 38 1 7 35
M  V30 39 1 7 36
M  V30 40 1 8 37
M  V30 41 1 11 38
M  V30 42 1 13 39
M  V30 43 1 15 40
M  V30 44 1 19 41
M  V30 45 1 20 42
M  V30 46 1 23 43
M  V30 47 1 23 44
M  V30 48 1 23 45
M  V30 49 1 24 46
M  V30 50 1 26 47
M  V30 51 1 28 48
M  V30 52 1 28 49
M  V30 END BOND
M  V30 END CTAB
M  END
>  <Dataset>  (211) 
ChEMBL_Kinases

>  <Ligand_Instance>  (211) 
nan

>  <PDB_ID>  (211) 
nan

>  <Standardized_SMILES>  (211) 
CC1=NOC(C)(CNC(=O)Nc2cc3[nH]nc(-c4ccnc(C)c4)c3cn2)C1

>  <Name>  (211) 
nan

>  <Pocket>  (211) 
nan

>  <ATP_Site>  (211) 
nan

>  <Peripheral>  (211) 
nan

>  <Num_H_Atoms_ProtBoundConf>  (211) 
nan

>  <Num_Resolved_Atoms>  (211) 
nan

>  <Num_Not_Resolved_Atoms>  (211) 
nan

$$$$
CHEMBL3654818
     RDKit          3D

  0  0  0  0  0  0  0  0  0  0999 V3000
M  V30 BEGIN CTAB
M  V30 COUNTS 46 49 0 0 0
M  V30 BEGIN ATOM
M  V30 1 C 2.664820 -8.103353 -0.614813 0
M  V30 2 C 2.227362 -6.800752 -1.217929 0
M  V30 3 N 3.058704 -5.790309 -1.243228 0
M  V30 4 O 2.450354 -4.710432 -1.836095 0
M  V30 5 C 1.036297 -4.876557 -1.706876 0
M  V30 6 C 0.379123 -4.147820 -2.835390 0
M  V30 7 N 0.751543 -2.746954 -2.734744 0
M  V30 8 C 0.466896 -1.928310 -1.639555 0
M  V30 9 O -0.150808 -2.346563 -0.627505 0
M  V30 10 N 0.886691 -0.551207 -1.647876 0
M  V30 11 C 0.575291 0.260072 -0.502180 0
M  V30 12 C 1.458998 0.346019 0.564769 0
M  V30 13 C 1.161913 1.126471 1.669489 0
M  V30 14 N 1.771677 1.425595 2.839319 0
M  V30 15 N 1.017223 2.246713 3.545793 0
M  V30 16 C -0.132558 2.530562 2.873028 0
M  V30 17 C -1.210503 3.406397 3.344745 0
M  V30 18 C -2.558048 3.064570 3.248989 0
M  V30 19 C -3.535826 3.946770 3.718729 0
M  V30 20 N -3.176662 5.125898 4.263332 0
M  V30 21 C -1.882052 5.484538 4.369754 0
M  V30 22 C -1.465741 6.783206 4.968526 0
M  V30 23 C -0.884990 4.641863 3.917909 0
M  V30 24 C -0.045863 1.823934 1.684775 0
M  V30 25 C -0.917028 1.727159 0.611184 0
M  V30 26 N -0.595661 0.950264 -0.462057 0
M  V30 27 C 0.939215 -6.381401 -1.845805 0
M  V30 28 H 3.459303 -8.521802 -1.254624 0
M  V30 29 H 1.832489 -8.809854 -0.586276 0
M  V30 30 H 3.105172 -7.964752 0.392464 0
M  V30 31 H 0.636553 -4.532497 -0.755739 0
M  V30 32 H 0.581153 -4.568050 -3.820456 0
M  V30 33 H -0.732489 -4.224239 -2.644261 0
M  V30 34 H 1.274450 -2.334201 -3.557605 0
M  V30 35 H 1.402891 -0.141434 -2.456159 0
M  V30 36 H 2.397823 -0.194476 0.555881 0
M  V30 37 H 2.707389 1.012053 3.056764 0
M  V30 38 H -2.825551 2.101358 2.802816 0
M  V30 39 H -4.577300 3.649629 3.628999 0
M  V30 40 H -0.710490 7.218920 4.278273 0
M  V30 41 H -0.942815 6.649220 5.947571 0
M  V30 42 H -2.314596 7.455882 5.145691 0
M  V30 43 H 0.174115 4.899806 3.988057 0
M  V30 44 H -1.856507 2.264182 0.613115 0
M  V30 45 H 0.075690 -6.786624 -1.272589 0
M  V30 46 H 0.910649 -6.725961 -2.880311 0
M  V30 END ATOM
M  V30 BEGIN BOND
M  V30 1 1 1 2
M  V30 2 2 2 3
M  V30 3 1 3 4
M  V30 4 1 4 5
M  V30 5 1 5 6
M  V30 6 1 6 7
M  V30 7 1 7 8
M  V30 8 2 8 9
M  V30 9 1 8 10
M  V30 10 1 10 11
M  V30 11 2 11 12
M  V30 12 1 12 13
M  V30 13 1 13 14
M  V30 14 1 14 15
M  V30 15 2 15 16
M  V30 16 1 16 17
M  V30 17 2 17 18
M  V30 18 1 18 19
M  V30 19 2 19 20
M  V30 20 1 20 21
M  V30 21 1 21 22
M  V30 22 2 21 23
M  V30 23 1 16 24
M  V30 24 1 24 25
M  V30 25 2 25 26
M  V30 26 1 5 27
M  V30 27 1 27 2
M  V30 28 1 26 11
M  V30 29 2 24 13
M  V30 30 1 23 17
M  V30 31 1 1 28
M  V30 32 1 1 29
M  V30 33 1 1 30
M  V30 34 1 5 31
M  V30 35 1 6 32
M  V30 36 1 6 33
M  V30 37 1 7 34
M  V30 38 1 10 35
M  V30 39 1 12 36
M  V30 40 1 14 37
M  V30 41 1 18 38
M  V30 42 1 19 39
M  V30 43 1 22 40
M  V30 44 1 22 41
M  V30 45 1 22 42
M  V30 46 1 23 43
M  V30 47 1 25 44
M  V30 48 1 27 45
M  V30 49 1 27 46
M  V30 END BOND
M  V30 END CTAB
M  END
>  <Dataset>  (212) 
ChEMBL_Kinases

>  <Ligand_Instance>  (212) 
nan

>  <PDB_ID>  (212) 
nan

>  <Standardized_SMILES>  (212) 
CC1=NOC(CNC(=O)Nc2cc3[nH]nc(-c4ccnc(C)c4)c3cn2)C1

>  <Name>  (212) 
nan

>  <Pocket>  (212) 
nan

>  <ATP_Site>  (212) 
nan

>  <Peripheral>  (212) 
nan

>  <Num_H_Atoms_ProtBoundConf>  (212) 
nan

>  <Num_Resolved_Atoms>  (212) 
nan

>  <Num_Not_Resolved_Atoms>  (212) 
nan

$$$$
CHEMBL3654817
     RDKit          3D

  0  0  0  0  0  0  0  0  0  0999 V3000
M  V30 BEGIN CTAB
M  V30 COUNTS 42 44 0 0 0
M  V30 BEGIN ATOM
M  V30 1 C 1.085731 -6.223991 2.078262 0
M  V30 2 C 1.225769 -5.904864 0.629151 0
M  V30 3 C 1.594342 -4.647589 0.191305 0
M  V30 4 C 1.738727 -4.297856 -1.135480 0
M  V30 5 C 2.132750 -2.946562 -1.545073 0
M  V30 6 N 3.054290 -2.622129 -2.481932 0
M  V30 7 N 3.156393 -1.294032 -2.595340 0
M  V30 8 C 2.300292 -0.694162 -1.731709 0
M  V30 9 C 2.005349 0.625355 -1.442448 0
M  V30 10 C 1.051848 0.874891 -0.477453 0
M  V30 11 N 0.719669 2.219389 -0.150627 0
M  V30 12 C -0.242279 2.555243 0.822198 0
M  V30 13 O -0.778619 1.569606 1.373276 0
M  V30 14 N -0.616899 3.854952 1.192413 0
M  V30 15 C -1.582591 4.258932 2.174675 0
M  V30 16 C -1.303772 3.814377 3.571902 0
M  V30 17 F -1.239461 2.448137 3.730157 0
M  V30 18 F -0.186257 4.438730 4.104424 0
M  V30 19 C -2.487484 4.257114 4.441736 0
M  V30 20 O -2.312071 3.884794 5.757008 0
M  V30 21 N 0.432594 -0.131661 0.157955 0
M  V30 22 C 0.710298 -1.434790 -0.113946 0
M  V30 23 C 1.660611 -1.727856 -1.075385 0
M  V30 24 C 1.490422 -5.296772 -2.069462 0
M  V30 25 C 1.121747 -6.550777 -1.602254 0
M  V30 26 N 0.989803 -6.858596 -0.294477 0
M  V30 27 H 0.359746 -7.058064 2.187737 0
M  V30 28 H 2.062966 -6.493790 2.534767 0
M  V30 29 H 0.679796 -5.319109 2.612800 0
M  V30 30 H 1.767959 -3.933521 0.970749 0
M  V30 31 H 3.797769 -0.783050 -3.249500 0
M  V30 32 H 2.523007 1.415495 -1.973233 0
M  V30 33 H 1.198865 3.014298 -0.642362 0
M  V30 34 H -0.070556 4.575579 0.627621 0
M  V30 35 H -1.583283 5.376401 2.195021 0
M  V30 36 H -2.620237 3.963089 1.884231 0
M  V30 37 H -2.679411 5.332511 4.368630 0
M  V30 38 H -3.360970 3.670319 4.056494 0
M  V30 39 H -2.615777 2.948050 5.907365 0
M  V30 40 H 0.184116 -2.211400 0.425379 0
M  V30 41 H 1.583443 -5.095156 -3.115967 0
M  V30 42 H 0.916254 -7.364081 -2.266893 0
M  V30 END ATOM
M  V30 BEGIN BOND
M  V30 1 1 1 2
M  V30 2 2 2 3
M  V30 3 1 3 4
M  V30 4 1 4 5
M  V30 5 2 5 6
M  V30 6 1 6 7
M  V30 7 1 7 8
M  V30 8 2 8 9
M  V30 9 1 9 10
M  V30 10 1 10 11
M  V30 11 1 11 12
M  V30 12 2 12 13
M  V30 13 1 12 14
M  V30 14 1 14 15
M  V30 15 1 15 16
M  V30 16 1 16 17
M  V30 17 1 16 18
M  V30 18 1 16 19
M  V30 19 1 19 20
M  V30 20 2 10 21
M  V30 21 1 21 22
M  V30 22 2 22 23
M  V30 23 2 4 24
M  V30 24 1 24 25
M  V30 25 2 25 26
M  V30 26 1 26 2
M  V30 27 1 23 5
M  V30 28 1 23 8
M  V30 29 1 1 27
M  V30 30 1 1 28
M  V30 31 1 1 29
M  V30 32 1 3 30
M  V30 33 1 7 31
M  V30 34 1 9 32
M  V30 35 1 11 33
M  V30 36 1 14 34
M  V30 37 1 15 35
M  V30 38 1 15 36
M  V30 39 1 19 37
M  V30 40 1 19 38
M  V30 41 1 20 39
M  V30 42 1 22 40
M  V30 43 1 24 41
M  V30 44 1 25 42
M  V30 END BOND
M  V30 END CTAB
M  END
>  <Dataset>  (213) 
ChEMBL_Kinases

>  <Ligand_Instance>  (213) 
nan

>  <PDB_ID>  (213) 
nan

>  <Standardized_SMILES>  (213) 
Cc1cc(-c2n[nH]c3cc(NC(=O)NCC(F)(F)CO)ncc23)ccn1

>  <Name>  (213) 
nan

>  <Pocket>  (213) 
nan

>  <ATP_Site>  (213) 
nan

>  <Peripheral>  (213) 
nan

>  <Num_H_Atoms_ProtBoundConf>  (213) 
nan

>  <Num_Resolved_Atoms>  (213) 
nan

>  <Num_Not_Resolved_Atoms>  (213) 
nan

$$$$
CHEMBL3654816
     RDKit          3D

  0  0  0  0  0  0  0  0  0  0999 V3000
M  V30 BEGIN CTAB
M  V30 COUNTS 42 44 0 0 0
M  V30 BEGIN ATOM
M  V30 1 C 2.010970 -5.806373 2.986951 0
M  V30 2 C 1.866785 -5.688198 1.519893 0
M  V30 3 C 2.083567 -4.478258 0.888182 0
M  V30 4 C 1.961508 -4.320856 -0.470954 0
M  V30 5 C 2.189795 -3.045471 -1.137572 0
M  V30 6 N 2.898420 -2.844111 -2.267809 0
M  V30 7 N 2.894883 -1.555979 -2.584440 0
M  V30 8 C 2.177266 -0.847229 -1.668028 0
M  V30 9 C 1.857393 0.487514 -1.514285 0
M  V30 10 C 1.089217 0.805850 -0.423278 0
M  V30 11 N 0.738682 2.171786 -0.230564 0
M  V30 12 C -0.040846 2.572880 0.856740 0
M  V30 13 O -0.389942 1.666141 1.615258 0
M  V30 14 N -0.469478 3.867564 1.186000 0
M  V30 15 C -1.232383 4.541607 2.153132 0
M  V30 16 C -2.660919 4.292076 2.352569 0
M  V30 17 O -3.459903 4.504098 1.230760 0
M  V30 18 C -3.016737 3.070208 3.143228 0
M  V30 19 F -2.463530 3.118985 4.431588 0
M  V30 20 F -4.404536 3.056700 3.416002 0
M  V30 21 N 0.666935 -0.123432 0.452547 0
M  V30 22 C 0.966562 -1.433540 0.323503 0
M  V30 23 C 1.738772 -1.796036 -0.762600 0
M  V30 24 C 1.606363 -5.405454 -1.271464 0
M  V30 25 C 1.408129 -6.583937 -0.546458 0
M  V30 26 N 1.519167 -6.769117 0.775869 0
M  V30 27 H 1.091777 -6.298881 3.390725 0
M  V30 28 H 2.901430 -6.420865 3.231084 0
M  V30 29 H 2.101395 -4.781856 3.420224 0
M  V30 30 H 2.356441 -3.652469 1.518016 0
M  V30 31 H 3.351923 -1.092410 -3.396824 0
M  V30 32 H 2.226386 1.173002 -2.247962 0
M  V30 33 H 1.050150 2.914926 -0.890831 0
M  V30 34 H -0.066708 4.524546 0.430668 0
M  V30 35 H -0.748607 4.352793 3.184205 0
M  V30 36 H -1.048609 5.654146 2.058068 0
M  V30 37 H -3.021576 5.153444 3.038606 0
M  V30 38 H -4.347089 4.090207 1.471312 0
M  V30 39 H -2.714397 2.106063 2.717569 0
M  V30 40 H 0.583418 -2.097862 1.073358 0
M  V30 41 H 1.484100 -5.396612 -2.328561 0
M  V30 42 H 1.128721 -7.478136 -1.092714 0
M  V30 END ATOM
M  V30 BEGIN BOND
M  V30 1 1 1 2
M  V30 2 2 2 3
M  V30 3 1 3 4
M  V30 4 1 4 5
M  V30 5 2 5 6
M  V30 6 1 6 7
M  V30 7 1 7 8
M  V30 8 2 8 9
M  V30 9 1 9 10
M  V30 10 1 10 11
M  V30 11 1 11 12
M  V30 12 2 12 13
M  V30 13 1 12 14
M  V30 14 1 14 15
M  V30 15 1 15 16
M  V30 16 1 16 17
M  V30 17 1 16 18
M  V30 18 1 18 19
M  V30 19 1 18 20
M  V30 20 2 10 21
M  V30 21 1 21 22
M  V30 22 2 22 23
M  V30 23 2 4 24
M  V30 24 1 24 25
M  V30 25 2 25 26
M  V30 26 1 26 2
M  V30 27 1 23 5
M  V30 28 1 23 8
M  V30 29 1 1 27
M  V30 30 1 1 28
M  V30 31 1 1 29
M  V30 32 1 3 30
M  V30 33 1 7 31
M  V30 34 1 9 32
M  V30 35 1 11 33
M  V30 36 1 14 34
M  V30 37 1 15 35
M  V30 38 1 15 36
M  V30 39 1 16 37
M  V30 40 1 17 38
M  V30 41 1 18 39
M  V30 42 1 22 40
M  V30 43 1 24 41
M  V30 44 1 25 42
M  V30 END BOND
M  V30 END CTAB
M  END
>  <Dataset>  (214) 
ChEMBL_Kinases

>  <Ligand_Instance>  (214) 
nan

>  <PDB_ID>  (214) 
nan

>  <Standardized_SMILES>  (214) 
Cc1cc(-c2n[nH]c3cc(NC(=O)NCC(O)C(F)F)ncc23)ccn1

>  <Name>  (214) 
nan

>  <Pocket>  (214) 
nan

>  <ATP_Site>  (214) 
nan

>  <Peripheral>  (214) 
nan

>  <Num_H_Atoms_ProtBoundConf>  (214) 
nan

>  <Num_Resolved_Atoms>  (214) 
nan

>  <Num_Not_Resolved_Atoms>  (214) 
nan

$$$$
CHEMBL3654815
     RDKit          3D

  0  0  0  0  0  0  0  0  0  0999 V3000
M  V30 BEGIN CTAB
M  V30 COUNTS 44 47 0 0 0
M  V30 BEGIN ATOM
M  V30 1 C -0.745737 -4.159762 6.219332 0
M  V30 2 C 0.168129 -4.637671 5.175206 0
M  V30 3 C 0.682853 -3.816366 4.198616 0
M  V30 4 C 1.541380 -4.316251 3.235887 0
M  V30 5 C 2.135023 -3.513922 2.161238 0
M  V30 6 N 3.419140 -3.533614 1.760433 0
M  V30 7 N 3.636470 -2.691422 0.765899 0
M  V30 8 C 2.423039 -2.111272 0.529184 0
M  V30 9 C 2.157265 -1.160030 -0.425968 0
M  V30 10 C 0.842697 -0.720208 -0.475631 0
M  V30 11 N 0.303087 0.267271 -1.380385 0
M  V30 12 C 0.264054 1.660290 -1.096383 0
M  V30 13 O 0.717460 2.054954 -0.012374 0
M  V30 14 N -0.299997 2.462962 -2.102853 0
M  V30 15 C -0.419960 3.892112 -1.984059 0 CFG=1
M  V30 16 C 0.172767 4.668417 -3.112303 0
M  V30 17 O -0.556301 5.814523 -3.301740 0
M  V30 18 C -1.607406 5.823973 -2.400473 0
M  V30 19 C -1.864243 4.356418 -2.042608 0 CFG=2
M  V30 20 O -2.531885 4.238358 -0.847761 0
M  V30 21 N -0.118458 -1.195105 0.361008 0
M  V30 22 C 0.163310 -2.137608 1.301329 0
M  V30 23 C 1.463678 -2.597919 1.378116 0
M  V30 24 C 1.910175 -5.665982 3.226704 0
M  V30 25 C 1.360006 -6.435146 4.231814 0
M  V30 26 N 0.528635 -5.942093 5.160894 0
M  V30 27 H -1.654904 -4.802283 6.262917 0
M  V30 28 H -0.263422 -4.203157 7.219974 0
M  V30 29 H -1.094543 -3.139414 6.050451 0
M  V30 30 H 0.433376 -2.784652 4.162536 0
M  V30 31 H 4.550326 -2.530198 0.288606 0
M  V30 32 H 2.814567 -0.710453 -1.134909 0
M  V30 33 H -0.023009 -0.248571 -2.221354 0
M  V30 34 H -0.673099 2.074323 -3.011814 0
M  V30 35 H -0.023689 4.260146 -1.030171 0
M  V30 36 H 1.266684 4.834403 -3.037173 0
M  V30 37 H 0.030251 4.047720 -4.044679 0
M  V30 38 H -1.231171 6.292247 -1.447905 0
M  V30 39 H -2.507716 6.335282 -2.746796 0
M  V30 40 H -2.437629 3.950578 -2.880271 0
M  V30 41 H -3.176460 3.492119 -0.802927 0
M  V30 42 H -0.567671 -2.541664 1.984606 0
M  V30 43 H 2.578035 -6.108775 2.496994 0
M  V30 44 H 1.632779 -7.493378 4.246378 0
M  V30 END ATOM
M  V30 BEGIN BOND
M  V30 1 1 1 2
M  V30 2 2 2 3
M  V30 3 1 3 4
M  V30 4 1 4 5
M  V30 5 2 5 6
M  V30 6 1 6 7
M  V30 7 1 7 8
M  V30 8 2 8 9
M  V30 9 1 9 10
M  V30 10 1 10 11
M  V30 11 1 11 12
M  V30 12 2 12 13
M  V30 13 1 12 14
M  V30 14 1 14 15
M  V30 15 1 15 16
M  V30 16 1 16 17
M  V30 17 1 17 18
M  V30 18 1 18 19
M  V30 19 1 19 20
M  V30 20 2 10 21
M  V30 21 1 21 22
M  V30 22 2 22 23
M  V30 23 2 4 24
M  V30 24 1 24 25
M  V30 25 2 25 26
M  V30 26 1 26 2
M  V30 27 1 23 5
M  V30 28 1 23 8
M  V30 29 1 19 15
M  V30 30 1 1 27
M  V30 31 1 1 28
M  V30 32 1 1 29
M  V30 33 1 3 30
M  V30 34 1 7 31
M  V30 35 1 9 32
M  V30 36 1 11 33
M  V30 37 1 14 34
M  V30 38 1 15 35 CFG=1
M  V30 39 1 16 36
M  V30 40 1 16 37
M  V30 41 1 18 38
M  V30 42 1 18 39
M  V30 43 1 19 40 CFG=3
M  V30 44 1 20 41
M  V30 45 1 22 42
M  V30 46 1 24 43
M  V30 47 1 25 44
M  V30 END BOND
M  V30 END CTAB
M  END
>  <Dataset>  (215) 
ChEMBL_Kinases

>  <Ligand_Instance>  (215) 
nan

>  <PDB_ID>  (215) 
nan

>  <Standardized_SMILES>  (215) 
Cc1cc(-c2n[nH]c3cc(NC(=O)N[C@H]4COC[C@@H]4O)ncc23)ccn1

>  <Name>  (215) 
nan

>  <Pocket>  (215) 
nan

>  <ATP_Site>  (215) 
nan

>  <Peripheral>  (215) 
nan

>  <Num_H_Atoms_ProtBoundConf>  (215) 
nan

>  <Num_Resolved_Atoms>  (215) 
nan

>  <Num_Not_Resolved_Atoms>  (215) 
nan

$$$$
CHEMBL3654814
     RDKit          3D

  0  0  0  0  0  0  0  0  0  0999 V3000
M  V30 BEGIN CTAB
M  V30 COUNTS 45 47 0 0 0
M  V30 BEGIN ATOM
M  V30 1 C -2.944108 -5.850575 1.694832 0
M  V30 2 C -3.390042 -5.152354 0.465970 0
M  V30 3 C -2.713546 -4.057757 -0.018717 0
M  V30 4 C -3.074202 -3.355671 -1.162416 0
M  V30 5 C -2.325929 -2.197876 -1.640791 0
M  V30 6 N -1.980327 -1.999407 -2.945392 0
M  V30 7 N -1.303522 -0.845745 -3.035141 0
M  V30 8 C -1.229633 -0.331574 -1.793929 0
M  V30 9 C -0.633135 0.851009 -1.338710 0
M  V30 10 C -0.700165 1.154909 0.017646 0
M  V30 11 N -0.082566 2.367193 0.449952 0
M  V30 12 C 1.297907 2.193868 0.822739 0
M  V30 13 O 1.902530 1.090769 0.774567 0
M  V30 14 N 2.037065 3.318658 1.272985 0
M  V30 15 C 3.444629 3.221836 1.669565 0
M  V30 16 C 3.511380 2.265295 2.792540 0
M  V30 17 O 2.517936 1.652363 3.302817 0
M  V30 18 N 4.814452 2.039797 3.317303 0
M  V30 19 C 6.103487 2.587027 2.942990 0
M  V30 20 C 4.998465 1.107108 4.436241 0
M  V30 21 N -1.332182 0.311438 0.855002 0
M  V30 22 C -1.917287 -0.830321 0.467254 0
M  V30 23 C -1.863249 -1.150933 -0.869872 0
M  V30 24 C -4.204999 -3.828999 -1.831443 0
M  V30 25 C -4.877049 -4.939266 -1.325009 0
M  V30 26 N -4.476838 -5.577994 -0.208947 0
M  V30 27 H -1.838684 -5.891607 1.763615 0
M  V30 28 H -3.300132 -6.905233 1.688122 0
M  V30 29 H -3.330096 -5.388452 2.621003 0
M  V30 30 H -1.853655 -3.752837 0.550018 0
M  V30 31 H -0.885057 -0.376478 -3.877048 0
M  V30 32 H -0.136986 1.509527 -2.007769 0
M  V30 33 H -0.561243 3.284128 0.497068 0
M  V30 34 H 1.518959 4.246913 1.310748 0
M  V30 35 H 4.078012 2.923576 0.811422 0
M  V30 36 H 3.736034 4.212056 2.078236 0
M  V30 37 H 6.883387 1.791986 2.827320 0
M  V30 38 H 6.510888 3.303841 3.661045 0
M  V30 39 H 6.010384 3.088959 1.947537 0
M  V30 40 H 4.062532 0.585355 4.687664 0
M  V30 41 H 5.749905 0.335473 4.159586 0
M  V30 42 H 5.292260 1.683754 5.353391 0
M  V30 43 H -2.422163 -1.499431 1.151204 0
M  V30 44 H -4.511733 -3.304013 -2.725474 0
M  V30 45 H -5.752853 -5.263318 -1.889575 0
M  V30 END ATOM
M  V30 BEGIN BOND
M  V30 1 1 1 2
M  V30 2 2 2 3
M  V30 3 1 3 4
M  V30 4 1 4 5
M  V30 5 2 5 6
M  V30 6 1 6 7
M  V30 7 1 7 8
M  V30 8 2 8 9
M  V30 9 1 9 10
M  V30 10 1 10 11
M  V30 11 1 11 12
M  V30 12 2 12 13
M  V30 13 1 12 14
M  V30 14 1 14 15
M  V30 15 1 15 16
M  V30 16 2 16 17
M  V30 17 1 16 18
M  V30 18 1 18 19
M  V30 19 1 18 20
M  V30 20 2 10 21
M  V30 21 1 21 22
M  V30 22 2 22 23
M  V30 23 2 4 24
M  V30 24 1 24 25
M  V30 25 2 25 26
M  V30 26 1 26 2
M  V30 27 1 23 5
M  V30 28 1 23 8
M  V30 29 1 1 27
M  V30 30 1 1 28
M  V30 31 1 1 29
M  V30 32 1 3 30
M  V30 33 1 7 31
M  V30 34 1 9 32
M  V30 35 1 11 33
M  V30 36 1 14 34
M  V30 37 1 15 35
M  V30 38 1 15 36
M  V30 39 1 19 37
M  V30 40 1 19 38
M  V30 41 1 19 39
M  V30 42 1 20 40
M  V30 43 1 20 41
M  V30 44 1 20 42
M  V30 45 1 22 43
M  V30 46 1 24 44
M  V30 47 1 25 45
M  V30 END BOND
M  V30 END CTAB
M  END
>  <Dataset>  (216) 
ChEMBL_Kinases

>  <Ligand_Instance>  (216) 
nan

>  <PDB_ID>  (216) 
nan

>  <Standardized_SMILES>  (216) 
Cc1cc(-c2n[nH]c3cc(NC(=O)NCC(=O)N(C)C)ncc23)ccn1

>  <Name>  (216) 
nan

>  <Pocket>  (216) 
nan

>  <ATP_Site>  (216) 
nan

>  <Peripheral>  (216) 
nan

>  <Num_H_Atoms_ProtBoundConf>  (216) 
nan

>  <Num_Resolved_Atoms>  (216) 
nan

>  <Num_Not_Resolved_Atoms>  (216) 
nan

$$$$
CHEMBL3654813
     RDKit          3D

  0  0  0  0  0  0  0  0  0  0999 V3000
M  V30 BEGIN CTAB
M  V30 COUNTS 42 44 0 0 0
M  V30 BEGIN ATOM
M  V30 1 C -0.874794 -6.987839 -0.050834 0
M  V30 2 N -1.139797 -6.505326 -1.408730 0
M  V30 3 C -0.352754 -5.373761 -1.724792 0
M  V30 4 O 0.441089 -4.953840 -0.820218 0
M  V30 5 C -0.475856 -4.727840 -3.070824 0
M  V30 6 N 0.427168 -3.597404 -3.148680 0
M  V30 7 C 0.244407 -2.546676 -2.209513 0
M  V30 8 O -0.684891 -2.631192 -1.350906 0
M  V30 9 N 1.115119 -1.397482 -2.241750 0
M  V30 10 C 0.846394 -0.402293 -1.257476 0
M  V30 11 C -0.002739 0.680374 -1.387616 0
M  V30 12 C -0.111006 1.522578 -0.297446 0
M  V30 13 N -0.853404 2.635102 -0.150490 0
M  V30 14 N -0.611893 3.077324 1.065529 0
M  V30 15 C 0.264000 2.297484 1.729436 0
M  V30 16 C 0.755476 2.490773 3.093256 0
M  V30 17 C 0.836930 1.446811 3.993049 0
M  V30 18 C 1.302221 1.602382 5.301043 0
M  V30 19 N 1.688138 2.810357 5.710250 0
M  V30 20 C 1.622148 3.863447 4.851463 0
M  V30 21 C 2.074589 5.181951 5.392381 0
M  V30 22 C 1.163676 3.754971 3.534568 0
M  V30 23 C 0.602373 1.279737 0.859828 0
M  V30 24 C 1.439496 0.185934 0.946540 0
M  V30 25 N 1.546332 -0.638978 -0.119537 0
M  V30 26 H -1.544989 -7.820334 0.242268 0
M  V30 27 H 0.160610 -7.333985 0.041133 0
M  V30 28 H -0.998535 -6.161138 0.679969 0
M  V30 29 H -1.795545 -6.870782 -2.124412 0
M  V30 30 H -1.531550 -4.454812 -3.192157 0
M  V30 31 H -0.192111 -5.488679 -3.852918 0
M  V30 32 H 1.186713 -3.544288 -3.862024 0
M  V30 33 H 1.842759 -1.396403 -2.961036 0
M  V30 34 H -0.502276 0.772686 -2.320172 0
M  V30 35 H -1.486098 3.045505 -0.870376 0
M  V30 36 H 0.536964 0.444764 3.714761 0
M  V30 37 H 1.365572 0.786692 6.003202 0
M  V30 38 H 3.130851 5.385351 5.120824 0
M  V30 39 H 1.905955 5.213887 6.476734 0
M  V30 40 H 1.407939 5.954222 4.955567 0
M  V30 41 H 1.123670 4.601284 2.883768 0
M  V30 42 H 1.992542 0.006892 1.858053 0
M  V30 END ATOM
M  V30 BEGIN BOND
M  V30 1 1 1 2
M  V30 2 1 2 3
M  V30 3 2 3 4
M  V30 4 1 3 5
M  V30 5 1 5 6
M  V30 6 1 6 7
M  V30 7 2 7 8
M  V30 8 1 7 9
M  V30 9 1 9 10
M  V30 10 2 10 11
M  V30 11 1 11 12
M  V30 12 1 12 13
M  V30 13 1 13 14
M  V30 14 2 14 15
M  V30 15 1 15 16
M  V30 16 2 16 17
M  V30 17 1 17 18
M  V30 18 2 18 19
M  V30 19 1 19 20
M  V30 20 1 20 21
M  V30 21 2 20 22
M  V30 22 1 15 23
M  V30 23 1 23 24
M  V30 24 2 24 25
M  V30 25 1 25 10
M  V30 26 2 23 12
M  V30 27 1 22 16
M  V30 28 1 1 26
M  V30 29 1 1 27
M  V30 30 1 1 28
M  V30 31 1 2 29
M  V30 32 1 5 30
M  V30 33 1 5 31
M  V30 34 1 6 32
M  V30 35 1 9 33
M  V30 36 1 11 34
M  V30 37 1 13 35
M  V30 38 1 17 36
M  V30 39 1 18 37
M  V30 40 1 21 38
M  V30 41 1 21 39
M  V30 42 1 21 40
M  V30 43 1 22 41
M  V30 44 1 24 42
M  V30 END BOND
M  V30 END CTAB
M  END
>  <Dataset>  (217) 
ChEMBL_Kinases

>  <Ligand_Instance>  (217) 
nan

>  <PDB_ID>  (217) 
nan

>  <Standardized_SMILES>  (217) 
CNC(=O)CNC(=O)Nc1cc2[nH]nc(-c3ccnc(C)c3)c2cn1

>  <Name>  (217) 
nan

>  <Pocket>  (217) 
nan

>  <ATP_Site>  (217) 
nan

>  <Peripheral>  (217) 
nan

>  <Num_H_Atoms_ProtBoundConf>  (217) 
nan

>  <Num_Resolved_Atoms>  (217) 
nan

>  <Num_Not_Resolved_Atoms>  (217) 
nan

$$$$
CHEMBL3654812
     RDKit          3D

  0  0  0  0  0  0  0  0  0  0999 V3000
M  V30 BEGIN CTAB
M  V30 COUNTS 57 61 0 0 0
M  V30 BEGIN ATOM
M  V30 1 C 9.890317 -1.816052 1.860035 0
M  V30 2 C 8.514424 -1.386889 2.224330 0
M  V30 3 C 7.620683 -0.890694 1.309239 0
M  V30 4 C 6.330714 -0.471840 1.557319 0
M  V30 5 C 5.429475 0.054482 0.547924 0
M  V30 6 N 5.607034 0.989727 -0.434004 0
M  V30 7 N 4.471511 1.131681 -1.127562 0
M  V30 8 C 3.542629 0.305692 -0.622493 0
M  V30 9 C 2.249755 0.161239 -1.069162 0
M  V30 10 C 1.462791 -0.750776 -0.405410 0
M  V30 11 N 0.114670 -1.199908 -0.550626 0
M  V30 12 C -1.125540 -0.751614 0.003130 0
M  V30 13 O -0.963128 0.233904 0.715375 0
M  V30 14 N -2.253213 -1.501824 -0.360345 0
M  V30 15 C -3.532246 -1.131149 0.153981 0 CFG=2
M  V30 16 C -4.258089 -2.043248 1.019722 0
M  V30 17 N -5.570523 -2.244924 0.441130 0
M  V30 18 C -6.065118 -3.593705 0.762749 0
M  V30 19 C -5.274791 -2.205269 -0.978753 0
M  V30 20 C -4.445386 -0.904946 -1.027629 0 CFG=1
M  V30 21 C -5.382949 0.207301 -0.865624 0
M  V30 22 C -5.724312 0.842627 0.303363 0
M  V30 23 C -6.626364 1.906382 0.396065 0
M  V30 24 C -7.214519 2.347706 -0.767019 0
M  V30 25 C -6.884927 1.723436 -1.948894 0
M  V30 26 C -5.994217 0.675297 -2.034053 0
M  V30 27 F -5.777316 0.168526 -3.293530 0
M  V30 28 N 2.010115 -1.441548 0.639223 0
M  V30 29 C 3.275356 -1.282413 1.056764 0
M  V30 30 C 4.123147 -0.368869 0.417845 0
M  V30 31 C 5.929419 -0.582485 2.900052 0
M  V30 32 C 6.815054 -1.078809 3.829839 0
M  V30 33 N 8.054317 -1.459398 3.478643 0
M  V30 34 H 10.426091 -2.054336 2.815797 0
M  V30 35 H 10.410892 -0.917136 1.455915 0
M  V30 36 H 9.909198 -2.670837 1.166550 0
M  V30 37 H 7.905874 -0.797215 0.265616 0
M  V30 38 H 4.384017 1.808888 -1.939869 0
M  V30 39 H 1.721328 0.634145 -1.856273 0
M  V30 40 H 0.189865 -2.028445 -1.192367 0
M  V30 41 H -2.190570 -2.327849 -1.000361 0
M  V30 42 H -3.405781 -0.160598 0.667928 0
M  V30 43 H -4.442957 -1.605860 2.022890 0
M  V30 44 H -3.855336 -3.046151 1.203090 0
M  V30 45 H -5.671214 -4.356893 0.073204 0
M  V30 46 H -7.148208 -3.612911 0.923646 0
M  V30 47 H -5.595674 -3.830154 1.755346 0
M  V30 48 H -4.672997 -3.060715 -1.327191 0
M  V30 49 H -6.190216 -2.060577 -1.590370 0
M  V30 50 H -3.902852 -0.836041 -1.991796 0
M  V30 51 H -5.244625 0.481553 1.208635 0
M  V30 52 H -6.790560 2.296353 1.407774 0
M  V30 53 H -7.911657 3.177284 -0.656001 0
M  V30 54 H -7.392824 2.128242 -2.834716 0
M  V30 55 H 3.695607 -1.851891 1.901426 0
M  V30 56 H 4.936194 -0.281783 3.200053 0
M  V30 57 H 6.549645 -1.182463 4.880544 0
M  V30 END ATOM
M  V30 BEGIN BOND
M  V30 1 1 1 2
M  V30 2 2 2 3
M  V30 3 1 3 4
M  V30 4 1 4 5
M  V30 5 2 5 6
M  V30 6 1 6 7
M  V30 7 1 7 8
M  V30 8 2 8 9
M  V30 9 1 9 10
M  V30 10 1 10 11
M  V30 11 1 11 12
M  V30 12 2 12 13
M  V30 13 1 12 14
M  V30 14 1 14 15
M  V30 15 1 15 16
M  V30 16 1 16 17
M  V30 17 1 17 18
M  V30 18 1 17 19
M  V30 19 1 19 20
M  V30 20 1 20 21
M  V30 21 2 21 22
M  V30 22 1 22 23
M  V30 23 2 23 24
M  V30 24 1 24 25
M  V30 25 2 25 26
M  V30 26 1 26 27
M  V30 27 2 10 28
M  V30 28 1 28 29
M  V30 29 2 29 30
M  V30 30 2 4 31
M  V30 31 1 31 32
M  V30 32 2 32 33
M  V30 33 1 33 2
M  V30 34 1 30 5
M  V30 35 1 30 8
M  V30 36 1 20 15
M  V30 37 1 26 21
M  V30 38 1 1 34
M  V30 39 1 1 35
M  V30 40 1 1 36
M  V30 41 1 3 37
M  V30 42 1 7 38
M  V30 43 1 9 39
M  V30 44 1 11 40
M  V30 45 1 14 41
M  V30 46 1 15 42 CFG=1
M  V30 47 1 16 43
M  V30 48 1 16 44
M  V30 49 1 18 45
M  V30 50 1 18 46
M  V30 51 1 18 47
M  V30 52 1 19 48
M  V30 53 1 19 49
M  V30 54 1 20 50 CFG=3
M  V30 55 1 22 51
M  V30 56 1 23 52
M  V30 57 1 24 53
M  V30 58 1 25 54
M  V30 59 1 29 55
M  V30 60 1 31 56
M  V30 61 1 32 57
M  V30 END BOND
M  V30 END CTAB
M  END
>  <Dataset>  (218) 
ChEMBL_Kinases

>  <Ligand_Instance>  (218) 
nan

>  <PDB_ID>  (218) 
nan

>  <Standardized_SMILES>  (218) 
Cc1cc(-c2n[nH]c3cc(NC(=O)N[C@@H]4CN(C)C[C@H]4c4ccccc4F)ncc23)ccn1

>  <Name>  (218) 
nan

>  <Pocket>  (218) 
nan

>  <ATP_Site>  (218) 
nan

>  <Peripheral>  (218) 
nan

>  <Num_H_Atoms_ProtBoundConf>  (218) 
nan

>  <Num_Resolved_Atoms>  (218) 
nan

>  <Num_Not_Resolved_Atoms>  (218) 
nan

$$$$
CHEMBL3654794
     RDKit          3D

  0  0  0  0  0  0  0  0  0  0999 V3000
M  V30 BEGIN CTAB
M  V30 COUNTS 47 50 0 0 0
M  V30 BEGIN ATOM
M  V30 1 C -4.251163 -4.606917 0.401175 0
M  V30 2 O -3.160496 -3.995205 1.007264 0
M  V30 3 C -2.021775 -4.026656 0.235453 0
M  V30 4 C -0.902126 -3.331527 0.998458 0 CFG=1
M  V30 5 N -1.254183 -1.962649 1.277578 0
M  V30 6 C -0.491838 -0.828737 0.888273 0
M  V30 7 O 0.568307 -1.118639 0.248892 0
M  V30 8 N -0.905456 0.493663 1.201216 0
M  V30 9 C -0.055032 1.545955 0.755803 0
M  V30 10 C 0.954477 1.981028 1.590755 0
M  V30 11 C 1.779811 2.999735 1.162220 0
M  V30 12 N 2.829267 3.722263 1.592705 0
M  V30 13 N 3.194890 4.616010 0.668550 0
M  V30 14 C 2.379757 4.507105 -0.423540 0
M  V30 15 C 2.704543 5.429521 -1.532647 0
M  V30 16 C 4.032724 5.045428 -2.257028 0
M  V30 17 C 2.661266 5.090971 -2.948151 0
M  V30 18 F 2.470060 6.164066 -3.833330 0
M  V30 19 F 2.338080 3.891506 -3.495596 0
M  V30 20 C 1.508706 3.496315 -0.090861 0
M  V30 21 C 0.507030 3.073820 -0.933355 0
M  V30 22 N -0.281525 2.069557 -0.472178 0
M  V30 23 C -0.692421 -4.076166 2.287116 0
M  V30 24 C 0.040022 -3.531067 3.323563 0
M  V30 25 C 0.232960 -4.222280 4.515980 0
M  V30 26 C -0.318678 -5.484168 4.672999 0
M  V30 27 F -0.120783 -6.146213 5.844375 0
M  V30 28 C -1.058510 -6.054035 3.647317 0
M  V30 29 C -1.221663 -5.329296 2.484537 0
M  V30 30 H -5.106600 -4.528036 1.096757 0
M  V30 31 H -4.491176 -4.143751 -0.578564 0
M  V30 32 H -4.014504 -5.682158 0.263283 0
M  V30 33 H -1.721490 -5.004514 -0.143753 0
M  V30 34 H -2.242433 -3.404888 -0.674875 0
M  V30 35 H 0.042424 -3.402993 0.438537 0
M  V30 36 H -2.143748 -1.795093 1.810100 0
M  V30 37 H -1.792509 0.663307 1.732371 0
M  V30 38 H 1.157655 1.582400 2.573622 0
M  V30 39 H 3.257420 3.559306 2.534142 0
M  V30 40 H 2.684443 6.512170 -1.268767 0
M  V30 41 H 4.477949 4.069434 -2.010611 0
M  V30 42 H 4.713984 5.856275 -2.532762 0
M  V30 43 H 0.299885 3.474965 -1.903692 0
M  V30 44 H 0.467010 -2.535678 3.181493 0
M  V30 45 H 0.820411 -3.721920 5.277691 0
M  V30 46 H -1.481435 -7.036824 3.784601 0
M  V30 47 H -1.803450 -5.819662 1.724477 0
M  V30 END ATOM
M  V30 BEGIN BOND
M  V30 1 1 1 2
M  V30 2 1 2 3
M  V30 3 1 3 4
M  V30 4 1 4 5
M  V30 5 1 5 6
M  V30 6 2 6 7
M  V30 7 1 6 8
M  V30 8 1 8 9
M  V30 9 2 9 10
M  V30 10 1 10 11
M  V30 11 1 11 12
M  V30 12 1 12 13
M  V30 13 2 13 14
M  V30 14 1 14 15
M  V30 15 1 15 16
M  V30 16 1 16 17
M  V30 17 1 17 18
M  V30 18 1 17 19
M  V30 19 1 14 20
M  V30 20 1 20 21
M  V30 21 2 21 22
M  V30 22 1 4 23
M  V30 23 2 23 24
M  V30 24 1 24 25
M  V30 25 2 25 26
M  V30 26 1 26 27
M  V30 27 1 26 28
M  V30 28 2 28 29
M  V30 29 1 22 9
M  V30 30 1 29 23
M  V30 31 2 20 11
M  V30 32 1 17 15
M  V30 33 1 1 30
M  V30 34 1 1 31
M  V30 35 1 1 32
M  V30 36 1 3 33
M  V30 37 1 3 34
M  V30 38 1 4 35 CFG=3
M  V30 39 1 5 36
M  V30 40 1 8 37
M  V30 41 1 10 38
M  V30 42 1 12 39
M  V30 43 1 15 40
M  V30 44 1 16 41
M  V30 45 1 16 42
M  V30 46 1 21 43
M  V30 47 1 24 44
M  V30 48 1 25 45
M  V30 49 1 28 46
M  V30 50 1 29 47
M  V30 END BOND
M  V30 END CTAB
M  END
>  <Dataset>  (219) 
ChEMBL_Kinases

>  <Ligand_Instance>  (219) 
nan

>  <PDB_ID>  (219) 
nan

>  <Standardized_SMILES>  (219) 
COC[C@@H](NC(=O)Nc1cc2[nH]nc(C3CC3(F)F)c2cn1)c1ccc(F)cc1

>  <Name>  (219) 
nan

>  <Pocket>  (219) 
nan

>  <ATP_Site>  (219) 
nan

>  <Peripheral>  (219) 
nan

>  <Num_H_Atoms_ProtBoundConf>  (219) 
nan

>  <Num_Resolved_Atoms>  (219) 
nan

>  <Num_Not_Resolved_Atoms>  (219) 
nan

$$$$
CHEMBL3654795
     RDKit          3D

  0  0  0  0  0  0  0  0  0  0999 V3000
M  V30 BEGIN CTAB
M  V30 COUNTS 43 45 0 0 0
M  V30 BEGIN ATOM
M  V30 1 C -2.707638 -2.094757 3.931731 0
M  V30 2 O -1.873035 -1.959470 2.844481 0
M  V30 3 C -1.285879 -3.196346 2.520280 0
M  V30 4 C -0.390647 -2.935733 1.315874 0 CFG=1
M  V30 5 N 0.597801 -1.939194 1.744262 0
M  V30 6 C 0.553674 -0.656887 1.186370 0
M  V30 7 O -0.342484 -0.382769 0.319796 0
M  V30 8 N 1.442945 0.388846 1.511198 0
M  V30 9 C 1.315586 1.681245 0.879093 0
M  V30 10 C 1.964772 2.007443 -0.297836 0
M  V30 11 C 1.796133 3.264840 -0.846014 0
M  V30 12 N 2.285199 3.856982 -1.953054 0
M  V30 13 N 1.796054 5.098451 -2.012505 0
M  V30 14 C 0.987829 5.296658 -0.931730 0
M  V30 15 C 0.219461 6.530405 -0.569322 0
M  V30 16 F -1.137051 6.227582 -0.518897 0
M  V30 17 F 0.685055 7.148101 0.549252 0
M  V30 18 F 0.341525 7.403379 -1.658627 0
M  V30 19 C 0.967831 4.129637 -0.159368 0
M  V30 20 C 0.310183 3.829925 1.013352 0
M  V30 21 N 0.521354 2.581600 1.492245 0
M  V30 22 C 0.255110 -4.184874 0.845609 0
M  V30 23 C 1.328776 -3.967920 0.007228 0
M  V30 24 C 2.056128 -5.028575 -0.530973 0
M  V30 25 C 1.651069 -6.290543 -0.185598 0
M  V30 26 C 0.580386 -6.528827 0.650995 0
M  V30 27 C -0.145889 -5.462498 1.188219 0
M  V30 28 H -3.199006 -1.163260 4.237288 0
M  V30 29 H -3.435759 -2.898963 3.817681 0
M  V30 30 H -2.047910 -2.383186 4.800196 0
M  V30 31 H -2.108432 -3.888893 2.248786 0
M  V30 32 H -0.664508 -3.508723 3.359193 0
M  V30 33 H -1.057123 -2.465663 0.563078 0
M  V30 34 H 1.319104 -2.177549 2.448958 0
M  V30 35 H 2.191478 0.197272 2.219836 0
M  V30 36 H 2.596390 1.263097 -0.767432 0
M  V30 37 H 2.932429 3.399142 -2.628213 0
M  V30 38 H -0.327110 4.537471 1.514820 0
M  V30 39 H 1.694937 -2.982523 -0.301154 0
M  V30 40 H 2.900016 -4.900737 -1.188877 0
M  V30 41 H 2.170377 -7.148690 -0.567359 0
M  V30 42 H 0.230997 -7.523570 0.946594 0
M  V30 43 H -0.995160 -5.551307 1.849334 0
M  V30 END ATOM
M  V30 BEGIN BOND
M  V30 1 1 1 2
M  V30 2 1 2 3
M  V30 3 1 3 4
M  V30 4 1 4 5
M  V30 5 1 5 6
M  V30 6 2 6 7
M  V30 7 1 6 8
M  V30 8 1 8 9
M  V30 9 2 9 10
M  V30 10 1 10 11
M  V30 11 1 11 12
M  V30 12 1 12 13
M  V30 13 2 13 14
M  V30 14 1 14 15
M  V30 15 1 15 16
M  V30 16 1 15 17
M  V30 17 1 15 18
M  V30 18 1 14 19
M  V30 19 1 19 20
M  V30 20 2 20 21
M  V30 21 1 4 22
M  V30 22 2 22 23
M  V30 23 1 23 24
M  V30 24 2 24 25
M  V30 25 1 25 26
M  V30 26 2 26 27
M  V30 27 1 21 9
M  V30 28 1 27 22
M  V30 29 2 19 11
M  V30 30 1 1 28
M  V30 31 1 1 29
M  V30 32 1 1 30
M  V30 33 1 3 31
M  V30 34 1 3 32
M  V30 35 1 4 33 CFG=3
M  V30 36 1 5 34
M  V30 37 1 8 35
M  V30 38 1 10 36
M  V30 39 1 12 37
M  V30 40 1 20 38
M  V30 41 1 23 39
M  V30 42 1 24 40
M  V30 43 1 25 41
M  V30 44 1 26 42
M  V30 45 1 27 43
M  V30 END BOND
M  V30 END CTAB
M  END
>  <Dataset>  (220) 
ChEMBL_Kinases

>  <Ligand_Instance>  (220) 
nan

>  <PDB_ID>  (220) 
nan

>  <Standardized_SMILES>  (220) 
COC[C@@H](NC(=O)Nc1cc2[nH]nc(C(F)(F)F)c2cn1)c1ccccc1

>  <Name>  (220) 
nan

>  <Pocket>  (220) 
nan

>  <ATP_Site>  (220) 
nan

>  <Peripheral>  (220) 
nan

>  <Num_H_Atoms_ProtBoundConf>  (220) 
nan

>  <Num_Resolved_Atoms>  (220) 
nan

>  <Num_Not_Resolved_Atoms>  (220) 
nan

$$$$
CHEMBL3654796
     RDKit          3D

  0  0  0  0  0  0  0  0  0  0999 V3000
M  V30 BEGIN CTAB
M  V30 COUNTS 46 49 0 0 0
M  V30 BEGIN ATOM
M  V30 1 C -1.659710 -5.650204 3.710157 0
M  V30 2 O -2.043228 -4.773199 2.684034 0
M  V30 3 C -0.863444 -4.273367 2.140038 0
M  V30 4 C -1.126236 -3.303801 1.010215 0 CFG=1
M  V30 5 N 0.062805 -2.762489 0.417446 0
M  V30 6 C 0.347393 -1.356663 0.544333 0
M  V30 7 O -0.438146 -0.600379 1.170506 0
M  V30 8 N 1.505016 -0.728608 -0.011486 0
M  V30 9 C 1.724846 0.669053 0.152162 0
M  V30 10 C 2.862248 1.240026 -0.403622 0
M  V30 11 C 3.091085 2.594086 -0.254314 0
M  V30 12 N 4.000938 3.521106 -0.606402 0
M  V30 13 N 3.640276 4.723183 -0.141824 0
M  V30 14 C 2.462373 4.619597 0.541485 0
M  V30 15 C 1.927726 5.863667 1.149106 0
M  V30 16 C 2.499778 6.498160 2.338277 0
M  V30 17 C 1.332767 5.646908 2.580963 0
M  V30 18 C 2.134657 3.283969 0.459932 0
M  V30 19 C 1.001161 2.736991 1.017842 0
M  V30 20 N 0.816418 1.405751 0.847191 0
M  V30 21 C -2.051194 -3.846231 0.004682 0
M  V30 22 C -1.436140 -4.630557 -0.973446 0
M  V30 23 C -2.216001 -5.196968 -1.978144 0
M  V30 24 F -1.624063 -5.963418 -2.936193 0
M  V30 25 C -3.585091 -4.997372 -2.024764 0
M  V30 26 C -4.142277 -4.210676 -1.029119 0
M  V30 27 N -3.373953 -3.668053 -0.061446 0
M  V30 28 H -2.536312 -6.103872 4.209569 0
M  V30 29 H -1.093581 -5.045295 4.448775 0
M  V30 30 H -0.945330 -6.416482 3.339625 0
M  V30 31 H -0.315844 -3.802409 2.973879 0
M  V30 32 H -0.258541 -5.116562 1.770002 0
M  V30 33 H -1.644149 -2.429027 1.502418 0
M  V30 34 H 0.756832 -3.335269 -0.115698 0
M  V30 35 H 2.169383 -1.314214 -0.529691 0
M  V30 36 H 3.604389 0.687170 -0.961266 0
M  V30 37 H 4.840928 3.258856 -1.162982 0
M  V30 38 H 1.237169 6.454506 0.480503 0
M  V30 39 H 2.385699 7.576987 2.477092 0
M  V30 40 H 3.498094 6.117555 2.641813 0
M  V30 41 H 1.499689 4.622960 3.029394 0
M  V30 42 H 0.314059 5.995787 2.740226 0
M  V30 43 H 0.256324 3.291273 1.567389 0
M  V30 44 H -0.371422 -4.824708 -0.993181 0
M  V30 45 H -4.143309 -5.462063 -2.829141 0
M  V30 46 H -5.215784 -4.042176 -1.048432 0
M  V30 END ATOM
M  V30 BEGIN BOND
M  V30 1 1 1 2
M  V30 2 1 2 3
M  V30 3 1 3 4
M  V30 4 1 4 5
M  V30 5 1 5 6
M  V30 6 2 6 7
M  V30 7 1 6 8
M  V30 8 1 8 9
M  V30 9 2 9 10
M  V30 10 1 10 11
M  V30 11 1 11 12
M  V30 12 1 12 13
M  V30 13 2 13 14
M  V30 14 1 14 15
M  V30 15 1 15 16
M  V30 16 1 16 17
M  V30 17 1 14 18
M  V30 18 1 18 19
M  V30 19 2 19 20
M  V30 20 1 4 21
M  V30 21 2 21 22
M  V30 22 1 22 23
M  V30 23 1 23 24
M  V30 24 2 23 25
M  V30 25 1 25 26
M  V30 26 2 26 27
M  V30 27 1 20 9
M  V30 28 1 27 21
M  V30 29 2 18 11
M  V30 30 1 17 15
M  V30 31 1 1 28
M  V30 32 1 1 29
M  V30 33 1 1 30
M  V30 34 1 3 31
M  V30 35 1 3 32
M  V30 36 1 4 33 CFG=1
M  V30 37 1 5 34
M  V30 38 1 8 35
M  V30 39 1 10 36
M  V30 40 1 12 37
M  V30 41 1 15 38
M  V30 42 1 16 39
M  V30 43 1 16 40
M  V30 44 1 17 41
M  V30 45 1 17 42
M  V30 46 1 19 43
M  V30 47 1 22 44
M  V30 48 1 25 45
M  V30 49 1 26 46
M  V30 END BOND
M  V30 END CTAB
M  END
>  <Dataset>  (221) 
ChEMBL_Kinases

>  <Ligand_Instance>  (221) 
nan

>  <PDB_ID>  (221) 
nan

>  <Standardized_SMILES>  (221) 
COC[C@@H](NC(=O)Nc1cc2[nH]nc(C3CC3)c2cn1)c1cc(F)ccn1

>  <Name>  (221) 
nan

>  <Pocket>  (221) 
nan

>  <ATP_Site>  (221) 
nan

>  <Peripheral>  (221) 
nan

>  <Num_H_Atoms_ProtBoundConf>  (221) 
nan

>  <Num_Resolved_Atoms>  (221) 
nan

>  <Num_Not_Resolved_Atoms>  (221) 
nan

$$$$
CHEMBL3654797
     RDKit          3D

  0  0  0  0  0  0  0  0  0  0999 V3000
M  V30 BEGIN CTAB
M  V30 COUNTS 51 54 0 0 0
M  V30 BEGIN ATOM
M  V30 1 C -1.666289 -6.741061 0.546845 0
M  V30 2 O -1.479264 -5.793810 -0.375212 0
M  V30 3 C -0.279693 -5.295955 -0.713620 0
M  V30 4 C 0.542300 -4.613429 0.321127 0 CFG=1
M  V30 5 N -0.168701 -3.521523 0.958323 0
M  V30 6 C 0.237541 -2.178078 0.791328 0
M  V30 7 O 1.211158 -1.776183 0.108747 0
M  V30 8 N -0.556420 -1.205473 1.478263 0
M  V30 9 C -0.309150 0.197856 1.435106 0
M  V30 10 C 0.488471 0.936495 2.287357 0
M  V30 11 C 0.581903 2.295858 2.054240 0
M  V30 12 N 1.288602 3.213073 2.740719 0
M  V30 13 N 1.056735 4.370264 2.134162 0
M  V30 14 C 0.224792 4.216847 1.083764 0
M  V30 15 C -0.246264 5.270273 0.190932 0
M  V30 16 C -0.697006 6.489498 0.672367 0
M  V30 17 C -1.141010 7.479312 -0.192240 0
M  V30 18 N -1.151575 7.294626 -1.532916 0
M  V30 19 C -0.720685 6.124514 -2.022247 0
M  V30 20 C -0.727038 5.907687 -3.498012 0
M  V30 21 C -0.269322 5.112868 -1.177857 0
M  V30 22 C -0.104382 2.879779 1.001965 0
M  V30 23 C -0.888793 2.111716 0.174745 0
M  V30 24 N -0.982793 0.773726 0.401524 0
M  V30 25 C 1.069222 -5.532309 1.319477 0
M  V30 26 C 1.342950 -6.879369 1.319891 0
M  V30 27 C 1.836767 -7.617465 2.368448 0
M  V30 28 F 2.035568 -8.936477 2.159713 0
M  V30 29 C 2.095248 -6.969638 3.555726 0
M  V30 30 C 1.829168 -5.622649 3.576704 0
M  V30 31 N 1.346056 -4.947111 2.522973 0
M  V30 32 H -1.201792 -7.730566 0.395252 0
M  V30 33 H -2.788586 -6.947557 0.590716 0
M  V30 34 H -1.448994 -6.296137 1.559941 0
M  V30 35 H -0.320927 -4.628046 -1.634652 0
M  V30 36 H 0.368346 -6.148437 -1.098520 0
M  V30 37 H 1.375472 -4.093330 -0.244145 0
M  V30 38 H -0.998231 -3.783071 1.547927 0
M  V30 39 H -1.405931 -1.364774 2.093035 0
M  V30 40 H 0.970242 0.368449 3.067303 0
M  V30 41 H 1.894622 3.043626 3.579409 0
M  V30 42 H -0.703576 6.675628 1.746985 0
M  V30 43 H -1.499383 8.442852 0.153619 0
M  V30 44 H -0.003472 6.575525 -4.005724 0
M  V30 45 H -1.709328 6.064118 -3.956886 0
M  V30 46 H -0.377233 4.872243 -3.719173 0
M  V30 47 H 0.064116 4.194469 -1.640776 0
M  V30 48 H -1.414173 2.591880 -0.639306 0
M  V30 49 H 1.133538 -7.342463 0.351895 0
M  V30 50 H 2.482425 -7.568878 4.365186 0
M  V30 51 H 2.032474 -5.096100 4.520234 0
M  V30 END ATOM
M  V30 BEGIN BOND
M  V30 1 1 1 2
M  V30 2 1 2 3
M  V30 3 1 3 4
M  V30 4 1 4 5
M  V30 5 1 5 6
M  V30 6 2 6 7
M  V30 7 1 6 8
M  V30 8 1 8 9
M  V30 9 2 9 10
M  V30 10 1 10 11
M  V30 11 1 11 12
M  V30 12 1 12 13
M  V30 13 2 13 14
M  V30 14 1 14 15
M  V30 15 2 15 16
M  V30 16 1 16 17
M  V30 17 2 17 18
M  V30 18 1 18 19
M  V30 19 1 19 20
M  V30 20 2 19 21
M  V30 21 1 14 22
M  V30 22 1 22 23
M  V30 23 2 23 24
M  V30 24 1 4 25
M  V30 25 2 25 26
M  V30 26 1 26 27
M  V30 27 1 27 28
M  V30 28 2 27 29
M  V30 29 1 29 30
M  V30 30 2 30 31
M  V30 31 1 24 9
M  V30 32 1 31 25
M  V30 33 2 22 11
M  V30 34 1 21 15
M  V30 35 1 1 32
M  V30 36 1 1 33
M  V30 37 1 1 34
M  V30 38 1 3 35
M  V30 39 1 3 36
M  V30 40 1 4 37 CFG=3
M  V30 41 1 5 38
M  V30 42 1 8 39
M  V30 43 1 10 40
M  V30 44 1 12 41
M  V30 45 1 16 42
M  V30 46 1 17 43
M  V30 47 1 20 44
M  V30 48 1 20 45
M  V30 49 1 20 46
M  V30 50 1 21 47
M  V30 51 1 23 48
M  V30 52 1 26 49
M  V30 53 1 29 50
M  V30 54 1 30 51
M  V30 END BOND
M  V30 END CTAB
M  END
>  <Dataset>  (222) 
ChEMBL_Kinases

>  <Ligand_Instance>  (222) 
nan

>  <PDB_ID>  (222) 
nan

>  <Standardized_SMILES>  (222) 
COC[C@@H](NC(=O)Nc1cc2[nH]nc(-c3ccnc(C)c3)c2cn1)c1cc(F)ccn1

>  <Name>  (222) 
nan

>  <Pocket>  (222) 
nan

>  <ATP_Site>  (222) 
nan

>  <Peripheral>  (222) 
nan

>  <Num_H_Atoms_ProtBoundConf>  (222) 
nan

>  <Num_Resolved_Atoms>  (222) 
nan

>  <Num_Not_Resolved_Atoms>  (222) 
nan

$$$$
CHEMBL3654798
     RDKit          3D

  0  0  0  0  0  0  0  0  0  0999 V3000
M  V30 BEGIN CTAB
M  V30 COUNTS 57 60 0 0 0
M  V30 BEGIN ATOM
M  V30 1 C 8.278761 -2.764390 -0.157811 0
M  V30 2 C 6.918032 -2.932030 -0.784114 0
M  V30 3 N 5.873503 -2.221748 -0.056136 0
M  V30 4 C 5.930558 -0.814918 0.116244 0
M  V30 5 O 6.934377 -0.216633 -0.395034 0
M  V30 6 C 4.875466 -0.068375 0.855195 0 CFG=1
M  V30 7 C 5.468708 0.920175 1.874223 0
M  V30 8 C 4.683700 1.371045 0.658535 0
M  V30 9 C 3.358375 1.961564 0.959963 0
M  V30 10 N 3.343107 3.188006 1.535258 0
M  V30 11 N 2.082905 3.564758 1.761398 0
M  V30 12 C 1.224113 2.618805 1.351315 0
M  V30 13 C -0.144165 2.421820 1.306110 0
M  V30 14 C -0.592938 1.236087 0.760401 0
M  V30 15 N -1.971188 0.999955 0.692995 0
M  V30 16 C -2.595564 -0.170190 0.156194 0
M  V30 17 O -1.698455 -0.978834 -0.255650 0
M  V30 18 N -4.001438 -0.484020 0.050021 0
M  V30 19 C -4.348904 -1.731011 -0.532311 0 CFG=2
M  V30 20 C -4.945193 -1.574675 -1.876445 0
M  V30 21 O -6.094114 -0.918222 -2.065545 0
M  V30 22 C -6.266367 0.376621 -1.734411 0
M  V30 23 C -5.120313 -2.620298 0.367124 0
M  V30 24 C -6.192575 -2.193714 1.146784 0
M  V30 25 C -6.894020 -3.041298 1.973777 0
M  V30 26 C -6.564288 -4.376195 2.072191 0
M  V30 27 C -5.506918 -4.863426 1.321811 0
M  V30 28 C -4.839114 -3.970967 0.510892 0
M  V30 29 N 0.229172 0.286403 0.281975 0
M  V30 30 C 1.556406 0.447222 0.311930 0
M  V30 31 C 2.029121 1.618377 0.850535 0
M  V30 32 H 8.219538 -2.712466 0.944225 0
M  V30 33 H 8.894991 -3.638906 -0.494175 0
M  V30 34 H 8.760759 -1.859798 -0.600450 0
M  V30 35 H 6.633672 -4.016275 -0.883095 0
M  V30 36 H 6.985976 -2.544446 -1.831816 0
M  V30 37 H 5.060306 -2.765568 0.349754 0
M  V30 38 H 4.067136 -0.707379 1.239884 0
M  V30 39 H 5.002772 0.967682 2.865471 0
M  V30 40 H 6.530476 1.160479 1.841157 0
M  V30 41 H 5.221336 1.935013 -0.136087 0
M  V30 42 H 1.756511 4.461029 2.194075 0
M  V30 43 H -0.775882 3.206191 1.699531 0
M  V30 44 H -2.657769 1.703637 1.049007 0
M  V30 45 H -4.472254 0.339551 0.465915 0
M  V30 46 H -3.375055 -2.291087 -0.699649 0
M  V30 47 H -5.076973 -2.617104 -2.313678 0
M  V30 48 H -4.099119 -1.178427 -2.544400 0
M  V30 49 H -5.564807 1.101141 -2.198727 0
M  V30 50 H -7.275662 0.684336 -2.196395 0
M  V30 51 H -6.446508 0.510631 -0.657346 0
M  V30 52 H -6.467870 -1.132371 1.079372 0
M  V30 53 H -7.716475 -2.575797 2.532406 0
M  V30 54 H -7.126762 -5.009916 2.721747 0
M  V30 55 H -5.214849 -5.904034 1.367898 0
M  V30 56 H -4.005918 -4.372570 -0.074720 0
M  V30 57 H 2.193699 -0.327191 -0.086231 0
M  V30 END ATOM
M  V30 BEGIN BOND
M  V30 1 1 1 2
M  V30 2 1 2 3
M  V30 3 1 3 4
M  V30 4 2 4 5
M  V30 5 1 4 6
M  V30 6 1 6 7
M  V30 7 1 7 8
M  V30 8 1 8 9
M  V30 9 2 9 10
M  V30 10 1 10 11
M  V30 11 1 11 12
M  V30 12 2 12 13
M  V30 13 1 13 14
M  V30 14 1 14 15
M  V30 15 1 15 16
M  V30 16 2 16 17
M  V30 17 1 16 18
M  V30 18 1 18 19
M  V30 19 1 19 20
M  V30 20 1 20 21
M  V30 21 1 21 22
M  V30 22 1 19 23
M  V30 23 2 23 24
M  V30 24 1 24 25
M  V30 25 2 25 26
M  V30 26 1 26 27
M  V30 27 2 27 28
M  V30 28 2 14 29
M  V30 29 1 29 30
M  V30 30 2 30 31
M  V30 31 1 8 6
M  V30 32 1 31 9
M  V30 33 1 31 12
M  V30 34 1 28 23
M  V30 35 1 1 32
M  V30 36 1 1 33
M  V30 37 1 1 34
M  V30 38 1 2 35
M  V30 39 1 2 36
M  V30 40 1 3 37
M  V30 41 1 6 38 CFG=1
M  V30 42 1 7 39
M  V30 43 1 7 40
M  V30 44 1 8 41
M  V30 45 1 11 42
M  V30 46 1 13 43
M  V30 47 1 15 44
M  V30 48 1 18 45
M  V30 49 1 19 46 CFG=3
M  V30 50 1 20 47
M  V30 51 1 20 48
M  V30 52 1 22 49
M  V30 53 1 22 50
M  V30 54 1 22 51
M  V30 55 1 24 52
M  V30 56 1 25 53
M  V30 57 1 26 54
M  V30 58 1 27 55
M  V30 59 1 28 56
M  V30 60 1 30 57
M  V30 END BOND
M  V30 END CTAB
M  END
>  <Dataset>  (223) 
ChEMBL_Kinases

>  <Ligand_Instance>  (223) 
nan

>  <PDB_ID>  (223) 
nan

>  <Standardized_SMILES>  (223) 
CCNC(=O)[C@H]1CC1c1n[nH]c2cc(NC(=O)N[C@H](COC)c3ccccc3)ncc12

>  <Name>  (223) 
nan

>  <Pocket>  (223) 
nan

>  <ATP_Site>  (223) 
nan

>  <Peripheral>  (223) 
nan

>  <Num_H_Atoms_ProtBoundConf>  (223) 
nan

>  <Num_Resolved_Atoms>  (223) 
nan

>  <Num_Not_Resolved_Atoms>  (223) 
nan

$$$$
CHEMBL3654799
     RDKit          3D

  0  0  0  0  0  0  0  0  0  0999 V3000
M  V30 BEGIN CTAB
M  V30 COUNTS 54 57 0 0 0
M  V30 BEGIN ATOM
M  V30 1 C 4.684303 -3.201231 6.455110 0
M  V30 2 N 4.157318 -2.008784 5.820486 0
M  V30 3 C 4.939999 -1.111640 5.040918 0
M  V30 4 O 6.169679 -1.448235 4.943182 0
M  V30 5 C 4.375784 0.111246 4.396126 0 CFG=1
M  V30 6 C 5.155378 1.359525 4.302100 0
M  V30 7 C 4.921276 0.503158 3.032872 0
M  V30 8 C 3.963394 1.046408 2.041181 0
M  V30 9 N 4.403447 2.096482 1.286004 0
M  V30 10 N 3.436190 2.496516 0.456066 0
M  V30 11 C 2.335153 1.740631 0.624297 0
M  V30 12 C 1.052640 1.610513 0.124794 0
M  V30 13 C 0.195356 0.621171 0.617352 0
M  V30 14 N -1.112051 0.523912 0.075861 0
M  V30 15 C -1.560238 -0.247299 -1.038342 0
M  V30 16 O -0.525323 -0.862950 -1.481237 0
M  V30 17 N -2.887775 -0.361547 -1.607894 0
M  V30 18 C -2.952506 -1.235716 -2.728962 0 CFG=2
M  V30 19 C -3.280656 -0.516551 -3.983732 0
M  V30 20 O -4.456275 0.110908 -4.136332 0
M  V30 21 C -4.872693 1.092677 -3.313888 0
M  V30 22 C -3.885320 -2.375325 -2.476406 0
M  V30 23 C -3.759209 -2.984415 -1.233302 0
M  V30 24 C -4.610554 -4.056206 -0.949968 0
M  V30 25 C -5.525098 -4.465510 -1.887473 0
M  V30 26 C -5.608803 -3.826759 -3.104954 0
M  V30 27 C -4.785398 -2.753069 -3.441104 0
M  V30 28 N 0.605181 -0.227631 1.592179 0
M  V30 29 C 1.849053 -0.144782 2.116605 0
M  V30 30 C 2.669981 0.838863 1.612801 0
M  V30 31 H 5.742723 -3.027046 6.682416 0
M  V30 32 H 4.530960 -4.110235 5.803253 0
M  V30 33 H 4.049371 -3.408883 7.350186 0
M  V30 34 H 3.141533 -1.756502 5.917961 0
M  V30 35 H 3.293954 0.228880 4.597122 0
M  V30 36 H 4.603983 2.325396 4.319950 0
M  V30 37 H 6.170685 1.383051 4.712404 0
M  V30 38 H 5.840532 -0.001103 2.672249 0
M  V30 39 H 3.459738 3.270204 -0.243652 0
M  V30 40 H 0.779451 2.318723 -0.655574 0
M  V30 41 H -1.861737 1.081413 0.537035 0
M  V30 42 H -3.435862 0.262024 -0.988745 0
M  V30 43 H -1.954976 -1.718374 -2.893672 0
M  V30 44 H -3.102386 -1.215262 -4.865766 0
M  V30 45 H -2.439946 0.237039 -4.139441 0
M  V30 46 H -5.863750 1.549899 -3.642658 0
M  V30 47 H -5.208882 0.603717 -2.337876 0
M  V30 48 H -4.157682 1.913054 -3.142342 0
M  V30 49 H -3.041056 -2.667273 -0.490011 0
M  V30 50 H -4.530750 -4.548209 0.015310 0
M  V30 51 H -6.171122 -5.306323 -1.626469 0
M  V30 52 H -6.341702 -4.176152 -3.820432 0
M  V30 53 H -4.835700 -2.238388 -4.391621 0
M  V30 54 H 2.131345 -0.847465 2.884726 0
M  V30 END ATOM
M  V30 BEGIN BOND
M  V30 1 1 1 2
M  V30 2 1 2 3
M  V30 3 2 3 4
M  V30 4 1 3 5
M  V30 5 1 5 6
M  V30 6 1 6 7
M  V30 7 1 7 8
M  V30 8 2 8 9
M  V30 9 1 9 10
M  V30 10 1 10 11
M  V30 11 2 11 12
M  V30 12 1 12 13
M  V30 13 1 13 14
M  V30 14 1 14 15
M  V30 15 2 15 16
M  V30 16 1 15 17
M  V30 17 1 17 18
M  V30 18 1 18 19
M  V30 19 1 19 20
M  V30 20 1 20 21
M  V30 21 1 18 22
M  V30 22 2 22 23
M  V30 23 1 23 24
M  V30 24 2 24 25
M  V30 25 1 25 26
M  V30 26 2 26 27
M  V30 27 2 13 28
M  V30 28 1 28 29
M  V30 29 2 29 30
M  V30 30 1 7 5
M  V30 31 1 30 8
M  V30 32 1 30 11
M  V30 33 1 27 22
M  V30 34 1 1 31
M  V30 35 1 1 32
M  V30 36 1 1 33
M  V30 37 1 2 34
M  V30 38 1 5 35 CFG=3
M  V30 39 1 6 36
M  V30 40 1 6 37
M  V30 41 1 7 38
M  V30 42 1 10 39
M  V30 43 1 12 40
M  V30 44 1 14 41
M  V30 45 1 17 42
M  V30 46 1 18 43 CFG=3
M  V30 47 1 19 44
M  V30 48 1 19 45
M  V30 49 1 21 46
M  V30 50 1 21 47
M  V30 51 1 21 48
M  V30 52 1 23 49
M  V30 53 1 24 50
M  V30 54 1 25 51
M  V30 55 1 26 52
M  V30 56 1 27 53
M  V30 57 1 29 54
M  V30 END BOND
M  V30 END CTAB
M  END
>  <Dataset>  (224) 
ChEMBL_Kinases

>  <Ligand_Instance>  (224) 
nan

>  <PDB_ID>  (224) 
nan

>  <Standardized_SMILES>  (224) 
CNC(=O)[C@H]1CC1c1n[nH]c2cc(NC(=O)N[C@H](COC)c3ccccc3)ncc12

>  <Name>  (224) 
nan

>  <Pocket>  (224) 
nan

>  <ATP_Site>  (224) 
nan

>  <Peripheral>  (224) 
nan

>  <Num_H_Atoms_ProtBoundConf>  (224) 
nan

>  <Num_Resolved_Atoms>  (224) 
nan

>  <Num_Not_Resolved_Atoms>  (224) 
nan

$$$$
CHEMBL3654800
     RDKit          3D

  0  0  0  0  0  0  0  0  0  0999 V3000
M  V30 BEGIN CTAB
M  V30 COUNTS 50 53 0 0 0
M  V30 BEGIN ATOM
M  V30 1 C -1.175949 -7.249713 -0.900569 0
M  V30 2 C 0.044074 -6.759797 -1.603336 0
M  V30 3 C 0.647805 -5.600734 -1.227304 0
M  V30 4 C 1.777849 -5.092823 -1.835497 0
M  V30 5 C 2.452726 -3.851679 -1.458151 0
M  V30 6 N 3.795524 -3.662943 -1.307662 0
M  V30 7 N 4.051785 -2.407262 -0.957901 0
M  V30 8 C 2.851242 -1.802001 -0.888710 0
M  V30 9 C 2.600115 -0.482127 -0.560125 0
M  V30 10 C 1.278894 -0.077890 -0.552894 0
M  V30 11 N 0.758282 1.214267 -0.251805 0
M  V30 12 C 0.456753 1.393351 1.134144 0
M  V30 13 O 0.577831 0.607433 2.097371 0
M  V30 14 N -0.070552 2.642389 1.565769 0
M  V30 15 C -0.426658 2.971135 2.952849 0 CFG=1
M  V30 16 C 0.467417 4.106296 3.407423 0
M  V30 17 N 1.833364 3.656671 3.318031 0
M  V30 18 C -1.869750 3.349453 3.038728 0
M  V30 19 C -2.651564 2.462215 2.314614 0
M  V30 20 C -4.026298 2.592532 2.234065 0
M  V30 21 C -4.607534 3.661627 2.915465 0
M  V30 22 C -3.830995 4.541157 3.633482 0
M  V30 23 C -2.463747 4.400553 3.705833 0
M  V30 24 N 0.290734 -0.941020 -0.854278 0
M  V30 25 C 0.497511 -2.232202 -1.178641 0
M  V30 26 C 1.809216 -2.657363 -1.192091 0
M  V30 27 C 2.299837 -5.828177 -2.882349 0
M  V30 28 C 1.668747 -7.014833 -3.255734 0
M  V30 29 N 0.556843 -7.460768 -2.614802 0
M  V30 30 H -1.285167 -6.815808 0.111167 0
M  V30 31 H -2.054681 -6.864148 -1.495245 0
M  V30 32 H -1.218918 -8.343712 -0.832069 0
M  V30 33 H 0.229560 -5.032674 -0.405215 0
M  V30 34 H 4.986473 -1.982255 -0.775859 0
M  V30 35 H 3.305311 0.296793 -0.302147 0
M  V30 36 H 0.603235 1.974880 -0.962045 0
M  V30 37 H -0.255834 3.458252 0.915071 0
M  V30 38 H -0.231488 2.114699 3.632061 0
M  V30 39 H 0.387053 4.979311 2.699632 0
M  V30 40 H 0.193162 4.408245 4.436241 0
M  V30 41 H 1.993324 2.723136 3.766300 0
M  V30 42 H 2.431231 4.378853 3.807116 0
M  V30 43 H -2.306248 1.592274 1.744127 0
M  V30 44 H -4.682638 1.931050 1.684983 0
M  V30 45 H -5.688846 3.808074 2.883111 0
M  V30 46 H -4.237255 5.376224 4.171716 0
M  V30 47 H -1.743676 5.014619 4.229469 0
M  V30 48 H -0.298686 -2.923006 -1.420256 0
M  V30 49 H 3.180754 -5.545898 -3.446203 0
M  V30 50 H 2.001352 -7.668092 -4.068612 0
M  V30 END ATOM
M  V30 BEGIN BOND
M  V30 1 1 1 2
M  V30 2 2 2 3
M  V30 3 1 3 4
M  V30 4 1 4 5
M  V30 5 2 5 6
M  V30 6 1 6 7
M  V30 7 1 7 8
M  V30 8 2 8 9
M  V30 9 1 9 10
M  V30 10 1 10 11
M  V30 11 1 11 12
M  V30 12 2 12 13
M  V30 13 1 12 14
M  V30 14 1 14 15
M  V30 15 1 15 16
M  V30 16 1 16 17
M  V30 17 1 15 18
M  V30 18 2 18 19
M  V30 19 1 19 20
M  V30 20 2 20 21
M  V30 21 1 21 22
M  V30 22 2 22 23
M  V30 23 2 10 24
M  V30 24 1 24 25
M  V30 25 2 25 26
M  V30 26 2 4 27
M  V30 27 1 27 28
M  V30 28 2 28 29
M  V30 29 1 29 2
M  V30 30 1 26 5
M  V30 31 1 26 8
M  V30 32 1 23 18
M  V30 33 1 1 30
M  V30 34 1 1 31
M  V30 35 1 1 32
M  V30 36 1 3 33
M  V30 37 1 7 34
M  V30 38 1 9 35
M  V30 39 1 11 36
M  V30 40 1 14 37
M  V30 41 1 15 38 CFG=1
M  V30 42 1 16 39
M  V30 43 1 16 40
M  V30 44 1 17 41
M  V30 45 1 17 42
M  V30 46 1 19 43
M  V30 47 1 20 44
M  V30 48 1 21 45
M  V30 49 1 22 46
M  V30 50 1 23 47
M  V30 51 1 25 48
M  V30 52 1 27 49
M  V30 53 1 28 50
M  V30 END BOND
M  V30 END CTAB
M  END
>  <Dataset>  (225) 
ChEMBL_Kinases

>  <Ligand_Instance>  (225) 
nan

>  <PDB_ID>  (225) 
nan

>  <Standardized_SMILES>  (225) 
Cc1cc(-c2n[nH]c3cc(NC(=O)N[C@@H](CN)c4ccccc4)ncc23)ccn1

>  <Name>  (225) 
nan

>  <Pocket>  (225) 
nan

>  <ATP_Site>  (225) 
nan

>  <Peripheral>  (225) 
nan

>  <Num_H_Atoms_ProtBoundConf>  (225) 
nan

>  <Num_Resolved_Atoms>  (225) 
nan

>  <Num_Not_Resolved_Atoms>  (225) 
nan

$$$$
CHEMBL3654801
     RDKit          3D

  0  0  0  0  0  0  0  0  0  0999 V3000
M  V30 BEGIN CTAB
M  V30 COUNTS 48 50 0 0 0
M  V30 BEGIN ATOM
M  V30 1 C 4.912781 -6.284466 1.892211 0
M  V30 2 C 5.408209 -5.462532 0.732433 0
M  V30 3 O 4.364000 -4.635011 0.264382 0
M  V30 4 C 4.505758 -3.766736 -0.788832 0
M  V30 5 O 5.691155 -4.166612 -0.872562 0
M  V30 6 C 3.216626 -3.042221 -1.027857 0
M  V30 7 C 3.311977 -2.069688 -2.186648 0
M  V30 8 C 1.949717 -1.431393 -2.292072 0
M  V30 9 N 0.984844 -1.711057 -3.209203 0
M  V30 10 N -0.072118 -0.926811 -2.952810 0
M  V30 11 C 0.232503 -0.166644 -1.886936 0
M  V30 12 C -0.462257 0.819152 -1.175282 0
M  V30 13 C 0.099899 1.459709 -0.089329 0
M  V30 14 N -0.563781 2.468399 0.664342 0
M  V30 15 C -1.360430 2.145136 1.794691 0
M  V30 16 O -1.453501 0.931161 2.100594 0
M  V30 17 N -2.027545 3.102520 2.558962 0
M  V30 18 C -2.870039 2.937195 3.726003 0
M  V30 19 C -4.190553 2.446444 3.252086 0
M  V30 20 C -5.216123 3.267746 2.867046 0
M  V30 21 C -6.450458 2.838427 2.431048 0
M  V30 22 C -6.695506 1.468469 2.369418 0
M  V30 23 C -5.685171 0.598347 2.750155 0
M  V30 24 C -4.465741 1.077362 3.179975 0
M  V30 25 N 1.361621 1.152200 0.331822 0
M  V30 26 C 2.078646 0.196903 -0.330823 0
M  V30 27 C 1.509678 -0.438490 -1.415074 0
M  V30 28 H 5.594075 -7.153118 2.042910 0
M  V30 29 H 4.915283 -5.701379 2.834166 0
M  V30 30 H 3.865980 -6.643245 1.681092 0
M  V30 31 H 5.685233 -6.163762 -0.080285 0
M  V30 32 H 6.288196 -4.892664 1.098167 0
M  V30 33 H 2.986626 -2.487318 -0.099288 0
M  V30 34 H 2.434143 -3.797272 -1.188594 0
M  V30 35 H 3.501404 -2.557351 -3.141866 0
M  V30 36 H 4.029399 -1.269943 -1.941419 0
M  V30 37 H -0.995690 -0.861875 -3.445303 0
M  V30 38 H -1.455815 1.097254 -1.465706 0
M  V30 39 H -0.464632 3.476355 0.381203 0
M  V30 40 H -1.882919 4.094536 2.216785 0
M  V30 41 H -2.952117 3.888258 4.287035 0
M  V30 42 H -2.411107 2.217729 4.451823 0
M  V30 43 H -5.044745 4.351706 2.907968 0
M  V30 44 H -7.244776 3.532870 2.130968 0
M  V30 45 H -7.659773 1.114842 2.029741 0
M  V30 46 H -5.910198 -0.457956 2.688517 0
M  V30 47 H -3.740577 0.327897 3.459806 0
M  V30 48 H 3.091840 -0.090283 -0.040734 0
M  V30 END ATOM
M  V30 BEGIN BOND
M  V30 1 1 1 2
M  V30 2 1 2 3
M  V30 3 1 3 4
M  V30 4 2 4 5
M  V30 5 1 4 6
M  V30 6 1 6 7
M  V30 7 1 7 8
M  V30 8 2 8 9
M  V30 9 1 9 10
M  V30 10 1 10 11
M  V30 11 2 11 12
M  V30 12 1 12 13
M  V30 13 1 13 14
M  V30 14 1 14 15
M  V30 15 2 15 16
M  V30 16 1 15 17
M  V30 17 1 17 18
M  V30 18 1 18 19
M  V30 19 2 19 20
M  V30 20 1 20 21
M  V30 21 2 21 22
M  V30 22 1 22 23
M  V30 23 2 23 24
M  V30 24 2 13 25
M  V30 25 1 25 26
M  V30 26 2 26 27
M  V30 27 1 27 8
M  V30 28 1 27 11
M  V30 29 1 24 19
M  V30 30 1 1 28
M  V30 31 1 1 29
M  V30 32 1 1 30
M  V30 33 1 2 31
M  V30 34 1 2 32
M  V30 35 1 6 33
M  V30 36 1 6 34
M  V30 37 1 7 35
M  V30 38 1 7 36
M  V30 39 1 10 37
M  V30 40 1 12 38
M  V30 41 1 14 39
M  V30 42 1 17 40
M  V30 43 1 18 41
M  V30 44 1 18 42
M  V30 45 1 20 43
M  V30 46 1 21 44
M  V30 47 1 22 45
M  V30 48 1 23 46
M  V30 49 1 24 47
M  V30 50 1 26 48
M  V30 END BOND
M  V30 END CTAB
M  END
>  <Dataset>  (226) 
ChEMBL_Kinases

>  <Ligand_Instance>  (226) 
nan

>  <PDB_ID>  (226) 
nan

>  <Standardized_SMILES>  (226) 
CCOC(=O)CCc1n[nH]c2cc(NC(=O)NCc3ccccc3)ncc12

>  <Name>  (226) 
nan

>  <Pocket>  (226) 
nan

>  <ATP_Site>  (226) 
nan

>  <Peripheral>  (226) 
nan

>  <Num_H_Atoms_ProtBoundConf>  (226) 
nan

>  <Num_Resolved_Atoms>  (226) 
nan

>  <Num_Not_Resolved_Atoms>  (226) 
nan

$$$$
CHEMBL3654811
     RDKit          3D

  0  0  0  0  0  0  0  0  0  0999 V3000
M  V30 BEGIN CTAB
M  V30 COUNTS 57 61 0 0 0
M  V30 BEGIN ATOM
M  V30 1 C 4.526900 -5.068225 7.788871 0
M  V30 2 C 3.291676 -4.404870 7.276975 0
M  V30 3 C 3.147504 -4.179864 5.909345 0
M  V30 4 C 2.029535 -3.571350 5.377808 0
M  V30 5 C 2.003169 -3.393940 3.917554 0
M  V30 6 N 2.355255 -4.352708 3.013238 0
M  V30 7 N 2.213187 -3.857000 1.789347 0
M  V30 8 C 1.767793 -2.571769 1.877308 0
M  V30 9 C 1.444512 -1.573133 0.971925 0
M  V30 10 C 1.005620 -0.330269 1.393254 0
M  V30 11 N 0.727442 0.550829 0.311752 0
M  V30 12 C -0.584007 0.569894 -0.241393 0
M  V30 13 O -1.526016 -0.131806 0.147849 0
M  V30 14 N -0.736057 1.492951 -1.318142 0
M  V30 15 C -1.892051 1.778220 -2.102110 0 CFG=1
M  V30 16 C -2.333684 3.233350 -1.990253 0
M  V30 17 N -2.942249 3.580954 -3.236233 0
M  V30 18 C -4.183794 4.283018 -3.147310 0
M  V30 19 C -3.020848 2.356780 -4.030392 0
M  V30 20 C -1.746679 1.631701 -3.567623 0 CFG=2
M  V30 21 C -1.675411 0.265552 -4.095173 0
M  V30 22 C -2.171534 -0.857021 -3.482790 0
M  V30 23 C -2.096022 -2.138871 -3.993243 0
M  V30 24 C -1.467545 -2.304234 -5.225082 0
M  V30 25 C -0.946751 -1.192616 -5.887152 0
M  V30 26 C -1.051115 0.075283 -5.326273 0
M  V30 27 F -0.505993 1.071020 -6.067555 0
M  V30 28 N 0.879362 -0.054582 2.712648 0
M  V30 29 C 1.181979 -0.994513 3.636734 0
M  V30 30 C 1.624576 -2.249417 3.233351 0
M  V30 31 C 1.027656 -3.177276 6.242932 0
M  V30 32 C 1.234190 -3.429596 7.581850 0
M  V30 33 N 2.304921 -4.014585 8.109793 0
M  V30 34 H 5.287501 -4.272871 7.937231 0
M  V30 35 H 4.836871 -5.824145 7.034019 0
M  V30 36 H 4.341603 -5.589291 8.730608 0
M  V30 37 H 3.969628 -4.510865 5.265792 0
M  V30 38 H 2.403430 -4.344718 0.863805 0
M  V30 39 H 1.569778 -1.864215 -0.076628 0
M  V30 40 H 1.587392 1.110132 0.045724 0
M  V30 41 H 0.044735 2.116051 -1.685308 0
M  V30 42 H -2.741970 1.164631 -1.780404 0
M  V30 43 H -1.375896 3.816169 -1.912801 0
M  V30 44 H -3.000418 3.391064 -1.120333 0
M  V30 45 H -4.194688 5.001491 -4.018573 0
M  V30 46 H -5.086778 3.646486 -3.280014 0
M  V30 47 H -4.321826 4.829496 -2.199434 0
M  V30 48 H -2.902128 2.675340 -5.079664 0
M  V30 49 H -3.933745 1.789859 -3.809640 0
M  V30 50 H -0.941271 2.258477 -4.011731 0
M  V30 51 H -2.651406 -0.740633 -2.544829 0
M  V30 52 H -2.515359 -2.970194 -3.442548 0
M  V30 53 H -1.386890 -3.298168 -5.662866 0
M  V30 54 H -0.461045 -1.366017 -6.852104 0
M  V30 55 H 1.081981 -0.775629 4.678395 0
M  V30 56 H 0.167723 -2.706978 5.814743 0
M  V30 57 H 0.399269 -3.091128 8.215842 0
M  V30 END ATOM
M  V30 BEGIN BOND
M  V30 1 1 1 2
M  V30 2 2 2 3
M  V30 3 1 3 4
M  V30 4 1 4 5
M  V30 5 2 5 6
M  V30 6 1 6 7
M  V30 7 1 7 8
M  V30 8 2 8 9
M  V30 9 1 9 10
M  V30 10 1 10 11
M  V30 11 1 11 12
M  V30 12 2 12 13
M  V30 13 1 12 14
M  V30 14 1 14 15
M  V30 15 1 15 16
M  V30 16 1 16 17
M  V30 17 1 17 18
M  V30 18 1 17 19
M  V30 19 1 19 20
M  V30 20 1 20 21
M  V30 21 2 21 22
M  V30 22 1 22 23
M  V30 23 2 23 24
M  V30 24 1 24 25
M  V30 25 2 25 26
M  V30 26 1 26 27
M  V30 27 2 10 28
M  V30 28 1 28 29
M  V30 29 2 29 30
M  V30 30 2 4 31
M  V30 31 1 31 32
M  V30 32 2 32 33
M  V30 33 1 33 2
M  V30 34 1 30 5
M  V30 35 1 30 8
M  V30 36 1 20 15
M  V30 37 1 26 21
M  V30 38 1 1 34
M  V30 39 1 1 35
M  V30 40 1 1 36
M  V30 41 1 3 37
M  V30 42 1 7 38
M  V30 43 1 9 39
M  V30 44 1 11 40
M  V30 45 1 14 41
M  V30 46 1 15 42 CFG=1
M  V30 47 1 16 43
M  V30 48 1 16 44
M  V30 49 1 18 45
M  V30 50 1 18 46
M  V30 51 1 18 47
M  V30 52 1 19 48
M  V30 53 1 19 49
M  V30 54 1 20 50 CFG=3
M  V30 55 1 22 51
M  V30 56 1 23 52
M  V30 57 1 24 53
M  V30 58 1 25 54
M  V30 59 1 29 55
M  V30 60 1 31 56
M  V30 61 1 32 57
M  V30 END BOND
M  V30 END CTAB
M  END
>  <Dataset>  (227) 
ChEMBL_Kinases

>  <Ligand_Instance>  (227) 
nan

>  <PDB_ID>  (227) 
nan

>  <Standardized_SMILES>  (227) 
Cc1cc(-c2n[nH]c3cc(NC(=O)N[C@H]4CN(C)C[C@@H]4c4ccccc4F)ncc23)ccn1

>  <Name>  (227) 
nan

>  <Pocket>  (227) 
nan

>  <ATP_Site>  (227) 
nan

>  <Peripheral>  (227) 
nan

>  <Num_H_Atoms_ProtBoundConf>  (227) 
nan

>  <Num_Resolved_Atoms>  (227) 
nan

>  <Num_Not_Resolved_Atoms>  (227) 
nan

$$$$
CHEMBL3654803
     RDKit          3D

  0  0  0  0  0  0  0  0  0  0999 V3000
M  V30 BEGIN CTAB
M  V30 COUNTS 54 57 0 0 0
M  V30 BEGIN ATOM
M  V30 1 C -1.643563 1.530734 0.477491 0
M  V30 2 C -0.953494 0.639278 -0.532886 0
M  V30 3 C -0.902254 -0.730187 0.041016 0
M  V30 4 C -0.012507 -1.116305 1.040210 0
M  V30 5 N 0.881453 -0.119835 1.514102 0
M  V30 6 C 2.171628 0.272243 1.117784 0
M  V30 7 O 2.580768 -0.405203 0.167157 0
M  V30 8 N 2.739135 1.334311 1.858470 0
M  V30 9 C 4.077118 1.794629 1.504302 0 CFG=2
M  V30 10 C 5.015672 1.710540 2.662521 0
M  V30 11 C 3.933064 3.187007 1.002094 0
M  V30 12 C 4.730424 4.272425 1.338137 0
M  V30 13 C 4.444024 5.495977 0.768130 0
M  V30 14 C 3.394066 5.635338 -0.111139 0
M  V30 15 C 2.589894 4.571173 -0.458537 0
M  V30 16 C 2.878621 3.344284 0.114226 0
M  V30 17 N 0.035261 -2.342567 1.556511 0
M  V30 18 C -0.790941 -3.333516 1.146673 0
M  V30 19 C -1.682105 -3.012433 0.171248 0
M  V30 20 C -2.665344 -3.708273 -0.500504 0
M  V30 21 C -3.047723 -5.105515 -0.327097 0
M  V30 22 C -2.214485 -6.200703 -0.223712 0
M  V30 23 C -2.794923 -7.443142 -0.061313 0
M  V30 24 N -4.121087 -7.617157 -0.001749 0
M  V30 25 C -4.993186 -6.577485 -0.097492 0
M  V30 26 C -6.468141 -6.759657 -0.031929 0
M  V30 27 C -4.421275 -5.335808 -0.259545 0
M  V30 28 N -3.261674 -2.867230 -1.392873 0
M  V30 29 N -2.712324 -1.681336 -1.323594 0
M  V30 30 C -1.750178 -1.749592 -0.378586 0
M  V30 31 H -1.089664 2.498837 0.581077 0
M  V30 32 H -2.689688 1.716857 0.110909 0
M  V30 33 H -1.781526 1.009639 1.445112 0
M  V30 34 H 0.069464 0.991347 -0.785581 0
M  V30 35 H -1.576446 0.550321 -1.464035 0
M  V30 36 H 0.361781 0.329245 2.298598 0
M  V30 37 H 2.255971 1.798518 2.634580 0
M  V30 38 H 4.508897 1.216084 0.661455 0
M  V30 39 H 5.060473 0.643794 2.976731 0
M  V30 40 H 6.013971 1.992256 2.315217 0
M  V30 41 H 4.673352 2.266774 3.553589 0
M  V30 42 H 5.497385 3.979975 2.033735 0
M  V30 43 H 5.112342 6.283158 1.083860 0
M  V30 44 H 3.208535 6.616756 -0.533269 0
M  V30 45 H 1.771669 4.698584 -1.149115 0
M  V30 46 H 2.217713 2.542855 -0.191535 0
M  V30 47 H -0.783274 -4.338987 1.539849 0
M  V30 48 H -1.159146 -5.973477 -0.281478 0
M  V30 49 H -2.088956 -8.264870 0.013871 0
M  V30 50 H -6.840865 -6.562909 1.006007 0
M  V30 51 H -6.996776 -6.007551 -0.666450 0
M  V30 52 H -6.728462 -7.789492 -0.292824 0
M  V30 53 H -5.138056 -4.517961 -0.333996 0
M  V30 54 H -3.023661 -0.885202 -1.926724 0
M  V30 END ATOM
M  V30 BEGIN BOND
M  V30 1 1 1 2
M  V30 2 1 2 3
M  V30 3 2 3 4
M  V30 4 1 4 5
M  V30 5 1 5 6
M  V30 6 2 6 7
M  V30 7 1 6 8
M  V30 8 1 8 9
M  V30 9 1 9 10
M  V30 10 1 9 11
M  V30 11 2 11 12
M  V30 12 1 12 13
M  V30 13 2 13 14
M  V30 14 1 14 15
M  V30 15 2 15 16
M  V30 16 1 4 17
M  V30 17 2 17 18
M  V30 18 1 18 19
M  V30 19 1 19 20
M  V30 20 1 20 21
M  V30 21 2 21 22
M  V30 22 1 22 23
M  V30 23 2 23 24
M  V30 24 1 24 25
M  V30 25 1 25 26
M  V30 26 2 25 27
M  V30 27 2 20 28
M  V30 28 1 28 29
M  V30 29 1 29 30
M  V30 30 1 30 3
M  V30 31 1 16 11
M  V30 32 2 30 19
M  V30 33 1 27 21
M  V30 34 1 1 31
M  V30 35 1 1 32
M  V30 36 1 1 33
M  V30 37 1 2 34
M  V30 38 1 2 35
M  V30 39 1 5 36
M  V30 40 1 8 37
M  V30 41 1 9 38 CFG=3
M  V30 42 1 10 39
M  V30 43 1 10 40
M  V30 44 1 10 41
M  V30 45 1 12 42
M  V30 46 1 13 43
M  V30 47 1 14 44
M  V30 48 1 15 45
M  V30 49 1 16 46
M  V30 50 1 18 47
M  V30 51 1 22 48
M  V30 52 1 23 49
M  V30 53 1 26 50
M  V30 54 1 26 51
M  V30 55 1 26 52
M  V30 56 1 27 53
M  V30 57 1 29 54
M  V30 END BOND
M  V30 END CTAB
M  END
>  <Dataset>  (228) 
ChEMBL_Kinases

>  <Ligand_Instance>  (228) 
nan

>  <PDB_ID>  (228) 
nan

>  <Standardized_SMILES>  (228) 
CCc1c(NC(=O)N[C@H](C)c2ccccc2)ncc2c(-c3ccnc(C)c3)n[nH]c12

>  <Name>  (228) 
nan

>  <Pocket>  (228) 
nan

>  <ATP_Site>  (228) 
nan

>  <Peripheral>  (228) 
nan

>  <Num_H_Atoms_ProtBoundConf>  (228) 
nan

>  <Num_Resolved_Atoms>  (228) 
nan

>  <Num_Not_Resolved_Atoms>  (228) 
nan

$$$$
CHEMBL3654804
     RDKit          3D

  0  0  0  0  0  0  0  0  0  0999 V3000
M  V30 BEGIN CTAB
M  V30 COUNTS 47 50 0 0 0
M  V30 BEGIN ATOM
M  V30 1 C -2.720689 -6.108661 -1.649633 0
M  V30 2 C -3.792122 -5.130363 -1.247908 0
M  V30 3 C -3.407547 -3.818228 -1.065865 0
M  V30 4 C -4.357306 -2.873803 -0.694649 0
M  V30 5 C -4.011102 -1.470605 -0.487200 0
M  V30 6 N -4.672115 -0.364117 -0.923937 0
M  V30 7 N -4.051143 0.739953 -0.536590 0
M  V30 8 C -2.957120 0.406368 0.170218 0
M  V30 9 C -2.011028 1.214090 0.769716 0
M  V30 10 C -0.993265 0.584945 1.430665 0
M  V30 11 N 0.092250 1.193285 2.121918 0
M  V30 12 C 1.263917 1.445665 1.331657 0
M  V30 13 O 1.385645 1.176723 0.127767 0
M  V30 14 N 2.358269 2.051721 2.001016 0
M  V30 15 C 3.628001 2.393539 1.404230 0 CFG=1
M  V30 16 C 3.853147 3.889819 1.474781 0
M  V30 17 C 4.767299 1.749800 2.088502 0
M  V30 18 C 5.985156 2.312738 2.471725 0
M  V30 19 C 6.924736 1.527294 3.106817 0
M  V30 20 C 6.710777 0.205028 3.379936 0
M  V30 21 C 5.484502 -0.334160 2.986375 0
M  V30 22 N 4.573748 0.441357 2.366820 0
M  V30 23 N -0.951801 -0.768717 1.471805 0
M  V30 24 C -1.876043 -1.557242 0.886145 0
M  V30 25 C -2.925142 -0.972966 0.205531 0
M  V30 26 C -5.671650 -3.266869 -0.514357 0
M  V30 27 C -5.996413 -4.598663 -0.711965 0
M  V30 28 N -5.072798 -5.530189 -1.075532 0
M  V30 29 H -2.450913 -5.950277 -2.724539 0
M  V30 30 H -3.093894 -7.139759 -1.529917 0
M  V30 31 H -1.802609 -5.981792 -1.042265 0
M  V30 32 H -2.374949 -3.531177 -1.211798 0
M  V30 33 H -4.388595 1.721878 -0.764011 0
M  V30 34 H -1.991432 2.272395 0.770988 0
M  V30 35 H -0.001328 1.425751 3.145188 0
M  V30 36 H 2.287535 2.293197 3.024365 0
M  V30 37 H 3.632849 2.113640 0.334398 0
M  V30 38 H 4.035764 4.194683 2.532330 0
M  V30 39 H 4.744413 4.159659 0.871019 0
M  V30 40 H 3.016904 4.473574 1.033805 0
M  V30 41 H 6.059278 3.362802 2.212362 0
M  V30 42 H 7.846261 2.034833 3.374086 0
M  V30 43 H 7.477814 -0.353581 3.875421 0
M  V30 44 H 5.319345 -1.380873 3.204433 0
M  V30 45 H -1.809290 -2.633197 0.940601 0
M  V30 46 H -6.452383 -2.597013 -0.230079 0
M  V30 47 H -7.024845 -4.966753 -0.582778 0
M  V30 END ATOM
M  V30 BEGIN BOND
M  V30 1 1 1 2
M  V30 2 2 2 3
M  V30 3 1 3 4
M  V30 4 1 4 5
M  V30 5 2 5 6
M  V30 6 1 6 7
M  V30 7 1 7 8
M  V30 8 2 8 9
M  V30 9 1 9 10
M  V30 10 1 10 11
M  V30 11 1 11 12
M  V30 12 2 12 13
M  V30 13 1 12 14
M  V30 14 1 14 15
M  V30 15 1 15 16
M  V30 16 1 15 17
M  V30 17 2 17 18
M  V30 18 1 18 19
M  V30 19 2 19 20
M  V30 20 1 20 21
M  V30 21 2 21 22
M  V30 22 2 10 23
M  V30 23 1 23 24
M  V30 24 2 24 25
M  V30 25 2 4 26
M  V30 26 1 26 27
M  V30 27 2 27 28
M  V30 28 1 28 2
M  V30 29 1 25 5
M  V30 30 1 25 8
M  V30 31 1 22 17
M  V30 32 1 1 29
M  V30 33 1 1 30
M  V30 34 1 1 31
M  V30 35 1 3 32
M  V30 36 1 7 33
M  V30 37 1 9 34
M  V30 38 1 11 35
M  V30 39 1 14 36
M  V30 40 1 15 37 CFG=3
M  V30 41 1 16 38
M  V30 42 1 16 39
M  V30 43 1 16 40
M  V30 44 1 18 41
M  V30 45 1 19 42
M  V30 46 1 20 43
M  V30 47 1 21 44
M  V30 48 1 24 45
M  V30 49 1 26 46
M  V30 50 1 27 47
M  V30 END BOND
M  V30 END CTAB
M  END
>  <Dataset>  (229) 
ChEMBL_Kinases

>  <Ligand_Instance>  (229) 
nan

>  <PDB_ID>  (229) 
nan

>  <Standardized_SMILES>  (229) 
Cc1cc(-c2n[nH]c3cc(NC(=O)N[C@@H](C)c4ccccn4)ncc23)ccn1

>  <Name>  (229) 
nan

>  <Pocket>  (229) 
nan

>  <ATP_Site>  (229) 
nan

>  <Peripheral>  (229) 
nan

>  <Num_H_Atoms_ProtBoundConf>  (229) 
nan

>  <Num_Resolved_Atoms>  (229) 
nan

>  <Num_Not_Resolved_Atoms>  (229) 
nan

$$$$
CHEMBL3654805
     RDKit          3D

  0  0  0  0  0  0  0  0  0  0999 V3000
M  V30 BEGIN CTAB
M  V30 COUNTS 47 50 0 0 0
M  V30 BEGIN ATOM
M  V30 1 C -6.148726 -5.528988 -1.532946 0
M  V30 2 C -4.747241 -5.254072 -1.878633 0
M  V30 3 C -3.847087 -4.703710 -0.997914 0
M  V30 4 C -2.526542 -4.434287 -1.285448 0
M  V30 5 C -1.733270 -3.848329 -0.208768 0
M  V30 6 N -1.721940 -4.237652 1.096988 0
M  V30 7 N -0.891097 -3.500051 1.808959 0
M  V30 8 C -0.331483 -2.600634 0.984702 0
M  V30 9 C 0.598857 -1.591035 1.190164 0
M  V30 10 C 1.008404 -0.789873 0.124380 0
M  V30 11 N 1.965691 0.191630 0.505920 0
M  V30 12 C 1.567589 1.489038 0.941928 0
M  V30 13 O 0.349727 1.739194 0.970563 0
M  V30 14 N 2.645476 2.340559 1.294706 0
M  V30 15 C 2.327355 3.680409 1.751985 0 CFG=2
M  V30 16 C 3.064091 4.647492 0.863997 0
M  V30 17 C 2.835153 3.871047 3.152675 0
M  V30 18 C 3.551212 4.920159 3.707892 0
M  V30 19 C 3.880198 4.823660 5.047434 0
M  V30 20 C 3.513710 3.731917 5.801554 0
M  V30 21 C 2.796610 2.706302 5.195833 0
M  V30 22 N 2.481616 2.809038 3.895845 0
M  V30 23 N 0.481827 -1.016510 -1.102909 0
M  V30 24 C -0.419929 -1.987825 -1.325944 0
M  V30 25 C -0.837408 -2.790900 -0.287911 0
M  V30 26 C -2.077951 -4.735042 -2.534224 0
M  V30 27 C -2.979838 -5.295173 -3.442582 0
M  V30 28 N -4.257699 -5.531414 -3.093863 0
M  V30 29 H -6.416178 -6.574720 -1.811084 0
M  V30 30 H -6.318162 -5.421027 -0.430053 0
M  V30 31 H -6.870154 -4.868069 -2.040123 0
M  V30 32 H -4.243955 -4.475201 0.000666 0
M  V30 33 H -0.727525 -3.632727 2.850008 0
M  V30 34 H 0.959812 -1.490611 2.204307 0
M  V30 35 H 2.984691 -0.099365 0.451135 0
M  V30 36 H 3.635094 2.061662 1.245356 0
M  V30 37 H 1.242250 3.889421 1.697660 0
M  V30 38 H 2.749829 4.500420 -0.213285 0
M  V30 39 H 4.156293 4.490316 0.839011 0
M  V30 40 H 2.808595 5.699418 1.140754 0
M  V30 41 H 3.751901 5.688106 2.978269 0
M  V30 42 H 4.443000 5.710272 5.375827 0
M  V30 43 H 3.839779 3.787963 6.836580 0
M  V30 44 H 2.537542 1.872139 5.844239 0
M  V30 45 H -0.815150 -2.133920 -2.320860 0
M  V30 46 H -1.058049 -4.528586 -2.759592 0
M  V30 47 H -2.616833 -5.524711 -4.411602 0
M  V30 END ATOM
M  V30 BEGIN BOND
M  V30 1 1 1 2
M  V30 2 2 2 3
M  V30 3 1 3 4
M  V30 4 1 4 5
M  V30 5 2 5 6
M  V30 6 1 6 7
M  V30 7 1 7 8
M  V30 8 2 8 9
M  V30 9 1 9 10
M  V30 10 1 10 11
M  V30 11 1 11 12
M  V30 12 2 12 13
M  V30 13 1 12 14
M  V30 14 1 14 15
M  V30 15 1 15 16
M  V30 16 1 15 17
M  V30 17 2 17 18
M  V30 18 1 18 19
M  V30 19 2 19 20
M  V30 20 1 20 21
M  V30 21 2 21 22
M  V30 22 2 10 23
M  V30 23 1 23 24
M  V30 24 2 24 25
M  V30 25 2 4 26
M  V30 26 1 26 27
M  V30 27 2 27 28
M  V30 28 1 28 2
M  V30 29 1 25 5
M  V30 30 1 25 8
M  V30 31 1 22 17
M  V30 32 1 1 29
M  V30 33 1 1 30
M  V30 34 1 1 31
M  V30 35 1 3 32
M  V30 36 1 7 33
M  V30 37 1 9 34
M  V30 38 1 11 35
M  V30 39 1 14 36
M  V30 40 1 15 37 CFG=1
M  V30 41 1 16 38
M  V30 42 1 16 39
M  V30 43 1 16 40
M  V30 44 1 18 41
M  V30 45 1 19 42
M  V30 46 1 20 43
M  V30 47 1 21 44
M  V30 48 1 24 45
M  V30 49 1 26 46
M  V30 50 1 27 47
M  V30 END BOND
M  V30 END CTAB
M  END
>  <Dataset>  (230) 
ChEMBL_Kinases

>  <Ligand_Instance>  (230) 
nan

>  <PDB_ID>  (230) 
nan

>  <Standardized_SMILES>  (230) 
Cc1cc(-c2n[nH]c3cc(NC(=O)N[C@H](C)c4ccccn4)ncc23)ccn1

>  <Name>  (230) 
nan

>  <Pocket>  (230) 
nan

>  <ATP_Site>  (230) 
nan

>  <Peripheral>  (230) 
nan

>  <Num_H_Atoms_ProtBoundConf>  (230) 
nan

>  <Num_Resolved_Atoms>  (230) 
nan

>  <Num_Not_Resolved_Atoms>  (230) 
nan

$$$$
CHEMBL3654806
     RDKit          3D

  0  0  0  0  0  0  0  0  0  0999 V3000
M  V30 BEGIN CTAB
M  V30 COUNTS 60 64 0 0 0
M  V30 BEGIN ATOM
M  V30 1 C 0.260713 -3.955682 7.721529 0
M  V30 2 C 0.661883 -2.537772 7.874034 0
M  V30 3 C 1.154636 -1.834330 6.766084 0
M  V30 4 C 1.541711 -0.501773 6.890418 0
M  V30 5 C 2.039819 0.137231 5.676657 0
M  V30 6 N 3.159468 0.875065 5.640632 0
M  V30 7 N 3.389364 1.337663 4.433470 0
M  V30 8 C 2.374178 0.871698 3.684658 0
M  V30 9 C 2.067634 1.023376 2.324015 0
M  V30 10 C 0.924041 0.421342 1.775308 0
M  V30 11 N 0.667205 0.606357 0.369001 0
M  V30 12 C -0.507682 0.002684 -0.171579 0
M  V30 13 O -1.327888 -0.666913 0.489879 0
M  V30 14 N -0.695037 0.212259 -1.543290 0
M  V30 15 C -1.728581 -0.217151 -2.452769 0 CFG=1
M  V30 16 C -2.568062 1.071370 -2.691779 0
M  V30 17 N -3.241830 0.863292 -3.940038 0
M  V30 18 C -3.013188 1.956510 -4.853712 0
M  V30 19 C -2.763982 -0.380912 -4.511196 0
M  V30 20 C -1.394384 -0.494520 -3.823147 0 CFG=2
M  V30 21 C -0.528841 -1.494578 -4.330866 0
M  V30 22 C 0.353624 -1.195949 -5.389832 0
M  V30 23 C 1.234439 -2.024115 -6.000859 0
M  V30 24 C 1.293590 -3.313242 -5.553248 0
M  V30 25 C 0.466941 -3.693700 -4.522442 0
M  V30 26 C -0.445283 -2.825798 -3.892842 0
M  V30 27 C -1.278690 -3.291352 -2.793225 0
M  V30 28 F -0.989463 -4.674208 -2.644841 0
M  V30 29 F -0.852507 -2.859594 -1.546531 0
M  V30 30 F -2.617138 -3.323264 -2.973129 0
M  V30 31 N 0.111398 -0.308456 2.558143 0
M  V30 32 C 0.338959 -0.499700 3.870650 0
M  V30 33 C 1.454468 0.086306 4.406406 0
M  V30 34 C 1.443168 0.148420 8.120289 0
M  V30 35 C 0.949395 -0.616895 9.153474 0
M  V30 36 N 0.570335 -1.904162 9.053773 0
M  V30 37 H 0.968843 -4.663139 8.205730 0
M  V30 38 H 0.320738 -4.234137 6.626890 0
M  V30 39 H -0.802532 -4.145892 7.979820 0
M  V30 40 H 1.212779 -2.390933 5.839185 0
M  V30 41 H 4.135000 1.932393 4.008076 0
M  V30 42 H 2.685784 1.599870 1.649346 0
M  V30 43 H 1.327132 1.156084 -0.200301 0
M  V30 44 H -0.017393 0.777818 -2.141429 0
M  V30 45 H -2.506595 -0.830872 -1.941725 0
M  V30 46 H -3.224727 1.283568 -1.827550 0
M  V30 47 H -1.858139 1.925741 -2.729141 0
M  V30 48 H -3.601802 1.784815 -5.777979 0
M  V30 49 H -1.947512 2.010700 -5.188512 0
M  V30 50 H -3.260957 2.931624 -4.419052 0
M  V30 51 H -3.476307 -1.137865 -4.246683 0
M  V30 52 H -2.587266 -0.250090 -5.594500 0
M  V30 53 H -0.988983 0.510559 -4.202635 0
M  V30 54 H 0.347442 -0.166595 -5.792349 0
M  V30 55 H 1.868626 -1.698569 -6.808976 0
M  V30 56 H 1.965858 -4.045923 -5.974313 0
M  V30 57 H 0.537774 -4.740312 -4.181578 0
M  V30 58 H -0.290735 -1.078006 4.531035 0
M  V30 59 H 1.747360 1.171099 8.183581 0
M  V30 60 H 0.897870 -0.046411 10.094833 0
M  V30 END ATOM
M  V30 BEGIN BOND
M  V30 1 1 1 2
M  V30 2 2 2 3
M  V30 3 1 3 4
M  V30 4 1 4 5
M  V30 5 2 5 6
M  V30 6 1 6 7
M  V30 7 1 7 8
M  V30 8 2 8 9
M  V30 9 1 9 10
M  V30 10 1 10 11
M  V30 11 1 11 12
M  V30 12 2 12 13
M  V30 13 1 12 14
M  V30 14 1 14 15
M  V30 15 1 15 16
M  V30 16 1 16 17
M  V30 17 1 17 18
M  V30 18 1 17 19
M  V30 19 1 19 20
M  V30 20 1 20 21
M  V30 21 2 21 22
M  V30 22 1 22 23
M  V30 23 2 23 24
M  V30 24 1 24 25
M  V30 25 2 25 26
M  V30 26 1 26 27
M  V30 27 1 27 28
M  V30 28 1 27 29
M  V30 29 1 27 30
M  V30 30 2 10 31
M  V30 31 1 31 32
M  V30 32 2 32 33
M  V30 33 2 4 34
M  V30 34 1 34 35
M  V30 35 2 35 36
M  V30 36 1 36 2
M  V30 37 1 33 5
M  V30 38 1 33 8
M  V30 39 1 20 15
M  V30 40 1 26 21
M  V30 41 1 1 37
M  V30 42 1 1 38
M  V30 43 1 1 39
M  V30 44 1 3 40
M  V30 45 1 7 41
M  V30 46 1 9 42
M  V30 47 1 11 43
M  V30 48 1 14 44
M  V30 49 1 15 45 CFG=1
M  V30 50 1 16 46
M  V30 51 1 16 47
M  V30 52 1 18 48
M  V30 53 1 18 49
M  V30 54 1 18 50
M  V30 55 1 19 51
M  V30 56 1 19 52
M  V30 57 1 20 53 CFG=3
M  V30 58 1 22 54
M  V30 59 1 23 55
M  V30 60 1 24 56
M  V30 61 1 25 57
M  V30 62 1 32 58
M  V30 63 1 34 59
M  V30 64 1 35 60
M  V30 END BOND
M  V30 END CTAB
M  END
>  <Dataset>  (231) 
ChEMBL_Kinases

>  <Ligand_Instance>  (231) 
nan

>  <PDB_ID>  (231) 
nan

>  <Standardized_SMILES>  (231) 
Cc1cc(-c2n[nH]c3cc(NC(=O)N[C@H]4CN(C)C[C@@H]4c4ccccc4C(F)(F)F)ncc23)ccn1

>  <Name>  (231) 
nan

>  <Pocket>  (231) 
nan

>  <ATP_Site>  (231) 
nan

>  <Peripheral>  (231) 
nan

>  <Num_H_Atoms_ProtBoundConf>  (231) 
nan

>  <Num_Resolved_Atoms>  (231) 
nan

>  <Num_Not_Resolved_Atoms>  (231) 
nan

$$$$
CHEMBL3654807
     RDKit          3D

  0  0  0  0  0  0  0  0  0  0999 V3000
M  V30 BEGIN CTAB
M  V30 COUNTS 56 60 0 0 0
M  V30 BEGIN ATOM
M  V30 1 C 8.973898 -4.402200 2.688394 0
M  V30 2 C 7.768758 -4.330584 1.820516 0
M  V30 3 C 6.574567 -3.870434 2.353063 0
M  V30 4 C 5.384971 -3.762484 1.635725 0
M  V30 5 C 4.158432 -3.270243 2.251824 0
M  V30 6 N 3.644629 -3.609647 3.451371 0
M  V30 7 N 2.507158 -2.959517 3.688323 0
M  V30 8 C 2.236321 -2.153461 2.620879 0
M  V30 9 C 1.191200 -1.267077 2.336999 0
M  V30 10 C 1.218861 -0.583656 1.123141 0
M  V30 11 N 0.096666 0.277773 0.974272 0
M  V30 12 C -1.158186 -0.065042 0.396828 0
M  V30 13 O -1.274635 -1.249118 -0.015333 0
M  V30 14 N -2.092405 0.979203 0.370665 0
M  V30 15 C -3.442242 0.799059 -0.203809 0 CFG=1
M  V30 16 C -4.392634 0.988208 0.945145 0
M  V30 17 N -4.557567 2.405231 1.017282 0
M  V30 18 C -5.680303 2.847835 1.778698 0
M  V30 19 C -4.466860 2.912947 -0.315212 0
M  V30 20 C -3.769571 1.914479 -1.153054 0 CFG=2
M  V30 21 C -4.571757 1.335036 -2.263746 0
M  V30 22 C -5.831288 0.786800 -2.235566 0
M  V30 23 C -6.477272 0.275653 -3.336176 0
M  V30 24 C -5.836380 0.301952 -4.576591 0
M  V30 25 F -6.484768 -0.203200 -5.653189 0
M  V30 26 N -4.586380 0.834470 -4.661336 0
M  V30 27 C -3.995072 1.324753 -3.544812 0
M  V30 28 N 2.236486 -0.776129 0.241269 0
M  V30 29 C 3.244349 -1.636350 0.523535 0
M  V30 30 C 3.280293 -2.346900 1.707776 0
M  V30 31 C 5.422846 -4.148634 0.300567 0
M  V30 32 C 6.615979 -4.604843 -0.217927 0
M  V30 33 N 7.737737 -4.689586 0.516206 0
M  V30 34 H 8.728681 -4.745427 3.721313 0
M  V30 35 H 9.491246 -3.411456 2.757797 0
M  V30 36 H 9.675712 -5.117180 2.228967 0
M  V30 37 H 6.565712 -3.576458 3.391728 0
M  V30 38 H 1.901201 -3.032164 4.538856 0
M  V30 39 H 0.431888 -1.177121 3.086829 0
M  V30 40 H 0.428390 1.184054 1.380200 0
M  V30 41 H -1.919814 1.920660 0.735687 0
M  V30 42 H -3.525634 -0.214731 -0.652336 0
M  V30 43 H -3.867500 0.695988 1.905627 0
M  V30 44 H -5.334060 0.405764 0.853237 0
M  V30 45 H -6.358285 2.067149 2.145408 0
M  V30 46 H -6.289952 3.612567 1.217349 0
M  V30 47 H -5.301125 3.383241 2.674647 0
M  V30 48 H -3.827480 3.837468 -0.246385 0
M  V30 49 H -5.426373 3.279341 -0.724014 0
M  V30 50 H -2.821784 2.373202 -1.568164 0
M  V30 51 H -6.305388 0.782298 -1.266472 0
M  V30 52 H -7.456408 -0.122637 -3.170824 0
M  V30 53 H -3.000764 1.737367 -3.665710 0
M  V30 54 H 4.032197 -1.755641 -0.206859 0
M  V30 55 H 4.530771 -4.094926 -0.323301 0
M  V30 56 H 6.596443 -4.891518 -1.256459 0
M  V30 END ATOM
M  V30 BEGIN BOND
M  V30 1 1 1 2
M  V30 2 2 2 3
M  V30 3 1 3 4
M  V30 4 1 4 5
M  V30 5 2 5 6
M  V30 6 1 6 7
M  V30 7 1 7 8
M  V30 8 2 8 9
M  V30 9 1 9 10
M  V30 10 1 10 11
M  V30 11 1 11 12
M  V30 12 2 12 13
M  V30 13 1 12 14
M  V30 14 1 14 15
M  V30 15 1 15 16
M  V30 16 1 16 17
M  V30 17 1 17 18
M  V30 18 1 17 19
M  V30 19 1 19 20
M  V30 20 1 20 21
M  V30 21 2 21 22
M  V30 22 1 22 23
M  V30 23 2 23 24
M  V30 24 1 24 25
M  V30 25 1 24 26
M  V30 26 2 26 27
M  V30 27 2 10 28
M  V30 28 1 28 29
M  V30 29 2 29 30
M  V30 30 2 4 31
M  V30 31 1 31 32
M  V30 32 2 32 33
M  V30 33 1 33 2
M  V30 34 1 30 5
M  V30 35 1 30 8
M  V30 36 1 20 15
M  V30 37 1 27 21
M  V30 38 1 1 34
M  V30 39 1 1 35
M  V30 40 1 1 36
M  V30 41 1 3 37
M  V30 42 1 7 38
M  V30 43 1 9 39
M  V30 44 1 11 40
M  V30 45 1 14 41
M  V30 46 1 15 42 CFG=3
M  V30 47 1 16 43
M  V30 48 1 16 44
M  V30 49 1 18 45
M  V30 50 1 18 46
M  V30 51 1 18 47
M  V30 52 1 19 48
M  V30 53 1 19 49
M  V30 54 1 20 50 CFG=3
M  V30 55 1 22 51
M  V30 56 1 23 52
M  V30 57 1 27 53
M  V30 58 1 29 54
M  V30 59 1 31 55
M  V30 60 1 32 56
M  V30 END BOND
M  V30 END CTAB
M  END
>  <Dataset>  (232) 
ChEMBL_Kinases

>  <Ligand_Instance>  (232) 
nan

>  <PDB_ID>  (232) 
nan

>  <Standardized_SMILES>  (232) 
Cc1cc(-c2n[nH]c3cc(NC(=O)N[C@H]4CN(C)C[C@@H]4c4ccc(F)nc4)ncc23)ccn1

>  <Name>  (232) 
nan

>  <Pocket>  (232) 
nan

>  <ATP_Site>  (232) 
nan

>  <Peripheral>  (232) 
nan

>  <Num_H_Atoms_ProtBoundConf>  (232) 
nan

>  <Num_Resolved_Atoms>  (232) 
nan

>  <Num_Not_Resolved_Atoms>  (232) 
nan

$$$$
CHEMBL3654808
     RDKit          3D

  0  0  0  0  0  0  0  0  0  0999 V3000
M  V30 BEGIN CTAB
M  V30 COUNTS 54 58 0 0 0
M  V30 BEGIN ATOM
M  V30 1 C 8.630449 -2.840349 1.270254 0
M  V30 2 C 7.257172 -3.395943 1.162237 0
M  V30 3 C 6.333810 -2.792306 0.348202 0
M  V30 4 C 5.078087 -3.368442 0.301474 0
M  V30 5 C 3.987672 -2.849387 -0.517269 0
M  V30 6 N 4.031918 -2.452182 -1.817164 0
M  V30 7 N 2.829905 -2.031761 -2.215958 0
M  V30 8 C 1.988536 -2.151980 -1.174441 0
M  V30 9 C 0.646964 -1.838449 -1.118075 0
M  V30 10 C -0.008471 -2.050684 0.079720 0
M  V30 11 N -1.381764 -1.818671 0.434140 0
M  V30 12 C -1.719936 -0.524174 0.979120 0
M  V30 13 O -0.793926 0.313189 1.102002 0
M  V30 14 N -3.020302 -0.121199 1.388615 0
M  V30 15 C -3.194326 1.194849 1.904916 0 CFG=2
M  V30 16 C -3.619633 1.145517 3.389547 0
M  V30 17 N -5.047446 0.909177 3.310173 0
M  V30 18 C -5.536214 1.614704 2.153103 0
M  V30 19 C -4.317717 2.006211 1.352346 0 CFG=2
M  V30 20 C -4.474273 2.042358 -0.085329 0
M  V30 21 C -4.244226 3.241023 -0.774787 0
M  V30 22 C -4.362007 3.413130 -2.143811 0
M  V30 23 C -4.733956 2.332306 -2.912135 0
M  V30 24 C -4.976541 1.119712 -2.306016 0
M  V30 25 C -4.841154 1.022157 -0.946586 0
M  V30 26 N 0.674778 -2.551633 1.143736 0
M  V30 27 C 1.988010 -2.854074 1.073676 0
M  V30 28 C 2.685396 -2.660829 -0.098159 0
M  V30 29 C 4.862799 -4.494028 1.072446 0
M  V30 30 C 5.843716 -5.068882 1.886899 0
M  V30 31 N 7.080572 -4.496555 1.929316 0
M  V30 32 H 9.345708 -3.596004 0.856450 0
M  V30 33 H 8.864961 -2.632224 2.344737 0
M  V30 34 H 8.709896 -1.902081 0.673567 0
M  V30 35 H 6.545279 -1.914471 -0.234474 0
M  V30 36 H 2.596960 -1.671535 -3.183753 0
M  V30 37 H 0.015288 -1.446260 -1.873367 0
M  V30 38 H -2.202111 -2.490325 0.349709 0
M  V30 39 H -3.754301 -0.854480 1.274952 0
M  V30 40 H -2.250775 1.742815 1.908400 0
M  V30 41 H -3.373961 2.088584 3.896391 0
M  V30 42 H -3.106819 0.292613 3.897078 0
M  V30 43 H -5.473460 1.220156 4.218614 0
M  V30 44 H -6.111218 2.492104 2.538399 0
M  V30 45 H -6.264929 1.029642 1.555385 0
M  V30 46 H -4.108945 3.073821 1.671505 0
M  V30 47 H -3.943474 4.156299 -0.238119 0
M  V30 48 H -4.168859 4.370888 -2.607318 0
M  V30 49 H -4.829310 2.453505 -3.981169 0
M  V30 50 H -5.269930 0.241159 -2.869030 0
M  V30 51 H -5.041130 0.062786 -0.487388 0
M  V30 52 H 2.519736 -3.257996 1.946060 0
M  V30 53 H 3.914194 -5.014489 1.099860 0
M  V30 54 H 5.630267 -5.960763 2.480016 0
M  V30 END ATOM
M  V30 BEGIN BOND
M  V30 1 1 1 2
M  V30 2 2 2 3
M  V30 3 1 3 4
M  V30 4 1 4 5
M  V30 5 2 5 6
M  V30 6 1 6 7
M  V30 7 1 7 8
M  V30 8 2 8 9
M  V30 9 1 9 10
M  V30 10 1 10 11
M  V30 11 1 11 12
M  V30 12 2 12 13
M  V30 13 1 12 14
M  V30 14 1 14 15
M  V30 15 1 15 16
M  V30 16 1 16 17
M  V30 17 1 17 18
M  V30 18 1 18 19
M  V30 19 1 19 20
M  V30 20 2 20 21
M  V30 21 1 21 22
M  V30 22 2 22 23
M  V30 23 1 23 24
M  V30 24 2 24 25
M  V30 25 2 10 26
M  V30 26 1 26 27
M  V30 27 2 27 28
M  V30 28 2 4 29
M  V30 29 1 29 30
M  V30 30 2 30 31
M  V30 31 1 31 2
M  V30 32 1 28 5
M  V30 33 1 28 8
M  V30 34 1 19 15
M  V30 35 1 25 20
M  V30 36 1 1 32
M  V30 37 1 1 33
M  V30 38 1 1 34
M  V30 39 1 3 35
M  V30 40 1 7 36
M  V30 41 1 9 37
M  V30 42 1 11 38
M  V30 43 1 14 39
M  V30 44 1 15 40 CFG=1
M  V30 45 1 16 41
M  V30 46 1 16 42
M  V30 47 1 17 43
M  V30 48 1 18 44
M  V30 49 1 18 45
M  V30 50 1 19 46 CFG=1
M  V30 51 1 21 47
M  V30 52 1 22 48
M  V30 53 1 23 49
M  V30 54 1 24 50
M  V30 55 1 25 51
M  V30 56 1 27 52
M  V30 57 1 29 53
M  V30 58 1 30 54
M  V30 END BOND
M  V30 END CTAB
M  END
>  <Dataset>  (233) 
ChEMBL_Kinases

>  <Ligand_Instance>  (233) 
nan

>  <PDB_ID>  (233) 
nan

>  <Standardized_SMILES>  (233) 
Cc1cc(-c2n[nH]c3cc(NC(=O)N[C@@H]4CNC[C@@H]4c4ccccc4)ncc23)ccn1

>  <Name>  (233) 
nan

>  <Pocket>  (233) 
nan

>  <ATP_Site>  (233) 
nan

>  <Peripheral>  (233) 
nan

>  <Num_H_Atoms_ProtBoundConf>  (233) 
nan

>  <Num_Resolved_Atoms>  (233) 
nan

>  <Num_Not_Resolved_Atoms>  (233) 
nan

$$$$
CHEMBL3654809
     RDKit          3D

  0  0  0  0  0  0  0  0  0  0999 V3000
M  V30 BEGIN CTAB
M  V30 COUNTS 57 61 0 0 0
M  V30 BEGIN ATOM
M  V30 1 C 2.294312 -2.739265 -7.093398 0
M  V30 2 C 3.389203 -2.517018 -6.129262 0
M  V30 3 C 3.151309 -1.940651 -4.897821 0
M  V30 4 C 4.268308 -1.793547 -4.098329 0
M  V30 5 C 4.162114 -1.200756 -2.774851 0
M  V30 6 N 5.003062 -0.259401 -2.256400 0
M  V30 7 N 4.623964 0.055169 -1.047937 0
M  V30 8 C 3.529132 -0.637599 -0.683073 0
M  V30 9 C 2.691821 -0.739923 0.430334 0
M  V30 10 C 1.612716 -1.602995 0.438179 0
M  V30 11 N 0.924835 -1.514333 1.689885 0
M  V30 12 C -0.122683 -0.556947 1.783560 0
M  V30 13 O -0.418622 0.172439 0.798410 0
M  V30 14 N -0.779818 -0.502865 3.047046 0
M  V30 15 C -1.870639 0.472959 3.191059 0 CFG=2
M  V30 16 C -1.503920 1.521334 4.226101 0
M  V30 17 N -2.227998 1.123638 5.417988 0
M  V30 18 C -2.303014 2.181684 6.391193 0
M  V30 19 C -3.538832 0.814416 4.829931 0
M  V30 20 C -3.067897 -0.175427 3.762122 0 CFG=1
M  V30 21 C -4.108063 -0.626971 2.861633 0
M  V30 22 C -4.722731 0.280392 2.021097 0
M  V30 23 C -5.731607 -0.022960 1.112360 0
M  V30 24 C -6.119047 -1.349007 1.081082 0
M  V30 25 C -5.571495 -2.342120 1.878384 0
M  V30 26 C -4.578909 -1.923758 2.740954 0
M  V30 27 N 1.353178 -2.356730 -0.625864 0
M  V30 28 C 2.158975 -2.263288 -1.707192 0
M  V30 29 C 3.237636 -1.432892 -1.778120 0
M  V30 30 C 5.531257 -2.190860 -4.494439 0
M  V30 31 C 5.713733 -2.759896 -5.731778 0
M  V30 32 N 4.625723 -2.908139 -6.521965 0
M  V30 33 H 1.850033 -3.742952 -6.931957 0
M  V30 34 H 1.483756 -1.998510 -6.954403 0
M  V30 35 H 2.689718 -2.720699 -8.142614 0
M  V30 36 H 2.166332 -1.629206 -4.585205 0
M  V30 37 H 5.083889 0.743459 -0.425867 0
M  V30 38 H 3.023023 -0.063637 1.230852 0
M  V30 39 H 1.263836 -2.179392 2.442610 0
M  V30 40 H -0.511496 -1.122136 3.847690 0
M  V30 41 H -1.974066 1.001527 2.244403 0
M  V30 42 H -0.432197 1.654090 4.362574 0
M  V30 43 H -1.949733 2.513180 3.927070 0
M  V30 44 H -1.377816 2.815974 6.262299 0
M  V30 45 H -2.304536 1.851166 7.436855 0
M  V30 46 H -3.137783 2.871230 6.221204 0
M  V30 47 H -4.001809 1.701091 4.379933 0
M  V30 48 H -4.188307 0.246528 5.518179 0
M  V30 49 H -2.715784 -1.078127 4.343100 0
M  V30 50 H -4.413796 1.322188 2.050119 0
M  V30 51 H -6.182682 0.705065 0.479199 0
M  V30 52 H -6.910778 -1.592598 0.369391 0
M  V30 53 H -5.897082 -3.363772 1.827754 0
M  V30 54 H -4.100842 -2.662556 3.403373 0
M  V30 55 H 1.903688 -2.898293 -2.546109 0
M  V30 56 H 6.400773 -2.059150 -3.832477 0
M  V30 57 H 6.689670 -3.092904 -6.097770 0
M  V30 END ATOM
M  V30 BEGIN BOND
M  V30 1 1 1 2
M  V30 2 2 2 3
M  V30 3 1 3 4
M  V30 4 1 4 5
M  V30 5 2 5 6
M  V30 6 1 6 7
M  V30 7 1 7 8
M  V30 8 2 8 9
M  V30 9 1 9 10
M  V30 10 1 10 11
M  V30 11 1 11 12
M  V30 12 2 12 13
M  V30 13 1 12 14
M  V30 14 1 14 15
M  V30 15 1 15 16
M  V30 16 1 16 17
M  V30 17 1 17 18
M  V30 18 1 17 19
M  V30 19 1 19 20
M  V30 20 1 20 21
M  V30 21 2 21 22
M  V30 22 1 22 23
M  V30 23 2 23 24
M  V30 24 1 24 25
M  V30 25 2 25 26
M  V30 26 2 10 27
M  V30 27 1 27 28
M  V30 28 2 28 29
M  V30 29 2 4 30
M  V30 30 1 30 31
M  V30 31 2 31 32
M  V30 32 1 32 2
M  V30 33 1 29 5
M  V30 34 1 29 8
M  V30 35 1 20 15
M  V30 36 1 26 21
M  V30 37 1 1 33
M  V30 38 1 1 34
M  V30 39 1 1 35
M  V30 40 1 3 36
M  V30 41 1 7 37
M  V30 42 1 9 38
M  V30 43 1 11 39
M  V30 44 1 14 40
M  V30 45 1 15 41 CFG=3
M  V30 46 1 16 42
M  V30 47 1 16 43
M  V30 48 1 18 44
M  V30 49 1 18 45
M  V30 50 1 18 46
M  V30 51 1 19 47
M  V30 52 1 19 48
M  V30 53 1 20 49 CFG=1
M  V30 54 1 22 50
M  V30 55 1 23 51
M  V30 56 1 24 52
M  V30 57 1 25 53
M  V30 58 1 26 54
M  V30 59 1 28 55
M  V30 60 1 30 56
M  V30 61 1 31 57
M  V30 END BOND
M  V30 END CTAB
M  END
>  <Dataset>  (234) 
ChEMBL_Kinases

>  <Ligand_Instance>  (234) 
nan

>  <PDB_ID>  (234) 
nan

>  <Standardized_SMILES>  (234) 
Cc1cc(-c2n[nH]c3cc(NC(=O)N[C@@H]4CN(C)C[C@H]4c4ccccc4)ncc23)ccn1

>  <Name>  (234) 
nan

>  <Pocket>  (234) 
nan

>  <ATP_Site>  (234) 
nan

>  <Peripheral>  (234) 
nan

>  <Num_H_Atoms_ProtBoundConf>  (234) 
nan

>  <Num_Resolved_Atoms>  (234) 
nan

>  <Num_Not_Resolved_Atoms>  (234) 
nan

$$$$
CHEMBL3654810
     RDKit          3D

  0  0  0  0  0  0  0  0  0  0999 V3000
M  V30 BEGIN CTAB
M  V30 COUNTS 57 61 0 0 0
M  V30 BEGIN ATOM
M  V30 1 C -1.772840 -8.784485 0.691774 0
M  V30 2 C -0.591775 -8.480262 -0.132212 0
M  V30 3 C -0.066379 -7.206179 -0.091492 0
M  V30 4 C 1.042312 -6.926589 -0.867137 0
M  V30 5 C 1.730811 -5.639834 -0.950714 0
M  V30 6 N 3.080868 -5.498652 -0.911976 0
M  V30 7 N 3.407582 -4.216322 -1.008781 0
M  V30 8 C 2.295091 -3.477603 -1.113442 0
M  V30 9 C 2.098513 -2.113146 -1.236900 0
M  V30 10 C 0.771287 -1.702530 -1.321720 0
M  V30 11 N 0.568176 -0.298963 -1.448767 0
M  V30 12 C 0.407590 0.607922 -0.356224 0
M  V30 13 O 0.451228 0.117274 0.784682 0
M  V30 14 N 0.209849 1.985701 -0.548038 0
M  V30 15 C 0.051791 2.872645 0.560919 0 CFG=1
M  V30 16 C 1.049668 3.947953 0.696907 0
M  V30 17 N 0.300164 5.183409 0.842966 0
M  V30 18 C 0.981604 6.319014 0.286882 0
M  V30 19 C -1.012433 4.942430 0.296748 0
M  V30 20 C -1.320958 3.509431 0.615293 0 CFG=2
M  V30 21 C -1.940381 3.348007 1.958891 0
M  V30 22 C -3.166235 2.684286 2.010791 0
M  V30 23 C -3.829579 2.481171 3.220515 0
M  V30 24 C -3.214719 2.968082 4.360662 0
M  V30 25 C -2.004791 3.624758 4.321390 0
M  V30 26 C -1.341526 3.827089 3.106060 0
M  V30 27 N -0.253004 -2.576342 -1.285890 0
M  V30 28 C -0.075748 -3.919132 -1.165000 0
M  V30 29 C 1.235125 -4.360314 -1.078194 0
M  V30 30 C 1.593378 -7.932010 -1.661956 0
M  V30 31 C 1.029148 -9.192459 -1.667130 0
M  V30 32 N -0.049591 -9.439435 -0.903476 0
M  V30 33 H -2.319403 -9.622027 0.202814 0
M  V30 34 H -1.517651 -9.120631 1.709272 0
M  V30 35 H -2.451008 -7.911853 0.821624 0
M  V30 36 H -0.451539 -6.389199 0.504901 0
M  V30 37 H 4.373421 -3.793103 -1.008478 0
M  V30 38 H 2.934716 -1.430880 -1.263509 0
M  V30 39 H 0.536398 0.082505 -2.421685 0
M  V30 40 H 0.188339 2.301953 -1.548577 0
M  V30 41 H 0.125887 2.215601 1.470454 0
M  V30 42 H 1.803981 4.009137 -0.107144 0
M  V30 43 H 1.655564 3.864512 1.626373 0
M  V30 44 H 0.426911 6.811603 -0.515591 0
M  V30 45 H 1.128912 7.039956 1.117347 0
M  V30 46 H 1.962289 5.951168 -0.087016 0
M  V30 47 H -1.695739 5.659151 0.837187 0
M  V30 48 H -1.090080 5.168924 -0.766914 0
M  V30 49 H -2.001988 3.038940 -0.124981 0
M  V30 50 H -3.658878 2.297287 1.120903 0
M  V30 51 H -4.776697 1.963091 3.220684 0
M  V30 52 H -3.746683 2.799582 5.288258 0
M  V30 53 H -1.572181 3.981620 5.231722 0
M  V30 54 H -0.404390 4.333687 3.060337 0
M  V30 55 H -0.905802 -4.613180 -1.137161 0
M  V30 56 H 2.450474 -7.808384 -2.294672 0
M  V30 57 H 1.402933 -9.998126 -2.250491 0
M  V30 END ATOM
M  V30 BEGIN BOND
M  V30 1 1 1 2
M  V30 2 2 2 3
M  V30 3 1 3 4
M  V30 4 1 4 5
M  V30 5 2 5 6
M  V30 6 1 6 7
M  V30 7 1 7 8
M  V30 8 2 8 9
M  V30 9 1 9 10
M  V30 10 1 10 11
M  V30 11 1 11 12
M  V30 12 2 12 13
M  V30 13 1 12 14
M  V30 14 1 14 15
M  V30 15 1 15 16
M  V30 16 1 16 17
M  V30 17 1 17 18
M  V30 18 1 17 19
M  V30 19 1 19 20
M  V30 20 1 20 21
M  V30 21 2 21 22
M  V30 22 1 22 23
M  V30 23 2 23 24
M  V30 24 1 24 25
M  V30 25 2 25 26
M  V30 26 2 10 27
M  V30 27 1 27 28
M  V30 28 2 28 29
M  V30 29 2 4 30
M  V30 30 1 30 31
M  V30 31 2 31 32
M  V30 32 1 32 2
M  V30 33 1 29 5
M  V30 34 1 29 8
M  V30 35 1 20 15
M  V30 36 1 26 21
M  V30 37 1 1 33
M  V30 38 1 1 34
M  V30 39 1 1 35
M  V30 40 1 3 36
M  V30 41 1 7 37
M  V30 42 1 9 38
M  V30 43 1 11 39
M  V30 44 1 14 40
M  V30 45 1 15 41 CFG=1
M  V30 46 1 16 42
M  V30 47 1 16 43
M  V30 48 1 18 44
M  V30 49 1 18 45
M  V30 50 1 18 46
M  V30 51 1 19 47
M  V30 52 1 19 48
M  V30 53 1 20 49 CFG=3
M  V30 54 1 22 50
M  V30 55 1 23 51
M  V30 56 1 24 52
M  V30 57 1 25 53
M  V30 58 1 26 54
M  V30 59 1 28 55
M  V30 60 1 30 56
M  V30 61 1 31 57
M  V30 END BOND
M  V30 END CTAB
M  END
>  <Dataset>  (235) 
ChEMBL_Kinases

>  <Ligand_Instance>  (235) 
nan

>  <PDB_ID>  (235) 
nan

>  <Standardized_SMILES>  (235) 
Cc1cc(-c2n[nH]c3cc(NC(=O)N[C@H]4CN(C)C[C@@H]4c4ccccc4)ncc23)ccn1

>  <Name>  (235) 
nan

>  <Pocket>  (235) 
nan

>  <ATP_Site>  (235) 
nan

>  <Peripheral>  (235) 
nan

>  <Num_H_Atoms_ProtBoundConf>  (235) 
nan

>  <Num_Resolved_Atoms>  (235) 
nan

>  <Num_Not_Resolved_Atoms>  (235) 
nan

$$$$
CHEMBL3654802
     RDKit          3D

  0  0  0  0  0  0  0  0  0  0999 V3000
M  V30 BEGIN CTAB
M  V30 COUNTS 51 54 0 0 0
M  V30 BEGIN ATOM
M  V30 1 C 3.241435 -7.033524 2.965091 0
M  V30 2 C 3.557783 -6.622925 1.572153 0
M  V30 3 C 3.289572 -5.348794 1.119514 0
M  V30 4 C 3.548272 -4.877459 -0.156593 0
M  V30 5 C 3.235172 -3.512259 -0.565147 0
M  V30 6 N 3.974533 -2.622490 -1.258570 0
M  V30 7 N 3.330300 -1.479466 -1.428605 0
M  V30 8 C 2.119824 -1.570829 -0.844410 0
M  V30 9 C 1.088340 -0.655892 -0.747582 0
M  V30 10 C 1.133891 0.703490 -1.316434 0
M  V30 11 C -0.075409 -1.002594 -0.081943 0
M  V30 12 N -1.227768 -0.178273 0.105902 0
M  V30 13 C -1.516017 0.724968 1.182659 0
M  V30 14 O -0.619712 0.770657 2.050652 0
M  V30 15 N -2.718571 1.436050 1.159083 0
M  V30 16 C -3.003188 2.349065 2.254097 0 CFG=2
M  V30 17 C -4.278351 1.981398 2.978265 0
M  V30 18 C -3.237155 3.678050 1.627210 0
M  V30 19 C -2.305983 4.017936 0.640396 0
M  V30 20 C -2.380519 5.222106 -0.041793 0
M  V30 21 C -3.386001 6.138303 0.230604 0
M  V30 22 C -4.286594 5.778375 1.204340 0
M  V30 23 C -4.221274 4.580276 1.890412 0
M  V30 24 N -0.137808 -2.246870 0.448323 0
M  V30 25 C 0.879293 -3.140702 0.349534 0
M  V30 26 C 2.057820 -2.841121 -0.303727 0
M  V30 27 C 4.124666 -5.768365 -1.044542 0
M  V30 28 C 4.382901 -7.034663 -0.568819 0
M  V30 29 N 4.118454 -7.460235 0.678901 0
M  V30 30 H 3.811450 -6.431809 3.708339 0
M  V30 31 H 2.156249 -6.967607 3.179899 0
M  V30 32 H 3.562985 -8.083743 3.104740 0
M  V30 33 H 2.834476 -4.686034 1.863280 0
M  V30 34 H 3.712084 -0.652234 -1.935128 0
M  V30 35 H 0.883454 1.497318 -0.584221 0
M  V30 36 H 0.432831 0.784935 -2.169130 0
M  V30 37 H 2.137364 0.913523 -1.738872 0
M  V30 38 H -1.921506 -0.284555 -0.670809 0
M  V30 39 H -3.427147 1.348963 0.397404 0
M  V30 40 H -2.183228 2.352046 2.991636 0
M  V30 41 H -5.161453 2.151359 2.337469 0
M  V30 42 H -4.236403 0.964555 3.415668 0
M  V30 43 H -4.365554 2.685198 3.833718 0
M  V30 44 H -1.479407 3.378690 0.346047 0
M  V30 45 H -1.667758 5.481068 -0.796636 0
M  V30 46 H -3.473835 7.083888 -0.280739 0
M  V30 47 H -5.101924 6.456557 1.465283 0
M  V30 48 H -4.916331 4.275331 2.658639 0
M  V30 49 H 0.763865 -4.119032 0.796114 0
M  V30 50 H 4.359175 -5.474714 -2.066883 0
M  V30 51 H 4.840409 -7.784626 -1.230130 0
M  V30 END ATOM
M  V30 BEGIN BOND
M  V30 1 1 1 2
M  V30 2 2 2 3
M  V30 3 1 3 4
M  V30 4 1 4 5
M  V30 5 2 5 6
M  V30 6 1 6 7
M  V30 7 1 7 8
M  V30 8 2 8 9
M  V30 9 1 9 10
M  V30 10 1 9 11
M  V30 11 1 11 12
M  V30 12 1 12 13
M  V30 13 2 13 14
M  V30 14 1 13 15
M  V30 15 1 15 16
M  V30 16 1 16 17
M  V30 17 1 16 18
M  V30 18 2 18 19
M  V30 19 1 19 20
M  V30 20 2 20 21
M  V30 21 1 21 22
M  V30 22 2 22 23
M  V30 23 2 11 24
M  V30 24 1 24 25
M  V30 25 2 25 26
M  V30 26 2 4 27
M  V30 27 1 27 28
M  V30 28 2 28 29
M  V30 29 1 29 2
M  V30 30 1 26 5
M  V30 31 1 26 8
M  V30 32 1 23 18
M  V30 33 1 1 30
M  V30 34 1 1 31
M  V30 35 1 1 32
M  V30 36 1 3 33
M  V30 37 1 7 34
M  V30 38 1 10 35
M  V30 39 1 10 36
M  V30 40 1 10 37
M  V30 41 1 12 38
M  V30 42 1 15 39
M  V30 43 1 16 40 CFG=1
M  V30 44 1 17 41
M  V30 45 1 17 42
M  V30 46 1 17 43
M  V30 47 1 19 44
M  V30 48 1 20 45
M  V30 49 1 21 46
M  V30 50 1 22 47
M  V30 51 1 23 48
M  V30 52 1 25 49
M  V30 53 1 27 50
M  V30 54 1 28 51
M  V30 END BOND
M  V30 END CTAB
M  END
>  <Dataset>  (236) 
ChEMBL_Kinases

>  <Ligand_Instance>  (236) 
nan

>  <PDB_ID>  (236) 
nan

>  <Standardized_SMILES>  (236) 
Cc1cc(-c2n[nH]c3c(C)c(NC(=O)N[C@H](C)c4ccccc4)ncc23)ccn1

>  <Name>  (236) 
nan

>  <Pocket>  (236) 
nan

>  <ATP_Site>  (236) 
nan

>  <Peripheral>  (236) 
nan

>  <Num_H_Atoms_ProtBoundConf>  (236) 
nan

>  <Num_Resolved_Atoms>  (236) 
nan

>  <Num_Not_Resolved_Atoms>  (236) 
nan

$$$$
CHEMBL3654727
     RDKit          3D

  0  0  0  0  0  0  0  0  0  0999 V3000
M  V30 BEGIN CTAB
M  V30 COUNTS 46 49 0 0 0
M  V30 BEGIN ATOM
M  V30 1 C -3.829736 -3.260967 -1.698791 0
M  V30 2 C -2.447409 -3.376265 -1.104409 0 CFG=1
M  V30 3 N -2.287434 -2.617861 0.099777 0
M  V30 4 C -1.312567 -1.578511 0.112432 0
M  V30 5 O -0.587668 -1.281944 -0.852247 0
M  V30 6 N -1.100736 -0.793209 1.259408 0
M  V30 7 C -0.167713 0.269888 1.411388 0
M  V30 8 C -0.623491 1.530864 1.082098 0
M  V30 9 C 0.192436 2.652453 1.187514 0
M  V30 10 N -0.032142 3.953465 0.927897 0
M  V30 11 N 1.088077 4.582981 1.203046 0
M  V30 12 C 2.042536 3.728654 1.636709 0
M  V30 13 C 3.409308 4.049268 2.036530 0
M  V30 14 C 3.500482 5.164317 2.863755 0
M  V30 15 C 4.767250 5.560344 3.306618 0
M  V30 16 C 5.905620 4.871999 2.940216 0
M  V30 17 C 5.767621 3.769468 2.116500 0
M  V30 18 Cl 7.202152 2.885102 1.642354 0
M  V30 19 C 4.539260 3.331450 1.647538 0
M  V30 20 C 1.501476 2.458060 1.642277 0
M  V30 21 C 1.933129 1.185077 1.965414 0
M  V30 22 N 1.113698 0.109131 1.852316 0
M  V30 23 C -2.223109 -4.809743 -0.776970 0
M  V30 24 C -1.431823 -5.613833 -1.594147 0
M  V30 25 C -1.211442 -6.941498 -1.309933 0
M  V30 26 C -1.815008 -7.435483 -0.173145 0
M  V30 27 F -1.610193 -8.746415 0.126727 0
M  V30 28 C -2.614418 -6.660888 0.669926 0
M  V30 29 Cl -3.319929 -7.420211 2.083073 0
M  V30 30 C -2.814636 -5.329911 0.353855 0
M  V30 31 H -3.948984 -2.364992 -2.342803 0
M  V30 32 H -3.945823 -4.133642 -2.377017 0
M  V30 33 H -4.579552 -3.354627 -0.909376 0
M  V30 34 H -1.748025 -3.015866 -1.883736 0
M  V30 35 H -2.867368 -2.819715 0.943830 0
M  V30 36 H -1.689664 -1.009331 2.093890 0
M  V30 37 H -1.632785 1.688296 0.730383 0
M  V30 38 H -0.936935 4.334792 0.578188 0
M  V30 39 H 2.647313 5.742048 3.183621 0
M  V30 40 H 4.882394 6.426173 3.954315 0
M  V30 41 H 6.884793 5.178751 3.282991 0
M  V30 42 H 4.387083 2.483002 1.008107 0
M  V30 43 H 2.948497 1.068245 2.313284 0
M  V30 44 H -0.997438 -5.150225 -2.462421 0
M  V30 45 H -0.607108 -7.580404 -1.922544 0
M  V30 46 H -3.441692 -4.774756 1.039461 0
M  V30 END ATOM
M  V30 BEGIN BOND
M  V30 1 1 1 2
M  V30 2 1 2 3
M  V30 3 1 3 4
M  V30 4 2 4 5
M  V30 5 1 4 6
M  V30 6 1 6 7
M  V30 7 2 7 8
M  V30 8 1 8 9
M  V30 9 1 9 10
M  V30 10 1 10 11
M  V30 11 2 11 12
M  V30 12 1 12 13
M  V30 13 2 13 14
M  V30 14 1 14 15
M  V30 15 2 15 16
M  V30 16 1 16 17
M  V30 17 1 17 18
M  V30 18 2 17 19
M  V30 19 1 12 20
M  V30 20 1 20 21
M  V30 21 2 21 22
M  V30 22 1 2 23
M  V30 23 2 23 24
M  V30 24 1 24 25
M  V30 25 2 25 26
M  V30 26 1 26 27
M  V30 27 1 26 28
M  V30 28 1 28 29
M  V30 29 2 28 30
M  V30 30 1 22 7
M  V30 31 1 30 23
M  V30 32 2 20 9
M  V30 33 1 19 13
M  V30 34 1 1 31
M  V30 35 1 1 32
M  V30 36 1 1 33
M  V30 37 1 2 34 CFG=3
M  V30 38 1 3 35
M  V30 39 1 6 36
M  V30 40 1 8 37
M  V30 41 1 10 38
M  V30 42 1 14 39
M  V30 43 1 15 40
M  V30 44 1 16 41
M  V30 45 1 19 42
M  V30 46 1 21 43
M  V30 47 1 24 44
M  V30 48 1 25 45
M  V30 49 1 30 46
M  V30 END BOND
M  V30 END CTAB
M  END
>  <Dataset>  (237) 
ChEMBL_Kinases

>  <Ligand_Instance>  (237) 
nan

>  <PDB_ID>  (237) 
nan

>  <Standardized_SMILES>  (237) 
C[C@@H](NC(=O)Nc1cc2[nH]nc(-c3cccc(Cl)c3)c2cn1)c1ccc(F)c(Cl)c1

>  <Name>  (237) 
nan

>  <Pocket>  (237) 
nan

>  <ATP_Site>  (237) 
nan

>  <Peripheral>  (237) 
nan

>  <Num_H_Atoms_ProtBoundConf>  (237) 
nan

>  <Num_Resolved_Atoms>  (237) 
nan

>  <Num_Not_Resolved_Atoms>  (237) 
nan

$$$$
CHEMBL3654726
     RDKit          3D

  0  0  0  0  0  0  0  0  0  0999 V3000
M  V30 BEGIN CTAB
M  V30 COUNTS 45 48 0 0 0
M  V30 BEGIN ATOM
M  V30 1 C -2.075024 -3.577509 4.325993 0
M  V30 2 C -1.765424 -3.296114 2.893736 0 CFG=1
M  V30 3 N -0.348221 -2.981583 2.661970 0
M  V30 4 C -0.071418 -1.753801 2.049345 0
M  V30 5 O -0.968517 -0.932301 1.699605 0
M  V30 6 N 1.298933 -1.404460 1.803233 0
M  V30 7 C 1.637769 -0.166699 1.182289 0
M  V30 8 C 2.973805 0.143946 0.956893 0
M  V30 9 C 3.228114 1.358701 0.351832 0
M  V30 10 N 4.392996 1.968935 -0.009789 0
M  V30 11 N 4.141356 3.152114 -0.571363 0
M  V30 12 C 2.795069 3.374606 -0.604740 0
M  V30 13 C 2.101141 4.543906 -1.134973 0
M  V30 14 C 1.060858 5.182295 -0.480424 0
M  V30 15 C 0.476697 6.280229 -1.074507 0
M  V30 16 N 0.919858 6.723734 -2.283783 0
M  V30 17 C 1.933698 6.110687 -2.933546 0
M  V30 18 Cl 2.496453 6.698166 -4.500742 0
M  V30 19 C 2.536579 4.996344 -2.344840 0
M  V30 20 C 2.238872 2.251055 -0.027257 0
M  V30 21 C 0.912475 1.888668 0.222774 0
M  V30 22 N 0.677523 0.702361 0.812921 0
M  V30 23 C -2.051696 -4.451854 1.989101 0
M  V30 24 C -3.196859 -4.479281 1.223491 0
M  V30 25 C -3.583954 -5.475542 0.351952 0
M  V30 26 C -2.675465 -6.533441 0.289060 0
M  V30 27 F -2.983370 -7.567521 -0.554193 0
M  V30 28 C -1.511001 -6.595007 1.012038 0
M  V30 29 Cl -0.424260 -7.971938 0.867609 0
M  V30 30 C -1.197526 -5.547206 1.867449 0
M  V30 31 H -2.833515 -4.387588 4.471623 0
M  V30 32 H -2.482451 -2.680181 4.826770 0
M  V30 33 H -1.172491 -3.864037 4.900936 0
M  V30 34 H -2.371692 -2.437548 2.509755 0
M  V30 35 H 0.369759 -3.680118 2.961859 0
M  V30 36 H 2.037966 -2.064592 2.083264 0
M  V30 37 H 3.769969 -0.515712 1.233521 0
M  V30 38 H 5.361984 1.561793 0.134389 0
M  V30 39 H 0.737822 4.799665 0.478234 0
M  V30 40 H -0.347499 6.779053 -0.546872 0
M  V30 41 H 3.341358 4.532035 -2.889651 0
M  V30 42 H 0.091832 2.545458 -0.051095 0
M  V30 43 H -3.860212 -3.618547 1.324227 0
M  V30 44 H -4.492435 -5.425368 -0.210765 0
M  V30 45 H -0.291023 -5.558808 2.452817 0
M  V30 END ATOM
M  V30 BEGIN BOND
M  V30 1 1 1 2
M  V30 2 1 2 3
M  V30 3 1 3 4
M  V30 4 2 4 5
M  V30 5 1 4 6
M  V30 6 1 6 7
M  V30 7 2 7 8
M  V30 8 1 8 9
M  V30 9 1 9 10
M  V30 10 1 10 11
M  V30 11 2 11 12
M  V30 12 1 12 13
M  V30 13 2 13 14
M  V30 14 1 14 15
M  V30 15 2 15 16
M  V30 16 1 16 17
M  V30 17 1 17 18
M  V30 18 2 17 19
M  V30 19 1 12 20
M  V30 20 1 20 21
M  V30 21 2 21 22
M  V30 22 1 2 23
M  V30 23 2 23 24
M  V30 24 1 24 25
M  V30 25 2 25 26
M  V30 26 1 26 27
M  V30 27 1 26 28
M  V30 28 1 28 29
M  V30 29 2 28 30
M  V30 30 1 22 7
M  V30 31 1 30 23
M  V30 32 2 20 9
M  V30 33 1 19 13
M  V30 34 1 1 31
M  V30 35 1 1 32
M  V30 36 1 1 33
M  V30 37 1 2 34 CFG=3
M  V30 38 1 3 35
M  V30 39 1 6 36
M  V30 40 1 8 37
M  V30 41 1 10 38
M  V30 42 1 14 39
M  V30 43 1 15 40
M  V30 44 1 19 41
M  V30 45 1 21 42
M  V30 46 1 24 43
M  V30 47 1 25 44
M  V30 48 1 30 45
M  V30 END BOND
M  V30 END CTAB
M  END
>  <Dataset>  (238) 
ChEMBL_Kinases

>  <Ligand_Instance>  (238) 
nan

>  <PDB_ID>  (238) 
nan

>  <Standardized_SMILES>  (238) 
C[C@@H](NC(=O)Nc1cc2[nH]nc(-c3ccnc(Cl)c3)c2cn1)c1ccc(F)c(Cl)c1

>  <Name>  (238) 
nan

>  <Pocket>  (238) 
nan

>  <ATP_Site>  (238) 
nan

>  <Peripheral>  (238) 
nan

>  <Num_H_Atoms_ProtBoundConf>  (238) 
nan

>  <Num_Resolved_Atoms>  (238) 
nan

>  <Num_Not_Resolved_Atoms>  (238) 
nan

$$$$
CHEMBL3654725
     RDKit          3D

  0  0  0  0  0  0  0  0  0  0999 V3000
M  V30 BEGIN CTAB
M  V30 COUNTS 43 46 0 0 0
M  V30 BEGIN ATOM
M  V30 1 C -0.173575 -3.022188 4.897656 0
M  V30 2 C -0.284454 -2.917796 3.403992 0 CFG=1
M  V30 3 N 0.936980 -2.465874 2.760734 0
M  V30 4 C 0.875895 -1.303157 1.978148 0
M  V30 5 O -0.227727 -0.704792 1.867392 0
M  V30 6 N 2.022093 -0.784576 1.309547 0
M  V30 7 C 1.924933 0.407888 0.516320 0
M  V30 8 C 2.991004 0.973169 -0.162584 0
M  V30 9 C 2.802045 2.124029 -0.902240 0
M  V30 10 N 3.601438 2.899627 -1.653105 0
M  V30 11 N 2.931670 3.916872 -2.169972 0
M  V30 12 C 1.634394 3.855091 -1.774208 0
M  V30 13 C 0.479003 4.710576 -2.047631 0
M  V30 14 C 0.287452 6.077171 -2.056116 0
M  V30 15 N -0.999832 6.328594 -2.381848 0
M  V30 16 N -1.646497 5.178317 -2.583882 0
M  V30 17 C -0.756518 4.187328 -2.383265 0
M  V30 18 C 1.563148 2.727347 -0.979577 0
M  V30 19 C 0.515938 2.146926 -0.295397 0
M  V30 20 N 0.734100 1.025579 0.416017 0
M  V30 21 C -0.577986 -4.262262 2.795243 0
M  V30 22 C 0.396584 -5.217059 2.618685 0
M  V30 23 C 0.024753 -6.425265 2.048281 0
M  V30 24 C -1.282884 -6.696018 1.655780 0
M  V30 25 F -1.651467 -7.875856 1.097564 0
M  V30 26 C -2.266393 -5.748868 1.827305 0
M  V30 27 Cl -3.945984 -5.947318 1.383734 0
M  V30 28 C -1.869580 -4.559643 2.395412 0
M  V30 29 H 0.757495 -3.534797 5.221915 0
M  V30 30 H -0.999379 -3.714916 5.232830 0
M  V30 31 H -0.358853 -2.059904 5.393229 0
M  V30 32 H -1.135783 -2.244338 3.172973 0
M  V30 33 H 1.802092 -3.002618 2.894086 0
M  V30 34 H 2.930721 -1.281627 1.403764 0
M  V30 35 H 3.944963 0.501033 -0.097824 0
M  V30 36 H 4.619425 2.702837 -1.795068 0
M  V30 37 H 1.102261 6.753856 -1.824794 0
M  V30 38 H -2.659613 5.185034 -2.845992 0
M  V30 39 H -1.131622 3.172186 -2.510917 0
M  V30 40 H -0.483945 2.534689 -0.289641 0
M  V30 41 H 1.415991 -5.018255 2.919698 0
M  V30 42 H 0.744343 -7.215101 1.883509 0
M  V30 43 H -2.611665 -3.785305 2.549035 0
M  V30 END ATOM
M  V30 BEGIN BOND
M  V30 1 1 1 2
M  V30 2 1 2 3
M  V30 3 1 3 4
M  V30 4 2 4 5
M  V30 5 1 4 6
M  V30 6 1 6 7
M  V30 7 2 7 8
M  V30 8 1 8 9
M  V30 9 1 9 10
M  V30 10 1 10 11
M  V30 11 2 11 12
M  V30 12 1 12 13
M  V30 13 1 13 14
M  V30 14 2 14 15
M  V30 15 1 15 16
M  V30 16 1 16 17
M  V30 17 1 12 18
M  V30 18 1 18 19
M  V30 19 2 19 20
M  V30 20 1 2 21
M  V30 21 2 21 22
M  V30 22 1 22 23
M  V30 23 2 23 24
M  V30 24 1 24 25
M  V30 25 1 24 26
M  V30 26 1 26 27
M  V30 27 2 26 28
M  V30 28 1 20 7
M  V30 29 1 28 21
M  V30 30 2 18 9
M  V30 31 2 17 13
M  V30 32 1 1 29
M  V30 33 1 1 30
M  V30 34 1 1 31
M  V30 35 1 2 32 CFG=1
M  V30 36 1 3 33
M  V30 37 1 6 34
M  V30 38 1 8 35
M  V30 39 1 10 36
M  V30 40 1 14 37
M  V30 41 1 16 38
M  V30 42 1 17 39
M  V30 43 1 19 40
M  V30 44 1 22 41
M  V30 45 1 23 42
M  V30 46 1 28 43
M  V30 END BOND
M  V30 END CTAB
M  END
>  <Dataset>  (239) 
ChEMBL_Kinases

>  <Ligand_Instance>  (239) 
nan

>  <PDB_ID>  (239) 
nan

>  <Standardized_SMILES>  (239) 
C[C@@H](NC(=O)Nc1cc2[nH]nc(-c3cn[nH]c3)c2cn1)c1ccc(F)c(Cl)c1

>  <Name>  (239) 
nan

>  <Pocket>  (239) 
nan

>  <ATP_Site>  (239) 
nan

>  <Peripheral>  (239) 
nan

>  <Num_H_Atoms_ProtBoundConf>  (239) 
nan

>  <Num_Resolved_Atoms>  (239) 
nan

>  <Num_Not_Resolved_Atoms>  (239) 
nan

$$$$
CHEMBL3654724
     RDKit          3D

  0  0  0  0  0  0  0  0  0  0999 V3000
M  V30 BEGIN CTAB
M  V30 COUNTS 46 49 0 0 0
M  V30 BEGIN ATOM
M  V30 1 C -3.122688 -3.819314 -1.794462 0
M  V30 2 C -1.908939 -3.724316 -0.903444 0 CFG=1
M  V30 3 N -2.064115 -2.802802 0.179230 0
M  V30 4 C -1.160335 -1.733022 0.285928 0
M  V30 5 O -0.229729 -1.581923 -0.551069 0
M  V30 6 N -1.278562 -0.790267 1.350597 0
M  V30 7 C -0.357798 0.293224 1.452910 0
M  V30 8 C -0.849801 1.390105 0.739828 0
M  V30 9 C -0.131232 2.589139 0.680798 0
M  V30 10 N -0.296863 3.792501 0.113037 0
M  V30 11 N 0.734506 4.573554 0.397599 0
M  V30 12 C 1.630210 3.908372 1.172568 0
M  V30 13 C 2.897856 4.402201 1.705474 0
M  V30 14 C 3.340467 4.223548 3.000305 0
M  V30 15 C 4.554372 4.723470 3.425288 0
M  V30 16 C 5.357365 5.428352 2.524684 0
M  V30 17 F 6.559151 5.940105 2.892271 0
M  V30 18 C 4.888432 5.590622 1.238139 0
M  V30 19 C 3.665651 5.099958 0.769268 0
M  V30 20 C 1.084398 2.640809 1.357582 0
M  V30 21 C 1.518918 1.515113 2.049023 0
M  V30 22 N 0.808052 0.374384 2.089565 0
M  V30 23 C -1.706490 -5.078500 -0.322832 0
M  V30 24 C -0.724504 -5.923151 -0.803133 0
M  V30 25 C -0.511683 -7.184456 -0.286260 0
M  V30 26 C -1.297543 -7.643703 0.751880 0
M  V30 27 F -1.100468 -8.885231 1.272873 0
M  V30 28 C -2.279289 -6.805910 1.235895 0
M  V30 29 Cl -3.271670 -7.399943 2.554964 0
M  V30 30 C -2.496215 -5.528894 0.714012 0
M  V30 31 H -3.063216 -3.068572 -2.629801 0
M  V30 32 H -3.075293 -4.808552 -2.299231 0
M  V30 33 H -4.080577 -3.773921 -1.264938 0
M  V30 34 H -1.059599 -3.485528 -1.566712 0
M  V30 35 H -2.849831 -2.971296 0.845109 0
M  V30 36 H -2.076251 -0.955917 2.032049 0
M  V30 37 H -1.777853 1.463462 0.178829 0
M  V30 38 H -1.135602 4.053675 -0.470539 0
M  V30 39 H 2.692501 3.672873 3.669808 0
M  V30 40 H 4.879411 4.570426 4.445167 0
M  V30 41 H 5.496840 6.141142 0.503807 0
M  V30 42 H 3.372489 5.270286 -0.252584 0
M  V30 43 H 2.449865 1.539667 2.573216 0
M  V30 44 H -0.132978 -5.522896 -1.615981 0
M  V30 45 H 0.270977 -7.811048 -0.695903 0
M  V30 46 H -3.274043 -4.944295 1.143087 0
M  V30 END ATOM
M  V30 BEGIN BOND
M  V30 1 1 1 2
M  V30 2 1 2 3
M  V30 3 1 3 4
M  V30 4 2 4 5
M  V30 5 1 4 6
M  V30 6 1 6 7
M  V30 7 2 7 8
M  V30 8 1 8 9
M  V30 9 1 9 10
M  V30 10 1 10 11
M  V30 11 2 11 12
M  V30 12 1 12 13
M  V30 13 2 13 14
M  V30 14 1 14 15
M  V30 15 2 15 16
M  V30 16 1 16 17
M  V30 17 1 16 18
M  V30 18 2 18 19
M  V30 19 1 12 20
M  V30 20 1 20 21
M  V30 21 2 21 22
M  V30 22 1 2 23
M  V30 23 2 23 24
M  V30 24 1 24 25
M  V30 25 2 25 26
M  V30 26 1 26 27
M  V30 27 1 26 28
M  V30 28 1 28 29
M  V30 29 2 28 30
M  V30 30 1 22 7
M  V30 31 1 30 23
M  V30 32 2 20 9
M  V30 33 1 19 13
M  V30 34 1 1 31
M  V30 35 1 1 32
M  V30 36 1 1 33
M  V30 37 1 2 34 CFG=3
M  V30 38 1 3 35
M  V30 39 1 6 36
M  V30 40 1 8 37
M  V30 41 1 10 38
M  V30 42 1 14 39
M  V30 43 1 15 40
M  V30 44 1 18 41
M  V30 45 1 19 42
M  V30 46 1 21 43
M  V30 47 1 24 44
M  V30 48 1 25 45
M  V30 49 1 30 46
M  V30 END BOND
M  V30 END CTAB
M  END
>  <Dataset>  (240) 
ChEMBL_Kinases

>  <Ligand_Instance>  (240) 
nan

>  <PDB_ID>  (240) 
nan

>  <Standardized_SMILES>  (240) 
C[C@@H](NC(=O)Nc1cc2[nH]nc(-c3ccc(F)cc3)c2cn1)c1ccc(F)c(Cl)c1

>  <Name>  (240) 
nan

>  <Pocket>  (240) 
nan

>  <ATP_Site>  (240) 
nan

>  <Peripheral>  (240) 
nan

>  <Num_H_Atoms_ProtBoundConf>  (240) 
nan

>  <Num_Resolved_Atoms>  (240) 
nan

>  <Num_Not_Resolved_Atoms>  (240) 
nan

$$$$
CHEMBL3654723
     RDKit          3D

  0  0  0  0  0  0  0  0  0  0999 V3000
M  V30 BEGIN CTAB
M  V30 COUNTS 46 49 0 0 0
M  V30 BEGIN ATOM
M  V30 1 C -1.251414 -3.813207 4.444395 0
M  V30 2 C -1.525923 -3.283885 3.074059 0 CFG=1
M  V30 3 N -0.377894 -3.378138 2.179230 0
M  V30 4 C 0.126244 -2.202579 1.606427 0
M  V30 5 O -0.416128 -1.097663 1.872462 0
M  V30 6 N 1.252174 -2.225293 0.718528 0
M  V30 7 C 1.745588 -1.006077 0.147801 0
M  V30 8 C 2.841043 -1.017175 -0.717605 0
M  V30 9 C 3.250388 0.218385 -1.224164 0
M  V30 10 N 4.259964 0.565949 -2.074581 0
M  V30 11 N 4.246598 1.888316 -2.259393 0
M  V30 12 C 3.241443 2.435263 -1.544647 0
M  V30 13 C 2.803251 3.823849 -1.402993 0
M  V30 14 C 2.663353 4.698840 -2.463187 0
M  V30 15 N 2.246175 5.865768 -1.931530 0
M  V30 16 N 2.118709 5.770053 -0.610997 0
M  V30 17 C 1.696263 6.797677 0.321750 0
M  V30 18 C 2.457589 4.513652 -0.252956 0
M  V30 19 C 2.608771 1.395272 -0.890230 0
M  V30 20 C 1.531820 1.342519 -0.030041 0
M  V30 21 N 1.129515 0.156241 0.463668 0
M  V30 22 C -2.653639 -4.017290 2.416830 0
M  V30 23 C -3.925321 -3.450978 2.386605 0
M  V30 24 C -5.033929 -4.037684 1.809030 0
M  V30 25 C -4.858045 -5.273276 1.222767 0
M  V30 26 F -5.922775 -5.889009 0.641397 0
M  V30 27 C -3.606386 -5.853535 1.240852 0
M  V30 28 Cl -3.430183 -7.440177 0.475570 0
M  V30 29 C -2.501126 -5.253496 1.824389 0
M  V30 30 H -2.013046 -4.573306 4.719766 0
M  V30 31 H -1.301518 -3.014798 5.237084 0
M  V30 32 H -0.237703 -4.225469 4.497692 0
M  V30 33 H -1.832360 -2.208963 3.157537 0
M  V30 34 H 0.034216 -4.317493 1.991855 0
M  V30 35 H 1.692492 -3.131046 0.503835 0
M  V30 36 H 3.341983 -1.934974 -0.978489 0
M  V30 37 H 4.921133 -0.120123 -2.496516 0
M  V30 38 H 2.854817 4.478251 -3.513705 0
M  V30 39 H 2.248799 6.641762 1.271898 0
M  V30 40 H 1.928224 7.807647 -0.047374 0
M  V30 41 H 0.624574 6.680881 0.586059 0
M  V30 42 H 2.465918 4.100429 0.734939 0
M  V30 43 H 1.002488 2.244384 0.255649 0
M  V30 44 H -4.044357 -2.471160 2.856638 0
M  V30 45 H -5.983972 -3.516970 1.836267 0
M  V30 46 H -1.529515 -5.717842 1.831331 0
M  V30 END ATOM
M  V30 BEGIN BOND
M  V30 1 1 1 2
M  V30 2 1 2 3
M  V30 3 1 3 4
M  V30 4 2 4 5
M  V30 5 1 4 6
M  V30 6 1 6 7
M  V30 7 2 7 8
M  V30 8 1 8 9
M  V30 9 1 9 10
M  V30 10 1 10 11
M  V30 11 2 11 12
M  V30 12 1 12 13
M  V30 13 1 13 14
M  V30 14 2 14 15
M  V30 15 1 15 16
M  V30 16 1 16 17
M  V30 17 1 16 18
M  V30 18 1 12 19
M  V30 19 1 19 20
M  V30 20 2 20 21
M  V30 21 1 2 22
M  V30 22 2 22 23
M  V30 23 1 23 24
M  V30 24 2 24 25
M  V30 25 1 25 26
M  V30 26 1 25 27
M  V30 27 1 27 28
M  V30 28 2 27 29
M  V30 29 1 21 7
M  V30 30 1 29 22
M  V30 31 2 19 9
M  V30 32 2 18 13
M  V30 33 1 1 30
M  V30 34 1 1 31
M  V30 35 1 1 32
M  V30 36 1 2 33 CFG=1
M  V30 37 1 3 34
M  V30 38 1 6 35
M  V30 39 1 8 36
M  V30 40 1 10 37
M  V30 41 1 14 38
M  V30 42 1 17 39
M  V30 43 1 17 40
M  V30 44 1 17 41
M  V30 45 1 18 42
M  V30 46 1 20 43
M  V30 47 1 23 44
M  V30 48 1 24 45
M  V30 49 1 29 46
M  V30 END BOND
M  V30 END CTAB
M  END
>  <Dataset>  (241) 
ChEMBL_Kinases

>  <Ligand_Instance>  (241) 
nan

>  <PDB_ID>  (241) 
nan

>  <Standardized_SMILES>  (241) 
C[C@@H](NC(=O)Nc1cc2[nH]nc(-c3cnn(C)c3)c2cn1)c1ccc(F)c(Cl)c1

>  <Name>  (241) 
nan

>  <Pocket>  (241) 
nan

>  <ATP_Site>  (241) 
nan

>  <Peripheral>  (241) 
nan

>  <Num_H_Atoms_ProtBoundConf>  (241) 
nan

>  <Num_Resolved_Atoms>  (241) 
nan

>  <Num_Not_Resolved_Atoms>  (241) 
nan

$$$$
CHEMBL3654722
     RDKit          3D

  0  0  0  0  0  0  0  0  0  0999 V3000
M  V30 BEGIN CTAB
M  V30 COUNTS 49 52 0 0 0
M  V30 BEGIN ATOM
M  V30 1 C -2.097122 -5.570410 -0.608563 0
M  V30 2 C -0.706109 -4.975840 -0.594739 0 CFG=1
M  V30 3 N -0.475327 -4.135092 0.540884 0
M  V30 4 C -0.121700 -2.784284 0.358164 0
M  V30 5 O 0.027944 -2.179370 -0.742282 0
M  V30 6 N 0.103989 -1.963069 1.497744 0
M  V30 7 C 0.469082 -0.575274 1.518013 0
M  V30 8 C 1.704453 -0.006339 1.521549 0
M  V30 9 C 1.777359 1.373656 1.542979 0
M  V30 10 N 2.883263 2.142760 1.550239 0
M  V30 11 N 2.478259 3.398000 1.571804 0
M  V30 12 C 1.137052 3.483005 1.579041 0
M  V30 13 C 0.269601 4.657603 1.601376 0
M  V30 14 C 0.628703 5.649596 2.498858 0
M  V30 15 C -0.162651 6.786795 2.559522 0
M  V30 16 C -1.290706 6.943035 1.747500 0
M  V30 17 O -2.021146 7.973455 1.791690 0
M  V30 18 N -1.606679 5.942603 0.879552 0
M  V30 19 C -2.776295 6.053492 0.006289 0
M  V30 20 C -0.849574 4.843734 0.814834 0
M  V30 21 C 0.651398 2.171307 1.560502 0
M  V30 22 C -0.584440 1.550214 1.556146 0
M  V30 23 N -0.646144 0.206559 1.535239 0
M  V30 24 C 0.248654 -6.115185 -0.560957 0
M  V30 25 C 0.400951 -6.734029 0.669639 0
M  V30 26 C 1.268695 -7.813466 0.823489 0
M  V30 27 C 2.000780 -8.292531 -0.256543 0
M  V30 28 F 2.862058 -9.334733 -0.185670 0
M  V30 29 C 1.826470 -7.649573 -1.481878 0
M  V30 30 C 0.967663 -6.578966 -1.640554 0
M  V30 31 H -2.736564 -5.141185 0.189513 0
M  V30 32 H -2.526410 -5.417131 -1.620544 0
M  V30 33 H -2.101346 -6.667900 -0.444845 0
M  V30 34 H -0.546772 -4.340442 -1.502932 0
M  V30 35 H -0.561947 -4.496683 1.530195 0
M  V30 36 H 0.021507 -2.309009 2.489110 0
M  V30 37 H 2.502689 -0.711741 1.506919 0
M  V30 38 H 3.889695 1.832712 1.540932 0
M  V30 39 H 1.462706 5.648507 3.169399 0
M  V30 40 H -0.001972 7.651386 3.219164 0
M  V30 41 H -3.521708 5.325024 0.405905 0
M  V30 42 H -3.159632 7.082770 -0.021240 0
M  V30 43 H -2.517498 5.666345 -1.001335 0
M  V30 44 H -1.102815 4.062389 0.131749 0
M  V30 45 H -1.454886 2.173495 1.569805 0
M  V30 46 H -0.091982 -6.481526 1.593249 0
M  V30 47 H 1.442403 -8.348688 1.748835 0
M  V30 48 H 2.401088 -8.027126 -2.325314 0
M  V30 49 H 0.827860 -6.076306 -2.586831 0
M  V30 END ATOM
M  V30 BEGIN BOND
M  V30 1 1 1 2
M  V30 2 1 2 3
M  V30 3 1 3 4
M  V30 4 2 4 5
M  V30 5 1 4 6
M  V30 6 1 6 7
M  V30 7 2 7 8
M  V30 8 1 8 9
M  V30 9 1 9 10
M  V30 10 1 10 11
M  V30 11 2 11 12
M  V30 12 1 12 13
M  V30 13 1 13 14
M  V30 14 2 14 15
M  V30 15 1 15 16
M  V30 16 2 16 17
M  V30 17 1 16 18
M  V30 18 1 18 19
M  V30 19 1 18 20
M  V30 20 1 12 21
M  V30 21 1 21 22
M  V30 22 2 22 23
M  V30 23 1 2 24
M  V30 24 2 24 25
M  V30 25 1 25 26
M  V30 26 2 26 27
M  V30 27 1 27 28
M  V30 28 1 27 29
M  V30 29 2 29 30
M  V30 30 1 23 7
M  V30 31 1 30 24
M  V30 32 2 21 9
M  V30 33 2 20 13
M  V30 34 1 1 31
M  V30 35 1 1 32
M  V30 36 1 1 33
M  V30 37 1 2 34 CFG=3
M  V30 38 1 3 35
M  V30 39 1 6 36
M  V30 40 1 8 37
M  V30 41 1 10 38
M  V30 42 1 14 39
M  V30 43 1 15 40
M  V30 44 1 19 41
M  V30 45 1 19 42
M  V30 46 1 19 43
M  V30 47 1 20 44
M  V30 48 1 22 45
M  V30 49 1 25 46
M  V30 50 1 26 47
M  V30 51 1 29 48
M  V30 52 1 30 49
M  V30 END BOND
M  V30 END CTAB
M  END
>  <Dataset>  (242) 
ChEMBL_Kinases

>  <Ligand_Instance>  (242) 
nan

>  <PDB_ID>  (242) 
nan

>  <Standardized_SMILES>  (242) 
C[C@@H](NC(=O)Nc1cc2[nH]nc(-c3ccc(=O)n(C)c3)c2cn1)c1ccc(F)cc1

>  <Name>  (242) 
nan

>  <Pocket>  (242) 
nan

>  <ATP_Site>  (242) 
nan

>  <Peripheral>  (242) 
nan

>  <Num_H_Atoms_ProtBoundConf>  (242) 
nan

>  <Num_Resolved_Atoms>  (242) 
nan

>  <Num_Not_Resolved_Atoms>  (242) 
nan

$$$$
CHEMBL3654721
     RDKit          3D

  0  0  0  0  0  0  0  0  0  0999 V3000
M  V30 BEGIN CTAB
M  V30 COUNTS 51 54 0 0 0
M  V30 BEGIN ATOM
M  V30 1 C -1.192590 -7.696673 -0.496659 0
M  V30 2 C -0.069023 -7.230670 0.350736 0
M  V30 3 C 0.519468 -6.033741 -0.007082 0
M  V30 4 C 1.570732 -5.491516 0.696409 0
M  V30 5 C 2.229508 -4.230452 0.362169 0
M  V30 6 N 3.568047 -4.049268 0.339649 0
M  V30 7 N 3.868206 -2.792727 -0.000683 0
M  V30 8 C 2.685251 -2.178048 -0.194429 0
M  V30 9 C 2.446581 -0.865101 -0.561355 0
M  V30 10 C 1.121418 -0.496806 -0.690070 0
M  V30 11 N 0.648591 0.814970 -1.061455 0
M  V30 12 C 0.403189 1.764535 -0.005142 0
M  V30 13 O 0.608312 1.417014 1.186025 0
M  V30 14 N -0.054496 3.029196 -0.388755 0
M  V30 15 C -0.332954 4.058585 0.578806 0
M  V30 16 C 0.935438 4.362321 1.346160 0
M  V30 17 C -0.912994 5.302363 -0.045356 0
M  V30 18 C -1.384663 3.513882 1.477198 0
M  V30 19 C -1.388423 3.258637 2.831901 0
M  V30 20 C -2.513774 2.747631 3.406730 0
M  V30 21 C -3.654939 2.469448 2.709149 0
M  V30 22 Cl -5.051630 1.814293 3.534300 0
M  V30 23 C -3.681614 2.715984 1.342806 0
M  V30 24 C -2.539266 3.239271 0.734906 0
M  V30 25 N 0.080940 -1.352614 -0.475416 0
M  V30 26 C 0.308640 -2.643592 -0.114773 0
M  V30 27 C 1.622699 -3.034330 0.019904 0
M  V30 28 C 2.042528 -6.186762 1.801779 0
M  V30 29 C 1.436274 -7.396995 2.151198 0
M  V30 30 N 0.410770 -7.880922 1.427075 0
M  V30 31 H -1.355117 -8.774442 -0.453958 0
M  V30 32 H -0.970770 -7.414714 -1.552115 0
M  V30 33 H -2.152456 -7.161805 -0.268884 0
M  V30 34 H 0.179539 -5.468083 -0.857963 0
M  V30 35 H 4.813496 -2.361288 -0.100270 0
M  V30 36 H 3.177071 -0.100432 -0.757230 0
M  V30 37 H 0.493868 1.058304 -2.047320 0
M  V30 38 H -0.209905 3.270142 -1.389743 0
M  V30 39 H 0.855327 5.332385 1.888304 0
M  V30 40 H 1.811685 4.456495 0.672216 0
M  V30 41 H 1.160006 3.525619 2.019358 0
M  V30 42 H -1.575234 4.997436 -0.859238 0
M  V30 43 H -0.143480 6.039278 -0.345950 0
M  V30 44 H -1.535232 5.798638 0.730807 0
M  V30 45 H -0.442466 3.515030 3.274308 0
M  V30 46 H -2.420749 2.578355 4.487661 0
M  V30 47 H -4.593922 2.482964 0.841888 0
M  V30 48 H -2.701249 3.380819 -0.330018 0
M  V30 49 H -0.488420 -3.353781 0.064721 0
M  V30 50 H 2.869679 -5.869442 2.447257 0
M  V30 51 H 1.745805 -8.006095 3.005109 0
M  V30 END ATOM
M  V30 BEGIN BOND
M  V30 1 1 1 2
M  V30 2 2 2 3
M  V30 3 1 3 4
M  V30 4 1 4 5
M  V30 5 2 5 6
M  V30 6 1 6 7
M  V30 7 1 7 8
M  V30 8 2 8 9
M  V30 9 1 9 10
M  V30 10 1 10 11
M  V30 11 1 11 12
M  V30 12 2 12 13
M  V30 13 1 12 14
M  V30 14 1 14 15
M  V30 15 1 15 16
M  V30 16 1 15 17
M  V30 17 1 15 18
M  V30 18 2 18 19
M  V30 19 1 19 20
M  V30 20 2 20 21
M  V30 21 1 21 22
M  V30 22 1 21 23
M  V30 23 2 23 24
M  V30 24 2 10 25
M  V30 25 1 25 26
M  V30 26 2 26 27
M  V30 27 2 4 28
M  V30 28 1 28 29
M  V30 29 2 29 30
M  V30 30 1 30 2
M  V30 31 1 27 5
M  V30 32 1 27 8
M  V30 33 1 24 18
M  V30 34 1 1 31
M  V30 35 1 1 32
M  V30 36 1 1 33
M  V30 37 1 3 34
M  V30 38 1 7 35
M  V30 39 1 9 36
M  V30 40 1 11 37
M  V30 41 1 14 38
M  V30 42 1 16 39
M  V30 43 1 16 40
M  V30 44 1 16 41
M  V30 45 1 17 42
M  V30 46 1 17 43
M  V30 47 1 17 44
M  V30 48 1 19 45
M  V30 49 1 20 46
M  V30 50 1 23 47
M  V30 51 1 24 48
M  V30 52 1 26 49
M  V30 53 1 28 50
M  V30 54 1 29 51
M  V30 END BOND
M  V30 END CTAB
M  END
>  <Dataset>  (243) 
ChEMBL_Kinases

>  <Ligand_Instance>  (243) 
nan

>  <PDB_ID>  (243) 
nan

>  <Standardized_SMILES>  (243) 
Cc1cc(-c2n[nH]c3cc(NC(=O)NC(C)(C)c4ccc(Cl)cc4)ncc23)ccn1

>  <Name>  (243) 
nan

>  <Pocket>  (243) 
nan

>  <ATP_Site>  (243) 
nan

>  <Peripheral>  (243) 
nan

>  <Num_H_Atoms_ProtBoundConf>  (243) 
nan

>  <Num_Resolved_Atoms>  (243) 
nan

>  <Num_Not_Resolved_Atoms>  (243) 
nan

$$$$
CHEMBL3654720
     RDKit          3D

  0  0  0  0  0  0  0  0  0  0999 V3000
M  V30 BEGIN CTAB
M  V30 COUNTS 48 51 0 0 0
M  V30 BEGIN ATOM
M  V30 1 C -2.504546 -4.298911 -5.486075 0
M  V30 2 C -1.923169 -5.045878 -4.312333 0
M  V30 3 C -1.679050 -4.445263 -3.110543 0
M  V30 4 C -1.145097 -5.156290 -2.041131 0
M  V30 5 C -0.902047 -4.467397 -0.781649 0
M  V30 6 N -1.219394 -4.921796 0.449728 0
M  V30 7 N -0.847746 -4.019441 1.374243 0
M  V30 8 C -0.284025 -2.969022 0.747354 0
M  V30 9 C 0.278921 -1.755571 1.168375 0
M  V30 10 C 0.799732 -0.839303 0.253721 0
M  V30 11 N 1.301966 0.302303 0.928336 0
M  V30 12 C 0.748304 1.568375 1.313174 0
M  V30 13 O -0.408196 1.495855 0.886016 0
M  V30 14 N 1.572171 2.462355 1.999422 0
M  V30 15 C 1.019090 3.730466 2.379561 0 CFG=2
M  V30 16 C 1.808788 4.924179 1.960469 0
M  V30 17 C 0.916077 3.757392 3.873321 0
M  V30 18 C -0.232778 4.252306 4.495735 0
M  V30 19 C -0.457341 4.332883 5.843486 0
M  V30 20 C 0.539994 3.885558 6.682796 0
M  V30 21 F 0.379023 3.940449 8.022371 0
M  V30 22 C 1.707487 3.381681 6.109398 0
M  V30 23 Cl 2.948374 2.821614 7.213461 0
M  V30 24 C 1.886991 3.320887 4.744621 0
M  V30 25 N 0.756521 -1.133864 -1.059590 0
M  V30 26 C 0.218200 -2.299458 -1.505351 0
M  V30 27 C -0.309470 -3.232046 -0.602775 0
M  V30 28 C -0.879869 -6.509761 -2.281066 0
M  V30 29 C -1.129487 -7.110476 -3.500687 0
M  V30 30 N -1.647229 -6.352219 -4.483415 0
M  V30 31 H -3.369128 -4.890332 -5.836247 0
M  V30 32 H -1.699007 -4.232464 -6.244299 0
M  V30 33 H -2.785777 -3.268832 -5.186398 0
M  V30 34 H -1.938419 -3.402193 -3.093088 0
M  V30 35 H -0.968219 -4.100715 2.407247 0
M  V30 36 H 0.247686 -1.648967 2.261447 0
M  V30 37 H 2.317469 0.101742 1.181654 0
M  V30 38 H 2.551415 2.228408 2.231531 0
M  V30 39 H -0.024517 3.870414 1.995375 0
M  V30 40 H 1.773389 5.095582 0.856273 0
M  V30 41 H 2.817456 4.994574 2.393698 0
M  V30 42 H 1.249227 5.813154 2.376270 0
M  V30 43 H -1.030282 4.611355 3.838970 0
M  V30 44 H -1.372264 4.728721 6.238414 0
M  V30 45 H 2.798825 2.929001 4.305827 0
M  V30 46 H 0.210130 -2.479738 -2.568520 0
M  V30 47 H -0.462273 -6.977852 -1.380333 0
M  V30 48 H -0.883878 -8.158682 -3.564067 0
M  V30 END ATOM
M  V30 BEGIN BOND
M  V30 1 1 1 2
M  V30 2 2 2 3
M  V30 3 1 3 4
M  V30 4 1 4 5
M  V30 5 2 5 6
M  V30 6 1 6 7
M  V30 7 1 7 8
M  V30 8 2 8 9
M  V30 9 1 9 10
M  V30 10 1 10 11
M  V30 11 1 11 12
M  V30 12 2 12 13
M  V30 13 1 12 14
M  V30 14 1 14 15
M  V30 15 1 15 16
M  V30 16 1 15 17
M  V30 17 2 17 18
M  V30 18 1 18 19
M  V30 19 2 19 20
M  V30 20 1 20 21
M  V30 21 1 20 22
M  V30 22 1 22 23
M  V30 23 2 22 24
M  V30 24 2 10 25
M  V30 25 1 25 26
M  V30 26 2 26 27
M  V30 27 2 4 28
M  V30 28 1 28 29
M  V30 29 2 29 30
M  V30 30 1 30 2
M  V30 31 1 27 5
M  V30 32 1 27 8
M  V30 33 1 24 17
M  V30 34 1 1 31
M  V30 35 1 1 32
M  V30 36 1 1 33
M  V30 37 1 3 34
M  V30 38 1 7 35
M  V30 39 1 9 36
M  V30 40 1 11 37
M  V30 41 1 14 38
M  V30 42 1 15 39 CFG=3
M  V30 43 1 16 40
M  V30 44 1 16 41
M  V30 45 1 16 42
M  V30 46 1 18 43
M  V30 47 1 19 44
M  V30 48 1 24 45
M  V30 49 1 26 46
M  V30 50 1 28 47
M  V30 51 1 29 48
M  V30 END BOND
M  V30 END CTAB
M  END
>  <Dataset>  (244) 
ChEMBL_Kinases

>  <Ligand_Instance>  (244) 
nan

>  <PDB_ID>  (244) 
nan

>  <Standardized_SMILES>  (244) 
Cc1cc(-c2n[nH]c3cc(NC(=O)N[C@H](C)c4ccc(F)c(Cl)c4)ncc23)ccn1

>  <Name>  (244) 
nan

>  <Pocket>  (244) 
nan

>  <ATP_Site>  (244) 
nan

>  <Peripheral>  (244) 
nan

>  <Num_H_Atoms_ProtBoundConf>  (244) 
nan

>  <Num_Resolved_Atoms>  (244) 
nan

>  <Num_Not_Resolved_Atoms>  (244) 
nan

$$$$
CHEMBL365472
     RDKit          3D

  0  0  0  0  0  0  0  0  0  0999 V3000
M  V30 BEGIN CTAB
M  V30 COUNTS 61 63 0 0 0
M  V30 BEGIN ATOM
M  V30 1 C 0.336683 -3.749027 4.187847 0
M  V30 2 C 0.868917 -2.444542 3.705108 0
M  V30 3 C 1.298576 -1.561986 4.669046 0
M  V30 4 C 1.798613 -0.341919 4.259281 0
M  V30 5 C 1.856984 -0.035157 2.906839 0
M  V30 6 N 2.356474 1.197257 2.388727 0
M  V30 7 C 1.583193 2.363523 2.146824 0
M  V30 8 O 0.378732 2.222177 2.434958 0
M  V30 9 C 2.222020 3.574957 1.608045 0
M  V30 10 C 3.539845 3.727319 1.293606 0
M  V30 11 C 4.018957 4.917565 0.793798 0
M  V30 12 C 3.140742 5.966038 0.612705 0
M  V30 13 C 1.796062 5.880790 0.909701 0
M  V30 14 N 0.860996 6.938192 0.736847 0
M  V30 15 C -0.546946 6.732364 1.087463 0
M  V30 16 C 1.296996 8.219427 0.214551 0
M  V30 17 C 1.370878 4.666011 1.407097 0
M  V30 18 C 1.416845 -0.944189 1.958590 0
M  V30 19 C 0.909281 -2.181926 2.369120 0
M  V30 20 N 0.455342 -3.117048 1.371706 0
M  V30 21 C -0.893067 -3.058873 0.974568 0
M  V30 22 O -1.575578 -2.171415 1.549835 0
M  V30 23 C -1.491825 -3.939854 -0.022226 0
M  V30 24 C -0.758091 -4.918372 -0.662788 0
M  V30 25 C -1.323572 -5.751093 -1.604931 0
M  V30 26 C -2.655691 -5.624375 -1.934753 0
M  V30 27 O -3.471389 -6.302707 -2.820697 0
M  V30 28 C -3.015903 -7.353489 -3.619531 0
M  V30 29 C -3.183819 -7.047844 -5.095729 0
M  V30 30 C -3.791669 -8.639960 -3.378265 0
M  V30 31 C -3.407076 -4.633675 -1.289045 0
M  V30 32 C -2.827296 -3.790380 -0.332563 0
M  V30 33 H 0.534874 -4.494277 3.397867 0
M  V30 34 H 0.754655 -4.067346 5.151409 0
M  V30 35 H -0.778789 -3.713152 4.285495 0
M  V30 36 H 1.250603 -1.807813 5.730622 0
M  V30 37 H 2.156785 0.408735 4.944471 0
M  V30 38 H 3.381078 1.146273 2.201748 0
M  V30 39 H 4.173691 2.874223 1.457037 0
M  V30 40 H 5.065591 4.983197 0.562876 0
M  V30 41 H 3.518994 6.889172 0.223739 0
M  V30 42 H -1.123684 7.630164 0.784397 0
M  V30 43 H -0.964214 5.844656 0.571695 0
M  V30 44 H -0.650364 6.494942 2.179959 0
M  V30 45 H 0.405323 8.755095 -0.208713 0
M  V30 46 H 2.103772 8.153749 -0.524922 0
M  V30 47 H 1.628268 8.891586 1.053824 0
M  V30 48 H 0.299613 4.580787 1.649596 0
M  V30 49 H 1.432717 -0.770952 0.877767 0
M  V30 50 H 1.091721 -3.824474 0.943951 0
M  V30 51 H 0.287138 -5.070069 -0.451288 0
M  V30 52 H -0.850205 -6.535473 -2.156720 0
M  V30 53 H -1.947726 -7.593408 -3.480124 0
M  V30 54 H -2.369836 -6.385877 -5.393732 0
M  V30 55 H -4.143645 -6.511850 -5.191674 0
M  V30 56 H -3.143461 -7.991164 -5.638730 0
M  V30 57 H -3.526576 -9.304215 -4.232094 0
M  V30 58 H -3.460360 -9.170422 -2.474489 0
M  V30 59 H -4.869425 -8.454120 -3.405847 0
M  V30 60 H -4.473295 -4.399346 -1.432780 0
M  V30 61 H -3.375275 -3.017024 0.184354 0
M  V30 END ATOM
M  V30 BEGIN BOND
M  V30 1 1 1 2
M  V30 2 2 2 3
M  V30 3 1 3 4
M  V30 4 2 4 5
M  V30 5 1 5 6
M  V30 6 1 6 7
M  V30 7 2 7 8
M  V30 8 1 7 9
M  V30 9 2 9 10
M  V30 10 1 10 11
M  V30 11 2 11 12
M  V30 12 1 12 13
M  V30 13 1 13 14
M  V30 14 1 14 15
M  V30 15 1 14 16
M  V30 16 2 13 17
M  V30 17 1 5 18
M  V30 18 2 18 19
M  V30 19 1 19 20
M  V30 20 1 20 21
M  V30 21 2 21 22
M  V30 22 1 21 23
M  V30 23 2 23 24
M  V30 24 1 24 25
M  V30 25 2 25 26
M  V30 26 1 26 27
M  V30 27 1 27 28
M  V30 28 1 28 29
M  V30 29 1 28 30
M  V30 30 1 26 31
M  V30 31 2 31 32
M  V30 32 1 19 2
M  V30 33 1 32 23
M  V30 34 1 17 9
M  V30 35 1 1 33
M  V30 36 1 1 34
M  V30 37 1 1 35
M  V30 38 1 3 36
M  V30 39 1 4 37
M  V30 40 1 6 38
M  V30 41 1 10 39
M  V30 42 1 11 40
M  V30 43 1 12 41
M  V30 44 1 15 42
M  V30 45 1 15 43
M  V30 46 1 15 44
M  V30 47 1 16 45
M  V30 48 1 16 46
M  V30 49 1 16 47
M  V30 50 1 17 48
M  V30 51 1 18 49
M  V30 52 1 20 50
M  V30 53 1 24 51
M  V30 54 1 25 52
M  V30 55 1 28 53
M  V30 56 1 29 54
M  V30 57 1 29 55
M  V30 58 1 29 56
M  V30 59 1 30 57
M  V30 60 1 30 58
M  V30 61 1 30 59
M  V30 62 1 31 60
M  V30 63 1 32 61
M  V30 END BOND
M  V30 END CTAB
M  END
>  <Dataset>  (245) 
ChEMBL_Kinases

>  <Ligand_Instance>  (245) 
nan

>  <PDB_ID>  (245) 
nan

>  <Standardized_SMILES>  (245) 
Cc1ccc(NC(=O)c2cccc(N(C)C)c2)cc1NC(=O)c1ccc(OC(C)C)cc1

>  <Name>  (245) 
nan

>  <Pocket>  (245) 
nan

>  <ATP_Site>  (245) 
nan

>  <Peripheral>  (245) 
nan

>  <Num_H_Atoms_ProtBoundConf>  (245) 
nan

>  <Num_Resolved_Atoms>  (245) 
nan

>  <Num_Not_Resolved_Atoms>  (245) 
nan

$$$$
CHEMBL3654719
     RDKit          3D

  0  0  0  0  0  0  0  0  0  0999 V3000
M  V30 BEGIN CTAB
M  V30 COUNTS 36 38 0 0 0
M  V30 BEGIN ATOM
M  V30 1 C -0.476533 -3.057312 3.223032 0
M  V30 2 C -0.789553 -1.996351 2.201711 0 CFG=1
M  V30 3 N 0.267728 -1.885596 1.212781 0
M  V30 4 C 0.946587 -0.667478 0.967811 0
M  V30 5 O 0.620117 0.349827 1.630688 0
M  V30 6 N 1.978377 -0.650665 -0.028287 0
M  V30 7 C 2.599687 0.620178 -0.199441 0
M  V30 8 C 2.090708 1.521351 -1.117701 0
M  V30 9 C 2.643426 2.774311 -1.336644 0
M  V30 10 N 2.339379 3.805737 -2.153901 0
M  V30 11 N 3.200056 4.783954 -1.964670 0
M  V30 12 C 4.107355 4.439762 -1.015652 0
M  V30 13 Br 5.586235 5.430996 -0.314675 0
M  V30 14 C 3.765300 3.162646 -0.606743 0
M  V30 15 C 4.244856 2.244555 0.296041 0
M  V30 16 N 3.697315 1.035860 0.495209 0
M  V30 17 C -2.028467 -2.404930 1.485277 0
M  V30 18 C -3.253561 -1.789651 1.739607 0
M  V30 19 C -4.373317 -2.225716 1.029344 0
M  V30 20 C -4.290518 -3.236525 0.097015 0
M  V30 21 F -5.431684 -3.605287 -0.555403 0
M  V30 22 C -3.072302 -3.860693 -0.167538 0
M  V30 23 Cl -2.976214 -5.144916 -1.354470 0
M  V30 24 C -1.959409 -3.417136 0.547977 0
M  V30 25 H -0.290629 -2.564310 4.200122 0
M  V30 26 H -1.338313 -3.753113 3.388739 0
M  V30 27 H 0.374819 -3.706668 2.964632 0
M  V30 28 H -0.940764 -0.990801 2.693922 0
M  V30 29 H 0.534295 -2.731692 0.666599 0
M  V30 30 H 2.262959 -1.484779 -0.588212 0
M  V30 31 H 1.230473 1.246545 -1.689894 0
M  V30 32 H 1.534883 3.802163 -2.827128 0
M  V30 33 H 5.125616 2.515386 0.887625 0
M  V30 34 H -3.332237 -0.994728 2.469204 0
M  V30 35 H -5.328477 -1.742190 1.231243 0
M  V30 36 H -1.054526 -3.949605 0.286766 0
M  V30 END ATOM
M  V30 BEGIN BOND
M  V30 1 1 1 2
M  V30 2 1 2 3
M  V30 3 1 3 4
M  V30 4 2 4 5
M  V30 5 1 4 6
M  V30 6 1 6 7
M  V30 7 2 7 8
M  V30 8 1 8 9
M  V30 9 1 9 10
M  V30 10 1 10 11
M  V30 11 2 11 12
M  V30 12 1 12 13
M  V30 13 1 12 14
M  V30 14 1 14 15
M  V30 15 2 15 16
M  V30 16 1 2 17
M  V30 17 2 17 18
M  V30 18 1 18 19
M  V30 19 2 19 20
M  V30 20 1 20 21
M  V30 21 1 20 22
M  V30 22 1 22 23
M  V30 23 2 22 24
M  V30 24 1 16 7
M  V30 25 1 24 17
M  V30 26 2 14 9
M  V30 27 1 1 25
M  V30 28 1 1 26
M  V30 29 1 1 27
M  V30 30 1 2 28 CFG=1
M  V30 31 1 3 29
M  V30 32 1 6 30
M  V30 33 1 8 31
M  V30 34 1 10 32
M  V30 35 1 15 33
M  V30 36 1 18 34
M  V30 37 1 19 35
M  V30 38 1 24 36
M  V30 END BOND
M  V30 END CTAB
M  END
>  <Dataset>  (246) 
ChEMBL_Kinases

>  <Ligand_Instance>  (246) 
nan

>  <PDB_ID>  (246) 
nan

>  <Standardized_SMILES>  (246) 
C[C@@H](NC(=O)Nc1cc2[nH]nc(Br)c2cn1)c1ccc(F)c(Cl)c1

>  <Name>  (246) 
nan

>  <Pocket>  (246) 
nan

>  <ATP_Site>  (246) 
nan

>  <Peripheral>  (246) 
nan

>  <Num_H_Atoms_ProtBoundConf>  (246) 
nan

>  <Num_Resolved_Atoms>  (246) 
nan

>  <Num_Not_Resolved_Atoms>  (246) 
nan

$$$$
CHEMBL3654718
     RDKit          3D

  0  0  0  0  0  0  0  0  0  0999 V3000
M  V30 BEGIN CTAB
M  V30 COUNTS 43 45 0 0 0
M  V30 BEGIN ATOM
M  V30 1 C -3.939009 -6.625212 5.154831 0
M  V30 2 C -2.779869 -5.743819 4.876009 0
M  V30 3 C -2.878491 -4.778384 3.975199 0
M  V30 4 C -1.689153 -3.964417 3.769434 0
M  V30 5 N -0.508314 -4.058904 4.367235 0
M  V30 6 N 0.361084 -3.158179 3.945153 0
M  V30 7 C -0.284633 -2.429954 3.017060 0
M  V30 8 C 0.088210 -1.362040 2.230337 0
M  V30 9 C -0.731034 -0.739580 1.320717 0
M  V30 10 N -0.413982 0.355240 0.485802 0
M  V30 11 C 0.769771 1.091227 0.346899 0
M  V30 12 O 1.712125 0.746948 1.062905 0
M  V30 13 N 0.993603 2.175128 -0.518885 0
M  V30 14 C 2.279166 2.845655 -0.555312 0 CFG=2
M  V30 15 C 2.195452 4.285882 -0.165047 0
M  V30 16 C 2.860297 2.628508 -1.895736 0
M  V30 17 C 2.738279 1.301800 -2.315752 0
M  V30 18 C 3.225038 0.898383 -3.551724 0
M  V30 19 C 3.831085 1.859423 -4.342614 0
M  V30 20 C 3.949428 3.165010 -3.925620 0
M  V30 21 C 3.460289 3.551671 -2.693176 0
M  V30 22 N -1.970723 -1.256002 1.240172 0
M  V30 23 C -2.376394 -2.292509 1.984702 0
M  V30 24 C -1.564039 -2.924029 2.899373 0
M  V30 25 H -4.229076 -6.501770 6.202327 0
M  V30 26 H -3.653925 -7.702987 5.031053 0
M  V30 27 H -4.814052 -6.353360 4.518720 0
M  V30 28 H -1.904519 -5.974747 5.462122 0
M  V30 29 H -3.779005 -4.583682 3.410328 0
M  V30 30 H 1.353670 -3.002399 4.238645 0
M  V30 31 H 1.080615 -1.014924 2.353725 0
M  V30 32 H -1.132539 0.734690 -0.164065 0
M  V30 33 H 0.193693 2.479194 -1.137174 0
M  V30 34 H 2.946687 2.348078 0.177337 0
M  V30 35 H 1.418770 4.360993 0.648963 0
M  V30 36 H 3.138658 4.596447 0.323700 0
M  V30 37 H 1.853937 4.973627 -0.947065 0
M  V30 38 H 2.272607 0.500118 -1.740379 0
M  V30 39 H 3.136372 -0.139285 -3.894549 0
M  V30 40 H 4.209145 1.525779 -5.312964 0
M  V30 41 H 4.430527 3.917919 -4.558556 0
M  V30 42 H 3.517427 4.546297 -2.305649 0
M  V30 43 H -3.392211 -2.661213 1.870310 0
M  V30 END ATOM
M  V30 BEGIN BOND
M  V30 1 1 1 2
M  V30 2 2 2 3
M  V30 3 1 3 4
M  V30 4 2 4 5
M  V30 5 1 5 6
M  V30 6 1 6 7
M  V30 7 2 7 8
M  V30 8 1 8 9
M  V30 9 1 9 10
M  V30 10 1 10 11
M  V30 11 2 11 12
M  V30 12 1 11 13
M  V30 13 1 13 14
M  V30 14 1 14 15
M  V30 15 1 14 16
M  V30 16 2 16 17
M  V30 17 1 17 18
M  V30 18 2 18 19
M  V30 19 1 19 20
M  V30 20 2 20 21
M  V30 21 2 9 22
M  V30 22 1 22 23
M  V30 23 2 23 24
M  V30 24 1 24 4
M  V30 25 1 24 7
M  V30 26 1 21 16
M  V30 27 1 1 25
M  V30 28 1 1 26
M  V30 29 1 1 27
M  V30 30 1 2 28
M  V30 31 1 3 29
M  V30 32 1 6 30
M  V30 33 1 8 31
M  V30 34 1 10 32
M  V30 35 1 13 33
M  V30 36 1 14 34 CFG=1
M  V30 37 1 15 35
M  V30 38 1 15 36
M  V30 39 1 15 37
M  V30 40 1 17 38
M  V30 41 1 18 39
M  V30 42 1 19 40
M  V30 43 1 20 41
M  V30 44 1 21 42
M  V30 45 1 23 43
M  V30 END BOND
M  V30 END CTAB
M  END
>  <Dataset>  (247) 
ChEMBL_Kinases

>  <Ligand_Instance>  (247) 
nan

>  <PDB_ID>  (247) 
nan

>  <Standardized_SMILES>  (247) 
C/C=C/c1n[nH]c2cc(NC(=O)N[C@H](C)c3ccccc3)ncc12

>  <Name>  (247) 
nan

>  <Pocket>  (247) 
nan

>  <ATP_Site>  (247) 
nan

>  <Peripheral>  (247) 
nan

>  <Num_H_Atoms_ProtBoundConf>  (247) 
nan

>  <Num_Resolved_Atoms>  (247) 
nan

>  <Num_Not_Resolved_Atoms>  (247) 
nan

$$$$
CHEMBL3654717
     RDKit          3D

  0  0  0  0  0  0  0  0  0  0999 V3000
M  V30 BEGIN CTAB
M  V30 COUNTS 47 50 0 0 0
M  V30 BEGIN ATOM
M  V30 1 C -1.777453 -3.836419 4.301853 0
M  V30 2 C -1.355919 -3.911793 2.837399 0 CFG=1
M  V30 3 N -0.084344 -3.237016 2.644190 0
M  V30 4 C 0.037213 -2.103276 1.798148 0
M  V30 5 O -1.003875 -1.685497 1.205422 0
M  V30 6 N 1.317276 -1.469232 1.638610 0
M  V30 7 C 1.316876 -0.339828 0.764365 0
M  V30 8 C 1.535561 -0.324491 -0.600782 0
M  V30 9 C 1.488375 0.894286 -1.254834 0
M  V30 10 N 1.666886 1.157130 -2.563583 0
M  V30 11 N 1.522249 2.478264 -2.694078 0
M  V30 12 C 1.255799 3.047412 -1.486980 0
M  V30 13 C 1.037032 4.473854 -1.240534 0
M  V30 14 C 1.620111 5.151470 -0.184905 0
M  V30 15 C 1.367444 6.512878 -0.009605 0
M  V30 16 C 0.537297 7.175420 -0.890414 0
M  V30 17 C 0.344228 8.587260 -0.614429 0
M  V30 18 N 0.180025 9.712076 -0.378712 0
M  V30 19 C -0.052635 6.531660 -1.942462 0
M  V30 20 C 0.212167 5.186422 -2.095000 0
M  V30 21 C 1.227815 2.045865 -0.536334 0
M  V30 22 C 1.012979 2.001763 0.827308 0
M  V30 23 N 1.059806 0.807248 1.464750 0
M  V30 24 C -1.336568 -5.323065 2.440855 0
M  V30 25 C -2.278996 -6.007278 1.700992 0
M  V30 26 C -2.130743 -7.349489 1.398565 0
M  V30 27 C -1.015012 -8.061633 1.834769 0
M  V30 28 C -0.078078 -7.371320 2.573233 0
M  V30 29 C -0.215225 -6.034217 2.880575 0
M  V30 30 H -2.860104 -4.054309 4.331399 0
M  V30 31 H -1.666128 -2.802250 4.704885 0
M  V30 32 H -1.180743 -4.588971 4.844590 0
M  V30 33 H -2.102136 -3.358159 2.215403 0
M  V30 34 H 0.795593 -3.567479 3.127672 0
M  V30 35 H 2.179714 -1.824465 2.136699 0
M  V30 36 H 1.725209 -1.281590 -1.031419 0
M  V30 37 H 1.876518 0.472728 -3.329578 0
M  V30 38 H 2.267896 4.623046 0.498012 0
M  V30 39 H 1.861721 6.982546 0.845211 0
M  V30 40 H -0.695205 7.097438 -2.604008 0
M  V30 41 H -0.270395 4.691544 -2.943443 0
M  V30 42 H 0.811444 2.921679 1.360243 0
M  V30 43 H -3.126699 -5.423144 1.382016 0
M  V30 44 H -2.888654 -7.863597 0.814004 0
M  V30 45 H -0.915930 -9.111539 1.588492 0
M  V30 46 H 0.772993 -7.954168 2.894516 0
M  V30 47 H 0.594702 -5.612036 3.468517 0
M  V30 END ATOM
M  V30 BEGIN BOND
M  V30 1 1 1 2
M  V30 2 1 2 3
M  V30 3 1 3 4
M  V30 4 2 4 5
M  V30 5 1 4 6
M  V30 6 1 6 7
M  V30 7 2 7 8
M  V30 8 1 8 9
M  V30 9 1 9 10
M  V30 10 1 10 11
M  V30 11 2 11 12
M  V30 12 1 12 13
M  V30 13 2 13 14
M  V30 14 1 14 15
M  V30 15 2 15 16
M  V30 16 1 16 17
M  V30 17 3 17 18
M  V30 18 1 16 19
M  V30 19 2 19 20
M  V30 20 1 12 21
M  V30 21 1 21 22
M  V30 22 2 22 23
M  V30 23 1 2 24
M  V30 24 2 24 25
M  V30 25 1 25 26
M  V30 26 2 26 27
M  V30 27 1 27 28
M  V30 28 2 28 29
M  V30 29 1 23 7
M  V30 30 1 29 24
M  V30 31 2 21 9
M  V30 32 1 20 13
M  V30 33 1 1 30
M  V30 34 1 1 31
M  V30 35 1 1 32
M  V30 36 1 2 33 CFG=3
M  V30 37 1 3 34
M  V30 38 1 6 35
M  V30 39 1 8 36
M  V30 40 1 10 37
M  V30 41 1 14 38
M  V30 42 1 15 39
M  V30 43 1 19 40
M  V30 44 1 20 41
M  V30 45 1 22 42
M  V30 46 1 25 43
M  V30 47 1 26 44
M  V30 48 1 27 45
M  V30 49 1 28 46
M  V30 50 1 29 47
M  V30 END BOND
M  V30 END CTAB
M  END
>  <Dataset>  (248) 
ChEMBL_Kinases

>  <Ligand_Instance>  (248) 
nan

>  <PDB_ID>  (248) 
nan

>  <Standardized_SMILES>  (248) 
C[C@@H](NC(=O)Nc1cc2[nH]nc(-c3ccc(C#N)cc3)c2cn1)c1ccccc1

>  <Name>  (248) 
nan

>  <Pocket>  (248) 
nan

>  <ATP_Site>  (248) 
nan

>  <Peripheral>  (248) 
nan

>  <Num_H_Atoms_ProtBoundConf>  (248) 
nan

>  <Num_Resolved_Atoms>  (248) 
nan

>  <Num_Not_Resolved_Atoms>  (248) 
nan

$$$$
CHEMBL3654716
     RDKit          3D

  0  0  0  0  0  0  0  0  0  0999 V3000
M  V30 BEGIN CTAB
M  V30 COUNTS 52 56 0 0 0
M  V30 BEGIN ATOM
M  V30 1 C 2.613826 -5.440766 3.000328 0
M  V30 2 C 1.939405 -5.009395 1.719074 0 CFG=1
M  V30 3 N 2.682042 -3.872466 1.168501 0
M  V30 4 C 2.085260 -2.586205 1.047565 0
M  V30 5 O 0.881999 -2.425877 1.426822 0
M  V30 6 N 2.796267 -1.469336 0.513181 0
M  V30 7 C 2.169829 -0.195023 0.405694 0
M  V30 8 C 2.826172 0.902227 -0.104614 0
M  V30 9 C 2.148781 2.110499 -0.177361 0
M  V30 10 N 2.458358 3.350571 -0.603079 0
M  V30 11 N 1.423359 4.171494 -0.451687 0
M  V30 12 C 0.365863 3.499604 0.089845 0
M  V30 13 C -0.953448 4.033911 0.413982 0
M  V30 14 C -1.112118 5.259713 1.072770 0
M  V30 15 C -2.387504 5.729098 1.360945 0
M  V30 16 C -3.525126 5.036008 1.024742 0
M  V30 17 N -4.862045 5.245466 1.176029 0
M  V30 18 N -5.533009 4.231642 0.654878 0
M  V30 19 C -6.964103 3.979506 0.562623 0
M  V30 20 C -4.662705 3.329037 0.147515 0
M  V30 21 C -3.382055 3.814081 0.368482 0
M  V30 22 C -2.099328 3.342009 0.078658 0
M  V30 23 C 0.841710 2.212303 0.253242 0
M  V30 24 C 0.221174 1.107593 0.752948 0
M  V30 25 N 0.896041 -0.054664 0.814794 0
M  V30 26 C 1.807423 -6.120133 0.770257 0
M  V30 27 C 2.827451 -6.618824 -0.016310 0
M  V30 28 C 2.635172 -7.678781 -0.899592 0
M  V30 29 C 1.389388 -8.269439 -1.011397 0
M  V30 30 Cl 1.065834 -9.608831 -2.100614 0
M  V30 31 C 0.322381 -7.820996 -0.254051 0
M  V30 32 C 0.584905 -6.772271 0.595723 0
M  V30 33 H 2.543751 -6.547696 3.034897 0
M  V30 34 H 2.104012 -5.044015 3.892634 0
M  V30 35 H 3.699299 -5.201552 2.983262 0
M  V30 36 H 0.918536 -4.660590 1.986392 0
M  V30 37 H 3.668684 -3.996987 0.855746 0
M  V30 38 H 3.798294 -1.575180 0.190261 0
M  V30 39 H 3.850358 0.833387 -0.444825 0
M  V30 40 H 3.398968 3.596533 -0.994702 0
M  V30 41 H -0.230205 5.838406 1.355486 0
M  V30 42 H -2.532232 6.677966 1.871544 0
M  V30 43 H -7.450915 4.560233 1.374744 0
M  V30 44 H -7.283501 4.271862 -0.455482 0
M  V30 45 H -7.201001 2.902588 0.700086 0
M  V30 46 H -4.865346 2.384683 -0.350412 0
M  V30 47 H -2.080695 2.404489 -0.422161 0
M  V30 48 H -0.795263 1.082934 1.114395 0
M  V30 49 H 3.813773 -6.149650 0.073574 0
M  V30 50 H 3.433927 -8.068690 -1.514994 0
M  V30 51 H -0.687938 -8.223943 -0.276726 0
M  V30 52 H -0.239364 -6.393072 1.210073 0
M  V30 END ATOM
M  V30 BEGIN BOND
M  V30 1 1 1 2
M  V30 2 1 2 3
M  V30 3 1 3 4
M  V30 4 2 4 5
M  V30 5 1 4 6
M  V30 6 1 6 7
M  V30 7 2 7 8
M  V30 8 1 8 9
M  V30 9 1 9 10
M  V30 10 1 10 11
M  V30 11 2 11 12
M  V30 12 1 12 13
M  V30 13 1 13 14
M  V30 14 2 14 15
M  V30 15 1 15 16
M  V30 16 2 16 17
M  V30 17 1 17 18
M  V30 18 1 18 19
M  V30 19 1 18 20
M  V30 20 2 20 21
M  V30 21 1 21 22
M  V30 22 1 12 23
M  V30 23 1 23 24
M  V30 24 2 24 25
M  V30 25 1 2 26
M  V30 26 2 26 27
M  V30 27 1 27 28
M  V30 28 2 28 29
M  V30 29 1 29 30
M  V30 30 1 29 31
M  V30 31 2 31 32
M  V30 32 1 25 7
M  V30 33 1 32 26
M  V30 34 2 23 9
M  V30 35 2 22 13
M  V30 36 1 21 16
M  V30 37 1 1 33
M  V30 38 1 1 34
M  V30 39 1 1 35
M  V30 40 1 2 36 CFG=1
M  V30 41 1 3 37
M  V30 42 1 6 38
M  V30 43 1 8 39
M  V30 44 1 10 40
M  V30 45 1 14 41
M  V30 46 1 15 42
M  V30 47 1 19 43
M  V30 48 1 19 44
M  V30 49 1 19 45
M  V30 50 1 20 46
M  V30 51 1 22 47
M  V30 52 1 24 48
M  V30 53 1 27 49
M  V30 54 1 28 50
M  V30 55 1 31 51
M  V30 56 1 32 52
M  V30 END BOND
M  V30 END CTAB
M  END
>  <Dataset>  (249) 
ChEMBL_Kinases

>  <Ligand_Instance>  (249) 
nan

>  <PDB_ID>  (249) 
nan

>  <Standardized_SMILES>  (249) 
C[C@@H](NC(=O)Nc1cc2[nH]nc(-c3ccc4nn(C)cc4c3)c2cn1)c1ccc(Cl)cc1

>  <Name>  (249) 
nan

>  <Pocket>  (249) 
nan

>  <ATP_Site>  (249) 
nan

>  <Peripheral>  (249) 
nan

>  <Num_H_Atoms_ProtBoundConf>  (249) 
nan

>  <Num_Resolved_Atoms>  (249) 
nan

>  <Num_Not_Resolved_Atoms>  (249) 
nan

$$$$
CHEMBL3654715
     RDKit          3D

  0  0  0  0  0  0  0  0  0  0999 V3000
M  V30 BEGIN CTAB
M  V30 COUNTS 49 53 0 0 0
M  V30 BEGIN ATOM
M  V30 1 C 6.810073 -5.847844 2.820863 0
M  V30 2 N 6.015596 -4.903375 2.032869 0
M  V30 3 C 5.667497 -3.667565 2.451246 0
M  V30 4 C 4.932993 -3.113970 1.425692 0
M  V30 5 C 4.314004 -1.871058 1.284069 0
M  V30 6 C 3.600913 -1.495140 0.139603 0
M  V30 7 C 3.010906 -0.161632 0.141015 0
M  V30 8 N 3.678436 0.955183 0.551349 0
M  V30 9 N 2.848565 2.002842 0.425296 0
M  V30 10 C 1.664543 1.597617 -0.054087 0
M  V30 11 C 0.480565 2.267169 -0.363074 0
M  V30 12 C -0.548664 1.485983 -0.846393 0
M  V30 13 N -1.820285 2.075451 -1.193409 0
M  V30 14 C -2.712845 2.086554 -0.079503 0
M  V30 15 O -2.438107 1.639971 1.069682 0
M  V30 16 N -4.008781 2.610780 -0.173486 0
M  V30 17 C -5.008073 2.676062 0.886344 0
M  V30 18 C -5.664535 1.395039 1.161520 0
M  V30 19 C -6.799776 1.169928 0.386316 0
M  V30 20 C -7.534294 0.011714 0.524109 0
M  V30 21 C -7.186445 -0.968731 1.424214 0
M  V30 22 F -7.810496 -2.140070 1.659752 0
M  V30 23 C -6.056567 -0.748592 2.198139 0
M  V30 24 Cl -5.421962 -1.864253 3.415335 0
M  V30 25 C -5.322805 0.408599 2.060578 0
M  V30 26 N -0.460435 0.136071 -1.028480 0
M  V30 27 C 0.696326 -0.525689 -0.727926 0
M  V30 28 C 1.733910 0.216882 -0.247442 0
M  V30 29 C 3.538274 -2.436628 -0.866803 0
M  V30 30 C 4.147687 -3.664457 -0.731124 0
M  V30 31 C 4.849230 -4.030277 0.398849 0
M  V30 32 N 5.522224 -5.107281 0.809036 0
M  V30 33 H 7.717489 -5.337166 3.241585 0
M  V30 34 H 7.185794 -6.638016 2.112710 0
M  V30 35 H 6.196580 -6.355629 3.565642 0
M  V30 36 H 5.926701 -3.228306 3.402595 0
M  V30 37 H 4.398579 -1.169021 2.112999 0
M  V30 38 H 3.085677 2.979421 0.662037 0
M  V30 39 H 0.383996 3.324053 -0.230232 0
M  V30 40 H -2.227218 2.495317 -2.083022 0
M  V30 41 H -4.338248 3.011725 -1.095069 0
M  V30 42 H -5.734366 3.482948 0.725759 0
M  V30 43 H -4.445630 2.956796 1.828797 0
M  V30 44 H -7.188755 1.860345 -0.364332 0
M  V30 45 H -8.432459 -0.237312 -0.044168 0
M  V30 46 H -4.437882 0.630149 2.639096 0
M  V30 47 H 0.746311 -1.595917 -0.879269 0
M  V30 48 H 2.977505 -2.124051 -1.752672 0
M  V30 49 H 4.061151 -4.352069 -1.551003 0
M  V30 END ATOM
M  V30 BEGIN BOND
M  V30 1 1 1 2
M  V30 2 1 2 3
M  V30 3 2 3 4
M  V30 4 1 4 5
M  V30 5 2 5 6
M  V30 6 1 6 7
M  V30 7 2 7 8
M  V30 8 1 8 9
M  V30 9 1 9 10
M  V30 10 2 10 11
M  V30 11 1 11 12
M  V30 12 1 12 13
M  V30 13 1 13 14
M  V30 14 2 14 15
M  V30 15 1 14 16
M  V30 16 1 16 17
M  V30 17 1 17 18
M  V30 18 2 18 19
M  V30 19 1 19 20
M  V30 20 2 20 21
M  V30 21 1 21 22
M  V30 22 1 21 23
M  V30 23 1 23 24
M  V30 24 2 23 25
M  V30 25 2 12 26
M  V30 26 1 26 27
M  V30 27 2 27 28
M  V30 28 1 6 29
M  V30 29 2 29 30
M  V30 30 1 30 31
M  V30 31 2 31 32
M  V30 32 1 32 2
M  V30 33 1 31 4
M  V30 34 1 28 7
M  V30 35 1 28 10
M  V30 36 1 25 18
M  V30 37 1 1 33
M  V30 38 1 1 34
M  V30 39 1 1 35
M  V30 40 1 3 36
M  V30 41 1 5 37
M  V30 42 1 9 38
M  V30 43 1 11 39
M  V30 44 1 13 40
M  V30 45 1 16 41
M  V30 46 1 17 42
M  V30 47 1 17 43
M  V30 48 1 19 44
M  V30 49 1 20 45
M  V30 50 1 25 46
M  V30 51 1 27 47
M  V30 52 1 29 48
M  V30 53 1 30 49
M  V30 END BOND
M  V30 END CTAB
M  END
>  <Dataset>  (250) 
ChEMBL_Kinases

>  <Ligand_Instance>  (250) 
nan

>  <PDB_ID>  (250) 
nan

>  <Standardized_SMILES>  (250) 
Cn1cc2cc(-c3n[nH]c4cc(NC(=O)NCc5ccc(F)c(Cl)c5)ncc34)ccc2n1

>  <Name>  (250) 
nan

>  <Pocket>  (250) 
nan

>  <ATP_Site>  (250) 
nan

>  <Peripheral>  (250) 
nan

>  <Num_H_Atoms_ProtBoundConf>  (250) 
nan

>  <Num_Resolved_Atoms>  (250) 
nan

>  <Num_Not_Resolved_Atoms>  (250) 
nan

$$$$
CHEMBL3654714
     RDKit          3D

  0  0  0  0  0  0  0  0  0  0999 V3000
M  V30 BEGIN CTAB
M  V30 COUNTS 52 56 0 0 0
M  V30 BEGIN ATOM
M  V30 1 C 2.666589 -5.451037 2.977941 0
M  V30 2 C 1.966656 -5.003176 1.717348 0 CFG=1
M  V30 3 N 2.718328 -3.888624 1.156928 0
M  V30 4 C 2.144325 -2.593098 1.026412 0
M  V30 5 O 0.955849 -2.478954 1.424323 0
M  V30 6 N 2.830535 -1.468198 0.486870 0
M  V30 7 C 2.196118 -0.197349 0.384515 0
M  V30 8 C 2.849718 0.899740 -0.135977 0
M  V30 9 C 2.162248 2.104695 -0.202110 0
M  V30 10 N 2.456722 3.336111 -0.628348 0
M  V30 11 N 1.405171 4.154273 -0.462895 0
M  V30 12 C 0.367263 3.479517 0.085981 0
M  V30 13 C -0.946570 4.025454 0.416602 0
M  V30 14 C -1.121959 5.240386 1.062319 0
M  V30 15 C -2.389946 5.723132 1.358146 0
M  V30 16 C -3.525100 5.012023 1.020752 0
M  V30 17 N -4.855736 5.237242 1.182976 0
M  V30 18 N -5.531165 4.203934 0.660802 0
M  V30 19 C -6.964727 3.956042 0.577188 0
M  V30 20 C -4.649889 3.319303 0.165950 0
M  V30 21 C -3.348401 3.793118 0.372900 0
M  V30 22 C -2.082869 3.318156 0.081254 0
M  V30 23 C 0.854003 2.176471 0.249830 0
M  V30 24 C 0.241355 1.076584 0.756318 0
M  V30 25 N 0.922028 -0.074776 0.810955 0
M  V30 26 C 1.777383 -6.114873 0.771062 0
M  V30 27 C 2.787037 -6.623283 -0.035440 0
M  V30 28 C 2.540123 -7.682860 -0.914668 0
M  V30 29 C 1.293862 -8.253525 -1.008637 0
M  V30 30 F 0.997690 -9.282521 -1.843258 0
M  V30 31 C 0.247350 -7.790222 -0.230584 0
M  V30 32 C 0.549275 -6.742308 0.619285 0
M  V30 33 H 3.175804 -6.404408 2.727519 0
M  V30 34 H 1.915792 -5.595826 3.777239 0
M  V30 35 H 3.371305 -4.676168 3.329900 0
M  V30 36 H 0.951410 -4.626255 1.984643 0
M  V30 37 H 3.704917 -4.031607 0.839153 0
M  V30 38 H 3.817247 -1.596271 0.165176 0
M  V30 39 H 3.871343 0.833990 -0.486382 0
M  V30 40 H 3.391552 3.600966 -1.033520 0
M  V30 41 H -0.237522 5.815603 1.336343 0
M  V30 42 H -2.520839 6.688834 1.871120 0
M  V30 43 H -7.431837 4.549901 1.383013 0
M  V30 44 H -7.340829 4.231077 -0.425132 0
M  V30 45 H -7.186903 2.873215 0.734588 0
M  V30 46 H -4.855718 2.367461 -0.328695 0
M  V30 47 H -2.078275 2.376820 -0.414746 0
M  V30 48 H -0.769276 1.076303 1.119940 0
M  V30 49 H 3.777028 -6.185697 0.024907 0
M  V30 50 H 3.323865 -8.078752 -1.541838 0
M  V30 51 H -0.763409 -8.173392 -0.234371 0
M  V30 52 H -0.264581 -6.353712 1.250092 0
M  V30 END ATOM
M  V30 BEGIN BOND
M  V30 1 1 1 2
M  V30 2 1 2 3
M  V30 3 1 3 4
M  V30 4 2 4 5
M  V30 5 1 4 6
M  V30 6 1 6 7
M  V30 7 2 7 8
M  V30 8 1 8 9
M  V30 9 1 9 10
M  V30 10 1 10 11
M  V30 11 2 11 12
M  V30 12 1 12 13
M  V30 13 1 13 14
M  V30 14 2 14 15
M  V30 15 1 15 16
M  V30 16 2 16 17
M  V30 17 1 17 18
M  V30 18 1 18 19
M  V30 19 1 18 20
M  V30 20 2 20 21
M  V30 21 1 21 22
M  V30 22 1 12 23
M  V30 23 1 23 24
M  V30 24 2 24 25
M  V30 25 1 2 26
M  V30 26 2 26 27
M  V30 27 1 27 28
M  V30 28 2 28 29
M  V30 29 1 29 30
M  V30 30 1 29 31
M  V30 31 2 31 32
M  V30 32 1 25 7
M  V30 33 1 32 26
M  V30 34 2 23 9
M  V30 35 2 22 13
M  V30 36 1 21 16
M  V30 37 1 1 33
M  V30 38 1 1 34
M  V30 39 1 1 35
M  V30 40 1 2 36 CFG=1
M  V30 41 1 3 37
M  V30 42 1 6 38
M  V30 43 1 8 39
M  V30 44 1 10 40
M  V30 45 1 14 41
M  V30 46 1 15 42
M  V30 47 1 19 43
M  V30 48 1 19 44
M  V30 49 1 19 45
M  V30 50 1 20 46
M  V30 51 1 22 47
M  V30 52 1 24 48
M  V30 53 1 27 49
M  V30 54 1 28 50
M  V30 55 1 31 51
M  V30 56 1 32 52
M  V30 END BOND
M  V30 END CTAB
M  END
>  <Dataset>  (251) 
ChEMBL_Kinases

>  <Ligand_Instance>  (251) 
nan

>  <PDB_ID>  (251) 
nan

>  <Standardized_SMILES>  (251) 
C[C@@H](NC(=O)Nc1cc2[nH]nc(-c3ccc4nn(C)cc4c3)c2cn1)c1ccc(F)cc1

>  <Name>  (251) 
nan

>  <Pocket>  (251) 
nan

>  <ATP_Site>  (251) 
nan

>  <Peripheral>  (251) 
nan

>  <Num_H_Atoms_ProtBoundConf>  (251) 
nan

>  <Num_Resolved_Atoms>  (251) 
nan

>  <Num_Not_Resolved_Atoms>  (251) 
nan

$$$$
CHEMBL3654761
     RDKit          3D

  0  0  0  0  0  0  0  0  0  0999 V3000
M  V30 BEGIN CTAB
M  V30 COUNTS 53 55 0 0 0
M  V30 BEGIN ATOM
M  V30 1 C 7.261443 -4.553440 1.765611 0
M  V30 2 O 7.395663 -3.238748 2.200055 0
M  V30 3 C 6.439710 -2.414050 1.523941 0
M  V30 4 C 7.310546 -1.467547 0.717543 0
M  V30 5 C 5.586418 -1.739192 2.564775 0
M  V30 6 N 4.539153 -0.898259 2.093798 0
M  V30 7 C 4.292812 0.256220 1.360180 0
M  V30 8 O 5.418737 0.713987 0.991207 0
M  V30 9 C 3.142177 1.002215 0.949504 0
M  V30 10 N 3.375014 2.131316 0.213461 0
M  V30 11 N 2.214120 2.694865 -0.080142 0
M  V30 12 C 1.166206 2.021062 0.411577 0
M  V30 13 C -0.204913 2.151441 0.407056 0
M  V30 14 C -0.939985 1.187310 1.066121 0
M  V30 15 N -2.378515 1.283984 1.087006 0
M  V30 16 C -3.030363 0.615024 -0.011600 0
M  V30 17 O -2.369893 0.003791 -0.902310 0
M  V30 18 N -4.444090 0.683701 -0.032142 0
M  V30 19 C -5.113081 0.002881 -1.150673 0 CFG=2
M  V30 20 C -5.952936 1.080490 -1.811005 0
M  V30 21 C -6.066733 -1.031223 -0.625792 0
M  V30 22 C -6.141497 -2.304171 -1.158079 0
M  V30 23 C -7.024405 -3.246215 -0.664880 0
M  V30 24 C -7.858956 -2.904092 0.394312 0
M  V30 25 C -7.813941 -1.629399 0.959333 0
M  V30 26 C -6.908830 -0.700314 0.436091 0
M  V30 27 N -0.305259 0.154609 1.690251 0
M  V30 28 C 1.027315 0.022741 1.697986 0
M  V30 29 C 1.774627 0.969189 1.049581 0
M  V30 30 H 8.001903 -5.196344 2.288202 0
M  V30 31 H 7.390562 -4.642971 0.668408 0
M  V30 32 H 6.235658 -4.915091 2.044724 0
M  V30 33 H 5.851783 -3.050333 0.836159 0
M  V30 34 H 8.249556 -2.025983 0.381625 0
M  V30 35 H 6.815676 -1.223167 -0.222978 0
M  V30 36 H 7.707944 -0.642238 1.312326 0
M  V30 37 H 6.324378 -1.148978 3.207253 0
M  V30 38 H 5.198749 -2.587294 3.199327 0
M  V30 39 H 3.615870 -1.307468 2.427697 0
M  V30 40 H 2.144355 3.590689 -0.649388 0
M  V30 41 H -0.637637 2.984015 -0.100694 0
M  V30 42 H -2.891086 1.803760 1.848861 0
M  V30 43 H -5.049942 1.166211 0.663451 0
M  V30 44 H -4.391529 -0.470453 -1.821806 0
M  V30 45 H -6.621914 0.698863 -2.598482 0
M  V30 46 H -6.535515 1.540807 -0.961979 0
M  V30 47 H -5.266187 1.887922 -2.141948 0
M  V30 48 H -5.469616 -2.542718 -1.993028 0
M  V30 49 H -7.049437 -4.240580 -1.116360 0
M  V30 50 H -8.552908 -3.657189 0.775886 0
M  V30 51 H -8.468132 -1.362657 1.788978 0
M  V30 52 H -6.884689 0.287325 0.885430 0
M  V30 53 H 1.477680 -0.808287 2.203171 0
M  V30 END ATOM
M  V30 BEGIN BOND
M  V30 1 1 1 2
M  V30 2 1 2 3
M  V30 3 1 3 4
M  V30 4 1 3 5
M  V30 5 1 5 6
M  V30 6 1 6 7
M  V30 7 2 7 8
M  V30 8 1 7 9
M  V30 9 2 9 10
M  V30 10 1 10 11
M  V30 11 1 11 12
M  V30 12 2 12 13
M  V30 13 1 13 14
M  V30 14 1 14 15
M  V30 15 1 15 16
M  V30 16 2 16 17
M  V30 17 1 16 18
M  V30 18 1 18 19
M  V30 19 1 19 20
M  V30 20 1 19 21
M  V30 21 2 21 22
M  V30 22 1 22 23
M  V30 23 2 23 24
M  V30 24 1 24 25
M  V30 25 2 25 26
M  V30 26 2 14 27
M  V30 27 1 27 28
M  V30 28 2 28 29
M  V30 29 1 29 9
M  V30 30 1 29 12
M  V30 31 1 26 21
M  V30 32 1 1 30
M  V30 33 1 1 31
M  V30 34 1 1 32
M  V30 35 1 3 33
M  V30 36 1 4 34
M  V30 37 1 4 35
M  V30 38 1 4 36
M  V30 39 1 5 37
M  V30 40 1 5 38
M  V30 41 1 6 39
M  V30 42 1 11 40
M  V30 43 1 13 41
M  V30 44 1 15 42
M  V30 45 1 18 43
M  V30 46 1 19 44 CFG=3
M  V30 47 1 20 45
M  V30 48 1 20 46
M  V30 49 1 20 47
M  V30 50 1 22 48
M  V30 51 1 23 49
M  V30 52 1 24 50
M  V30 53 1 25 51
M  V30 54 1 26 52
M  V30 55 1 28 53
M  V30 END BOND
M  V30 END CTAB
M  END
>  <Dataset>  (252) 
ChEMBL_Kinases

>  <Ligand_Instance>  (252) 
nan

>  <PDB_ID>  (252) 
nan

>  <Standardized_SMILES>  (252) 
COC(C)CNC(=O)c1n[nH]c2cc(NC(=O)N[C@H](C)c3ccccc3)ncc12

>  <Name>  (252) 
nan

>  <Pocket>  (252) 
nan

>  <ATP_Site>  (252) 
nan

>  <Peripheral>  (252) 
nan

>  <Num_H_Atoms_ProtBoundConf>  (252) 
nan

>  <Num_Resolved_Atoms>  (252) 
nan

>  <Num_Not_Resolved_Atoms>  (252) 
nan

$$$$
CHEMBL3654697
     RDKit          3D

  0  0  0  0  0  0  0  0  0  0999 V3000
M  V30 BEGIN CTAB
M  V30 COUNTS 47 50 0 0 0
M  V30 BEGIN ATOM
M  V30 1 C 0.190040 -7.248332 2.687565 0
M  V30 2 C -0.116297 -6.914764 1.269523 0
M  V30 3 C -0.230455 -5.588591 0.993261 0
M  V30 4 C -0.512680 -5.117529 -0.278883 0
M  V30 5 C -0.656104 -3.721401 -0.682565 0
M  V30 6 N -1.659075 -3.260061 -1.483960 0
M  V30 7 N -1.508647 -1.958607 -1.661641 0
M  V30 8 C -0.419255 -1.513404 -0.996849 0
M  V30 9 C 0.126535 -0.237826 -0.892508 0
M  V30 10 C 1.266790 -0.179504 -0.108064 0
M  V30 11 N 1.877502 1.120666 0.036377 0
M  V30 12 C 1.329519 1.782659 1.156553 0
M  V30 13 O 0.446700 1.070083 1.745314 0
M  V30 14 N 1.713814 3.086447 1.579333 0
M  V30 15 C 2.705226 3.864493 0.902793 0
M  V30 16 C 1.058411 3.633405 2.752044 0
M  V30 17 C -0.152996 4.377721 2.379975 0
M  V30 18 C -1.428941 3.865331 2.269966 0
M  V30 19 C -2.526649 4.616424 1.916123 0
M  V30 20 C -2.372288 5.979061 1.646584 0
M  V30 21 N -1.120771 6.494141 1.751768 0
M  V30 22 C -0.055346 5.744104 2.099779 0
M  V30 23 N 1.800706 -1.268897 0.501928 0
M  V30 24 C 1.243248 -2.496425 0.378988 0
M  V30 25 C 0.119582 -2.624535 -0.378695 0
M  V30 26 C -0.672621 -6.080226 -1.257884 0
M  V30 27 C -0.554361 -7.423395 -0.965252 0
M  V30 28 N -0.278309 -7.824545 0.291584 0
M  V30 29 H 1.233745 -6.951858 2.929563 0
M  V30 30 H -0.018667 -8.304397 2.936377 0
M  V30 31 H -0.470738 -6.633190 3.338759 0
M  V30 32 H -0.108282 -4.803540 1.751444 0
M  V30 33 H -2.132424 -1.347838 -2.230433 0
M  V30 34 H -0.296246 0.623953 -1.375347 0
M  V30 35 H 2.618894 1.606507 -0.534901 0
M  V30 36 H 2.749592 3.690549 -0.198990 0
M  V30 37 H 2.501590 4.971663 0.984758 0
M  V30 38 H 3.746978 3.733289 1.316352 0
M  V30 39 H 1.750157 4.228132 3.389873 0
M  V30 40 H 0.713312 2.784285 3.405911 0
M  V30 41 H -1.548466 2.815248 2.477590 0
M  V30 42 H -3.488273 4.098966 1.861767 0
M  V30 43 H -3.244559 6.533041 1.374736 0
M  V30 44 H 0.872809 6.303631 2.139183 0
M  V30 45 H 1.656222 -3.380451 0.859807 0
M  V30 46 H -0.896930 -5.839073 -2.296978 0
M  V30 47 H -0.661906 -8.249680 -1.661035 0
M  V30 END ATOM
M  V30 BEGIN BOND
M  V30 1 1 1 2
M  V30 2 2 2 3
M  V30 3 1 3 4
M  V30 4 1 4 5
M  V30 5 2 5 6
M  V30 6 1 6 7
M  V30 7 1 7 8
M  V30 8 2 8 9
M  V30 9 1 9 10
M  V30 10 1 10 11
M  V30 11 1 11 12
M  V30 12 2 12 13
M  V30 13 1 12 14
M  V30 14 1 14 15
M  V30 15 1 14 16
M  V30 16 1 16 17
M  V30 17 2 17 18
M  V30 18 1 18 19
M  V30 19 2 19 20
M  V30 20 1 20 21
M  V30 21 2 21 22
M  V30 22 2 10 23
M  V30 23 1 23 24
M  V30 24 2 24 25
M  V30 25 2 4 26
M  V30 26 1 26 27
M  V30 27 2 27 28
M  V30 28 1 28 2
M  V30 29 1 25 5
M  V30 30 1 25 8
M  V30 31 1 22 17
M  V30 32 1 1 29
M  V30 33 1 1 30
M  V30 34 1 1 31
M  V30 35 1 3 32
M  V30 36 1 7 33
M  V30 37 1 9 34
M  V30 38 1 11 35
M  V30 39 1 15 36
M  V30 40 1 15 37
M  V30 41 1 15 38
M  V30 42 1 16 39
M  V30 43 1 16 40
M  V30 44 1 18 41
M  V30 45 1 19 42
M  V30 46 1 20 43
M  V30 47 1 22 44
M  V30 48 1 24 45
M  V30 49 1 26 46
M  V30 50 1 27 47
M  V30 END BOND
M  V30 END CTAB
M  END
>  <Dataset>  (253) 
ChEMBL_Kinases

>  <Ligand_Instance>  (253) 
nan

>  <PDB_ID>  (253) 
nan

>  <Standardized_SMILES>  (253) 
Cc1cc(-c2n[nH]c3cc(NC(=O)N(C)Cc4cccnc4)ncc23)ccn1

>  <Name>  (253) 
nan

>  <Pocket>  (253) 
nan

>  <ATP_Site>  (253) 
nan

>  <Peripheral>  (253) 
nan

>  <Num_H_Atoms_ProtBoundConf>  (253) 
nan

>  <Num_Resolved_Atoms>  (253) 
nan

>  <Num_Not_Resolved_Atoms>  (253) 
nan

$$$$
CHEMBL3654698
     RDKit          3D

  0  0  0  0  0  0  0  0  0  0999 V3000
M  V30 BEGIN CTAB
M  V30 COUNTS 47 50 0 0 0
M  V30 BEGIN ATOM
M  V30 1 C -3.092575 -4.960834 2.887866 0
M  V30 2 C -2.499025 -5.240020 1.539917 0
M  V30 3 C -1.881561 -4.281928 0.769634 0
M  V30 4 C -1.340277 -4.560984 -0.472021 0
M  V30 5 C -0.706134 -3.476998 -1.212627 0
M  V30 6 N -0.924665 -3.268522 -2.528339 0
M  V30 7 N -0.239764 -2.228555 -2.974924 0
M  V30 8 C 0.457667 -1.722179 -1.938259 0
M  V30 9 C 1.330358 -0.663311 -1.788665 0
M  V30 10 C 1.875914 -0.425491 -0.550471 0
M  V30 11 N 2.785179 0.630677 -0.267587 0
M  V30 12 C 2.324144 1.886449 0.142766 0
M  V30 13 O 1.078033 2.004087 0.238791 0
M  V30 14 N 3.114380 3.016831 0.454502 0
M  V30 15 C 2.863046 4.345776 0.909987 0
M  V30 16 C 2.288358 4.550974 2.258595 0
M  V30 17 C 1.003112 3.956342 2.588644 0
M  V30 18 C 0.788482 2.727430 3.225573 0
M  V30 19 C -0.431548 2.200521 3.572098 0
M  V30 20 C -1.552916 2.943032 3.268715 0
M  V30 21 C -1.362430 4.141745 2.648685 0
M  V30 22 N -0.152207 4.627438 2.323686 0
M  V30 23 N 1.572167 -1.211079 0.523030 0
M  V30 24 C 0.725717 -2.254166 0.421274 0
M  V30 25 C 0.178062 -2.490944 -0.826963 0
M  V30 26 C -1.443477 -5.859304 -0.919413 0
M  V30 27 C -2.060473 -6.829015 -0.155950 0
M  V30 28 N -2.582498 -6.515858 1.063795 0
M  V30 29 H -2.442779 -5.288684 3.701208 0
M  V30 30 H -3.316091 -3.861127 2.986592 0
M  V30 31 H -4.080051 -5.457593 2.909121 0
M  V30 32 H -1.874817 -3.311200 1.247355 0
M  V30 33 H -0.217466 -1.839432 -3.948249 0
M  V30 34 H 1.587608 -0.032996 -2.603274 0
M  V30 35 H 3.815232 0.492706 -0.359613 0
M  V30 36 H 4.139565 2.753714 0.293583 0
M  V30 37 H 3.793326 4.938327 0.753044 0
M  V30 38 H 2.076071 4.776716 0.188796 0
M  V30 39 H 3.041728 4.338307 3.077250 0
M  V30 40 H 2.140599 5.677328 2.354853 0
M  V30 41 H 1.685592 2.160723 3.454446 0
M  V30 42 H -0.454873 1.239971 4.060534 0
M  V30 43 H -2.507436 2.520615 3.544982 0
M  V30 44 H -2.250186 4.714865 2.415966 0
M  V30 45 H 0.485817 -2.876321 1.273720 0
M  V30 46 H -1.022690 -6.090022 -1.891627 0
M  V30 47 H -2.124133 -7.842280 -0.539426 0
M  V30 END ATOM
M  V30 BEGIN BOND
M  V30 1 1 1 2
M  V30 2 2 2 3
M  V30 3 1 3 4
M  V30 4 1 4 5
M  V30 5 2 5 6
M  V30 6 1 6 7
M  V30 7 1 7 8
M  V30 8 2 8 9
M  V30 9 1 9 10
M  V30 10 1 10 11
M  V30 11 1 11 12
M  V30 12 2 12 13
M  V30 13 1 12 14
M  V30 14 1 14 15
M  V30 15 1 15 16
M  V30 16 1 16 17
M  V30 17 2 17 18
M  V30 18 1 18 19
M  V30 19 2 19 20
M  V30 20 1 20 21
M  V30 21 2 21 22
M  V30 22 2 10 23
M  V30 23 1 23 24
M  V30 24 2 24 25
M  V30 25 2 4 26
M  V30 26 1 26 27
M  V30 27 2 27 28
M  V30 28 1 28 2
M  V30 29 1 25 5
M  V30 30 1 25 8
M  V30 31 1 22 17
M  V30 32 1 1 29
M  V30 33 1 1 30
M  V30 34 1 1 31
M  V30 35 1 3 32
M  V30 36 1 7 33
M  V30 37 1 9 34
M  V30 38 1 11 35
M  V30 39 1 14 36
M  V30 40 1 15 37
M  V30 41 1 15 38
M  V30 42 1 16 39
M  V30 43 1 16 40
M  V30 44 1 18 41
M  V30 45 1 19 42
M  V30 46 1 20 43
M  V30 47 1 21 44
M  V30 48 1 24 45
M  V30 49 1 26 46
M  V30 50 1 27 47
M  V30 END BOND
M  V30 END CTAB
M  END
>  <Dataset>  (254) 
ChEMBL_Kinases

>  <Ligand_Instance>  (254) 
nan

>  <PDB_ID>  (254) 
nan

>  <Standardized_SMILES>  (254) 
Cc1cc(-c2n[nH]c3cc(NC(=O)NCCc4ccccn4)ncc23)ccn1

>  <Name>  (254) 
nan

>  <Pocket>  (254) 
nan

>  <ATP_Site>  (254) 
nan

>  <Peripheral>  (254) 
nan

>  <Num_H_Atoms_ProtBoundConf>  (254) 
nan

>  <Num_Resolved_Atoms>  (254) 
nan

>  <Num_Not_Resolved_Atoms>  (254) 
nan

$$$$
CHEMBL3654699
     RDKit          3D

  0  0  0  0  0  0  0  0  0  0999 V3000
M  V30 BEGIN CTAB
M  V30 COUNTS 43 46 0 0 0
M  V30 BEGIN ATOM
M  V30 1 C -1.230806 -6.005717 1.882451 0
M  V30 2 C -0.190523 -5.979286 0.822014 0
M  V30 3 C 0.552819 -4.823768 0.626476 0
M  V30 4 C 1.554362 -4.673581 -0.333536 0
M  V30 5 C 2.301037 -3.451398 -0.500880 0
M  V30 6 N 3.625617 -3.280059 -0.658337 0
M  V30 7 N 3.939612 -1.999231 -0.782492 0
M  V30 8 C 2.786694 -1.308541 -0.704328 0
M  V30 9 C 2.589418 0.055768 -0.778288 0
M  V30 10 C 1.309906 0.564431 -0.673653 0
M  V30 11 N 0.871700 1.918947 -0.720448 0
M  V30 12 C 0.800674 2.652904 0.496726 0
M  V30 13 O 1.126139 2.080781 1.556555 0
M  V30 14 N 0.380191 3.988945 0.546223 0
M  V30 15 C 0.268647 4.829776 1.709392 0
M  V30 16 C -0.889039 4.571041 2.562686 0
M  V30 17 C -0.845659 3.668254 3.629398 0
M  V30 18 N -1.872712 3.384534 4.449756 0
M  V30 19 C -3.037397 4.040366 4.203492 0
M  V30 20 C -3.084309 4.944570 3.136967 0
M  V30 21 N -2.056985 5.226807 2.318138 0
M  V30 22 N 0.281032 -0.303725 -0.499925 0
M  V30 23 C 0.479132 -1.635644 -0.428393 0
M  V30 24 C 1.739681 -2.190394 -0.527754 0
M  V30 25 C 1.751374 -5.816996 -1.102827 0
M  V30 26 C 1.020132 -6.984557 -0.925654 0
M  V30 27 N 0.066172 -7.035503 0.034226 0
M  V30 28 H -0.849556 -5.646144 2.856200 0
M  V30 29 H -2.082870 -5.362528 1.559564 0
M  V30 30 H -1.616979 -7.035532 1.951757 0
M  V30 31 H 0.332272 -3.990885 1.267497 0
M  V30 32 H 4.913263 -1.615820 -0.916109 0
M  V30 33 H 3.342918 0.818949 -0.914392 0
M  V30 34 H 0.583828 2.458251 -1.581158 0
M  V30 35 H 0.109728 4.448057 -0.363573 0
M  V30 36 H 1.238582 4.676750 2.271981 0
M  V30 37 H 0.272348 5.905846 1.462601 0
M  V30 38 H 0.062754 3.128033 3.858241 0
M  V30 39 H -3.910899 3.868063 4.818225 0
M  V30 40 H -4.048230 5.431813 2.999180 0
M  V30 41 H -0.355840 -2.306800 -0.290468 0
M  V30 42 H 2.526097 -5.747788 -1.868451 0
M  V30 43 H 1.220641 -7.848370 -1.560288 0
M  V30 END ATOM
M  V30 BEGIN BOND
M  V30 1 1 1 2
M  V30 2 2 2 3
M  V30 3 1 3 4
M  V30 4 1 4 5
M  V30 5 2 5 6
M  V30 6 1 6 7
M  V30 7 1 7 8
M  V30 8 2 8 9
M  V30 9 1 9 10
M  V30 10 1 10 11
M  V30 11 1 11 12
M  V30 12 2 12 13
M  V30 13 1 12 14
M  V30 14 1 14 15
M  V30 15 1 15 16
M  V30 16 2 16 17
M  V30 17 1 17 18
M  V30 18 2 18 19
M  V30 19 1 19 20
M  V30 20 2 20 21
M  V30 21 2 10 22
M  V30 22 1 22 23
M  V30 23 2 23 24
M  V30 24 2 4 25
M  V30 25 1 25 26
M  V30 26 2 26 27
M  V30 27 1 27 2
M  V30 28 1 24 5
M  V30 29 1 24 8
M  V30 30 1 21 16
M  V30 31 1 1 28
M  V30 32 1 1 29
M  V30 33 1 1 30
M  V30 34 1 3 31
M  V30 35 1 7 32
M  V30 36 1 9 33
M  V30 37 1 11 34
M  V30 38 1 14 35
M  V30 39 1 15 36
M  V30 40 1 15 37
M  V30 41 1 17 38
M  V30 42 1 19 39
M  V30 43 1 20 40
M  V30 44 1 23 41
M  V30 45 1 25 42
M  V30 46 1 26 43
M  V30 END BOND
M  V30 END CTAB
M  END
>  <Dataset>  (255) 
ChEMBL_Kinases

>  <Ligand_Instance>  (255) 
nan

>  <PDB_ID>  (255) 
nan

>  <Standardized_SMILES>  (255) 
Cc1cc(-c2n[nH]c3cc(NC(=O)NCc4cnccn4)ncc23)ccn1

>  <Name>  (255) 
nan

>  <Pocket>  (255) 
nan

>  <ATP_Site>  (255) 
nan

>  <Peripheral>  (255) 
nan

>  <Num_H_Atoms_ProtBoundConf>  (255) 
nan

>  <Num_Resolved_Atoms>  (255) 
nan

>  <Num_Not_Resolved_Atoms>  (255) 
nan

$$$$
CHEMBL3654700
     RDKit          3D

  0  0  0  0  0  0  0  0  0  0999 V3000
M  V30 BEGIN CTAB
M  V30 COUNTS 47 50 0 0 0
M  V30 BEGIN ATOM
M  V30 1 C 0.344830 -7.263898 3.394807 0
M  V30 2 C -0.116167 -7.091592 1.983576 0
M  V30 3 C -0.356188 -5.821694 1.498457 0
M  V30 4 C -0.783468 -5.561388 0.211735 0
M  V30 5 C -1.042237 -4.237037 -0.320726 0
M  V30 6 N -2.116654 -3.854448 -1.064678 0
M  V30 7 N -2.004424 -2.569256 -1.366891 0
M  V30 8 C -0.870817 -2.062848 -0.842873 0
M  V30 9 C -0.291137 -0.807623 -0.860543 0
M  V30 10 C 0.910647 -0.601944 -0.210059 0
M  V30 11 N 1.454356 0.716701 -0.267137 0
M  V30 12 C 1.029040 1.570718 0.806848 0
M  V30 13 O 0.265447 1.273411 1.735716 0
M  V30 14 N 1.523131 2.901375 0.827204 0
M  V30 15 C 1.171806 3.883654 1.865476 0
M  V30 16 C 2.384756 4.375929 2.582975 0
M  V30 17 C 0.349186 4.954888 1.250151 0
M  V30 18 C -0.793051 5.422967 1.867070 0
M  V30 19 C -1.648423 6.406052 1.416029 0
M  V30 20 C -1.263092 6.954902 0.187795 0
M  V30 21 N -0.154842 6.535611 -0.461084 0
M  V30 22 C 0.636232 5.571889 0.034768 0
M  V30 23 N 1.524339 -1.629955 0.446955 0
M  V30 24 C 0.964827 -2.867116 0.471351 0
M  V30 25 C -0.246630 -3.119406 -0.171479 0
M  V30 26 C -0.966045 -6.679545 -0.598132 0
M  V30 27 C -0.725208 -7.962104 -0.113128 0
M  V30 28 N -0.309866 -8.137968 1.153966 0
M  V30 29 H 0.970588 -8.178564 3.522952 0
M  V30 30 H 0.867623 -6.356888 3.740107 0
M  V30 31 H -0.571162 -7.405289 4.036696 0
M  V30 32 H -0.200677 -4.984275 2.163936 0
M  V30 33 H -2.683237 -1.988535 -1.934109 0
M  V30 34 H -0.777865 -0.012341 -1.375879 0
M  V30 35 H 2.106779 1.035173 -1.025588 0
M  V30 36 H 2.174978 3.289283 0.107479 0
M  V30 37 H 0.487174 3.321561 2.536893 0
M  V30 38 H 2.501268 5.456143 2.322503 0
M  V30 39 H 3.269440 3.842758 2.173780 0
M  V30 40 H 2.260397 4.231974 3.673482 0
M  V30 41 H -1.068285 4.971632 2.829973 0
M  V30 42 H -2.512554 6.694121 1.978067 0
M  V30 43 H -1.913156 7.741698 -0.212250 0
M  V30 44 H 1.524321 5.240433 -0.491766 0
M  V30 45 H 1.449631 -3.682036 0.991188 0
M  V30 46 H -1.301257 -6.606148 -1.635270 0
M  V30 47 H -0.864271 -8.855242 -0.738745 0
M  V30 END ATOM
M  V30 BEGIN BOND
M  V30 1 1 1 2
M  V30 2 2 2 3
M  V30 3 1 3 4
M  V30 4 1 4 5
M  V30 5 2 5 6
M  V30 6 1 6 7
M  V30 7 1 7 8
M  V30 8 2 8 9
M  V30 9 1 9 10
M  V30 10 1 10 11
M  V30 11 1 11 12
M  V30 12 2 12 13
M  V30 13 1 12 14
M  V30 14 1 14 15
M  V30 15 1 15 16
M  V30 16 1 15 17
M  V30 17 2 17 18
M  V30 18 1 18 19
M  V30 19 2 19 20
M  V30 20 1 20 21
M  V30 21 2 21 22
M  V30 22 2 10 23
M  V30 23 1 23 24
M  V30 24 2 24 25
M  V30 25 2 4 26
M  V30 26 1 26 27
M  V30 27 2 27 28
M  V30 28 1 28 2
M  V30 29 1 25 5
M  V30 30 1 25 8
M  V30 31 1 22 17
M  V30 32 1 1 29
M  V30 33 1 1 30
M  V30 34 1 1 31
M  V30 35 1 3 32
M  V30 36 1 7 33
M  V30 37 1 9 34
M  V30 38 1 11 35
M  V30 39 1 14 36
M  V30 40 1 15 37
M  V30 41 1 16 38
M  V30 42 1 16 39
M  V30 43 1 16 40
M  V30 44 1 18 41
M  V30 45 1 19 42
M  V30 46 1 20 43
M  V30 47 1 22 44
M  V30 48 1 24 45
M  V30 49 1 26 46
M  V30 50 1 27 47
M  V30 END BOND
M  V30 END CTAB
M  END
>  <Dataset>  (256) 
ChEMBL_Kinases

>  <Ligand_Instance>  (256) 
nan

>  <PDB_ID>  (256) 
nan

>  <Standardized_SMILES>  (256) 
Cc1cc(-c2n[nH]c3cc(NC(=O)NC(C)c4cccnc4)ncc23)ccn1

>  <Name>  (256) 
nan

>  <Pocket>  (256) 
nan

>  <ATP_Site>  (256) 
nan

>  <Peripheral>  (256) 
nan

>  <Num_H_Atoms_ProtBoundConf>  (256) 
nan

>  <Num_Resolved_Atoms>  (256) 
nan

>  <Num_Not_Resolved_Atoms>  (256) 
nan

$$$$
CHEMBL3654701
     RDKit          3D

  0  0  0  0  0  0  0  0  0  0999 V3000
M  V30 BEGIN CTAB
M  V30 COUNTS 54 57 0 0 0
M  V30 BEGIN ATOM
M  V30 1 C 2.492165 -0.985811 4.793612 0
M  V30 2 O 3.224801 -0.389662 3.798694 0
M  V30 3 C 3.388990 0.962255 3.954928 0
M  V30 4 C 2.161829 1.804729 3.823412 0
M  V30 5 N 1.500513 1.748014 2.535188 0
M  V30 6 C 1.922860 2.773286 1.598532 0
M  V30 7 C 3.027247 2.463535 0.708387 0
M  V30 8 C 4.377482 2.735311 0.968190 0
M  V30 9 C 5.464860 2.477723 0.164518 0
M  V30 10 C 5.219021 1.879605 -1.049211 0
M  V30 11 N 3.938748 1.586879 -1.370469 0
M  V30 12 C 2.925938 1.869410 -0.531623 0
M  V30 13 C 0.465028 0.945982 1.915349 0
M  V30 14 O -0.001895 1.028701 0.714409 0
M  V30 15 N -0.335062 -0.114634 2.359288 0
M  V30 16 C -1.259086 -0.651200 1.419552 0
M  V30 17 C -2.556068 -0.150963 1.305616 0
M  V30 18 C -3.434093 -0.691362 0.383293 0
M  V30 19 N -4.710662 -0.466668 0.013812 0
M  V30 20 N -5.067744 -1.309305 -0.960144 0
M  V30 21 C -4.018693 -2.126983 -1.265166 0
M  V30 22 C -4.050413 -3.172987 -2.285409 0
M  V30 23 C -4.598180 -2.957048 -3.551338 0
M  V30 24 C -4.570876 -4.017372 -4.427284 0
M  V30 25 N -4.061100 -5.235304 -4.159047 0
M  V30 26 C -3.528271 -5.466066 -2.946169 0
M  V30 27 C -2.957130 -6.806786 -2.624315 0
M  V30 28 C -3.532358 -4.444015 -2.042618 0
M  V30 29 C -3.000222 -1.731569 -0.417842 0
M  V30 30 C -1.712530 -2.213780 -0.290835 0
M  V30 31 N -0.860055 -1.674583 0.618616 0
M  V30 32 H 1.504595 -0.522237 4.865205 0
M  V30 33 H 2.324741 -2.078695 4.581611 0
M  V30 34 H 3.057472 -0.910521 5.769184 0
M  V30 35 H 3.777711 1.080719 5.027069 0
M  V30 36 H 4.251410 1.319832 3.354830 0
M  V30 37 H 1.471591 1.497089 4.646859 0
M  V30 38 H 2.398993 2.859650 4.041089 0
M  V30 39 H 2.209353 3.698273 2.167864 0
M  V30 40 H 1.027808 3.107861 1.006844 0
M  V30 41 H 4.614477 3.216766 1.934495 0
M  V30 42 H 6.454962 2.736898 0.482365 0
M  V30 43 H 6.079951 1.684156 -1.667156 0
M  V30 44 H 1.988100 1.570649 -0.964743 0
M  V30 45 H -0.174917 -0.407136 3.364576 0
M  V30 46 H -2.892378 0.667618 1.938421 0
M  V30 47 H -5.313762 0.266875 0.442486 0
M  V30 48 H -5.006533 -1.997959 -3.780970 0
M  V30 49 H -4.994930 -3.857033 -5.413398 0
M  V30 50 H -3.602811 -7.394216 -1.952855 0
M  V30 51 H -2.000438 -6.670252 -2.070127 0
M  V30 52 H -2.697803 -7.365880 -3.547949 0
M  V30 53 H -3.089596 -4.672493 -1.067617 0
M  V30 54 H -1.352079 -3.022749 -0.903315 0
M  V30 END ATOM
M  V30 BEGIN BOND
M  V30 1 1 1 2
M  V30 2 1 2 3
M  V30 3 1 3 4
M  V30 4 1 4 5
M  V30 5 1 5 6
M  V30 6 1 6 7
M  V30 7 2 7 8
M  V30 8 1 8 9
M  V30 9 2 9 10
M  V30 10 1 10 11
M  V30 11 2 11 12
M  V30 12 1 5 13
M  V30 13 2 13 14
M  V30 14 1 13 15
M  V30 15 1 15 16
M  V30 16 2 16 17
M  V30 17 1 17 18
M  V30 18 1 18 19
M  V30 19 1 19 20
M  V30 20 2 20 21
M  V30 21 1 21 22
M  V30 22 2 22 23
M  V30 23 1 23 24
M  V30 24 2 24 25
M  V30 25 1 25 26
M  V30 26 1 26 27
M  V30 27 2 26 28
M  V30 28 1 21 29
M  V30 29 1 29 30
M  V30 30 2 30 31
M  V30 31 1 12 7
M  V30 32 1 31 16
M  V30 33 2 29 18
M  V30 34 1 28 22
M  V30 35 1 1 32
M  V30 36 1 1 33
M  V30 37 1 1 34
M  V30 38 1 3 35
M  V30 39 1 3 36
M  V30 40 1 4 37
M  V30 41 1 4 38
M  V30 42 1 6 39
M  V30 43 1 6 40
M  V30 44 1 8 41
M  V30 45 1 9 42
M  V30 46 1 10 43
M  V30 47 1 12 44
M  V30 48 1 15 45
M  V30 49 1 17 46
M  V30 50 1 19 47
M  V30 51 1 23 48
M  V30 52 1 24 49
M  V30 53 1 27 50
M  V30 54 1 27 51
M  V30 55 1 27 52
M  V30 56 1 28 53
M  V30 57 1 30 54
M  V30 END BOND
M  V30 END CTAB
M  END
>  <Dataset>  (257) 
ChEMBL_Kinases

>  <Ligand_Instance>  (257) 
nan

>  <PDB_ID>  (257) 
nan

>  <Standardized_SMILES>  (257) 
COCCN(Cc1cccnc1)C(=O)Nc1cc2[nH]nc(-c3ccnc(C)c3)c2cn1

>  <Name>  (257) 
nan

>  <Pocket>  (257) 
nan

>  <ATP_Site>  (257) 
nan

>  <Peripheral>  (257) 
nan

>  <Num_H_Atoms_ProtBoundConf>  (257) 
nan

>  <Num_Resolved_Atoms>  (257) 
nan

>  <Num_Not_Resolved_Atoms>  (257) 
nan

$$$$
CHEMBL3654702
     RDKit          3D

  0  0  0  0  0  0  0  0  0  0999 V3000
M  V30 BEGIN CTAB
M  V30 COUNTS 44 47 0 0 0
M  V30 BEGIN ATOM
M  V30 1 C -2.488878 -5.972932 0.707460 0
M  V30 2 C -1.300747 -5.881597 -0.158215 0
M  V30 3 C -0.846460 -4.604462 -0.457327 0
M  V30 4 C 0.270024 -4.502722 -1.270732 0
M  V30 5 C 0.916587 -3.271701 -1.711325 0
M  V30 6 N 1.336727 -2.987640 -2.963787 0
M  V30 7 N 1.876282 -1.782956 -2.999134 0
M  V30 8 C 1.807809 -1.273053 -1.753420 0
M  V30 9 C 2.234625 -0.052209 -1.277948 0
M  V30 10 C 2.042145 0.229674 0.070275 0
M  V30 11 N 2.402933 1.415262 0.767397 0
M  V30 12 C 1.528803 2.520483 0.886986 0
M  V30 13 O 0.421720 2.373188 0.334565 0
M  V30 14 N 1.846420 3.707575 1.566543 0
M  V30 15 C 1.004054 4.876868 1.731060 0
M  V30 16 C -0.002212 4.562032 2.776662 0
M  V30 17 C -1.250080 4.032601 2.568517 0
M  V30 18 N -2.142258 3.752533 3.532455 0
M  V30 19 C -1.867095 3.979372 4.818802 0
M  V30 20 C -0.614845 4.516973 5.097178 0
M  V30 21 F -0.374110 4.733999 6.430027 0
M  V30 22 C 0.311909 4.809051 4.111013 0
M  V30 23 N 1.448707 -0.669561 0.907048 0
M  V30 24 C 1.028413 -1.876898 0.428779 0
M  V30 25 C 1.200499 -2.191415 -0.893762 0
M  V30 26 C 0.906399 -5.641940 -1.765081 0
M  V30 27 C 0.400579 -6.898343 -1.427733 0
M  V30 28 N -0.682164 -6.974745 -0.638463 0
M  V30 29 H -2.451497 -5.303528 1.586082 0
M  V30 30 H -2.536289 -7.013048 1.084703 0
M  V30 31 H -3.411718 -5.751366 0.105362 0
M  V30 32 H -1.267614 -3.666326 -0.125481 0
M  V30 33 H 2.280607 -1.320601 -3.849034 0
M  V30 34 H 2.705580 0.719165 -1.832578 0
M  V30 35 H 3.355767 1.458010 1.204454 0
M  V30 36 H 2.811251 3.686595 1.979214 0
M  V30 37 H 1.637575 5.696543 2.125585 0
M  V30 38 H 0.510362 5.162688 0.775329 0
M  V30 39 H -1.541847 3.826762 1.555231 0
M  V30 40 H -2.583402 3.752932 5.577529 0
M  V30 41 H 1.277210 5.231122 4.420915 0
M  V30 42 H 0.550818 -2.630874 1.046908 0
M  V30 43 H 1.780532 -5.636217 -2.403520 0
M  V30 44 H 0.864767 -7.810113 -1.790950 0
M  V30 END ATOM
M  V30 BEGIN BOND
M  V30 1 1 1 2
M  V30 2 2 2 3
M  V30 3 1 3 4
M  V30 4 1 4 5
M  V30 5 2 5 6
M  V30 6 1 6 7
M  V30 7 1 7 8
M  V30 8 2 8 9
M  V30 9 1 9 10
M  V30 10 1 10 11
M  V30 11 1 11 12
M  V30 12 2 12 13
M  V30 13 1 12 14
M  V30 14 1 14 15
M  V30 15 1 15 16
M  V30 16 2 16 17
M  V30 17 1 17 18
M  V30 18 2 18 19
M  V30 19 1 19 20
M  V30 20 1 20 21
M  V30 21 2 20 22
M  V30 22 2 10 23
M  V30 23 1 23 24
M  V30 24 2 24 25
M  V30 25 2 4 26
M  V30 26 1 26 27
M  V30 27 2 27 28
M  V30 28 1 28 2
M  V30 29 1 25 5
M  V30 30 1 25 8
M  V30 31 1 22 16
M  V30 32 1 1 29
M  V30 33 1 1 30
M  V30 34 1 1 31
M  V30 35 1 3 32
M  V30 36 1 7 33
M  V30 37 1 9 34
M  V30 38 1 11 35
M  V30 39 1 14 36
M  V30 40 1 15 37
M  V30 41 1 15 38
M  V30 42 1 17 39
M  V30 43 1 19 40
M  V30 44 1 22 41
M  V30 45 1 24 42
M  V30 46 1 26 43
M  V30 47 1 27 44
M  V30 END BOND
M  V30 END CTAB
M  END
>  <Dataset>  (258) 
ChEMBL_Kinases

>  <Ligand_Instance>  (258) 
nan

>  <PDB_ID>  (258) 
nan

>  <Standardized_SMILES>  (258) 
Cc1cc(-c2n[nH]c3cc(NC(=O)NCc4cncc(F)c4)ncc23)ccn1

>  <Name>  (258) 
nan

>  <Pocket>  (258) 
nan

>  <ATP_Site>  (258) 
nan

>  <Peripheral>  (258) 
nan

>  <Num_H_Atoms_ProtBoundConf>  (258) 
nan

>  <Num_Resolved_Atoms>  (258) 
nan

>  <Num_Not_Resolved_Atoms>  (258) 
nan

$$$$
CHEMBL3654703
     RDKit          3D

  0  0  0  0  0  0  0  0  0  0999 V3000
M  V30 BEGIN CTAB
M  V30 COUNTS 45 48 0 0 0
M  V30 BEGIN ATOM
M  V30 1 C -2.038726 -6.001577 3.827249 0
M  V30 2 C -0.891230 -6.040181 2.896915 0
M  V30 3 C -0.050789 -4.979569 2.756749 0
M  V30 4 C 1.027576 -4.986466 1.896841 0
M  V30 5 C 1.986794 -3.920845 1.665629 0
M  V30 6 N 3.324440 -4.126222 1.596452 0
M  V30 7 N 3.943928 -2.976260 1.378414 0
M  V30 8 C 3.042593 -1.959218 1.293738 0
M  V30 9 C 3.116946 -0.591634 1.084349 0
M  V30 10 C 1.947458 0.137060 1.063280 0
M  V30 11 N 2.059381 1.537380 0.847080 0
M  V30 12 C 0.881889 2.296455 0.826127 0
M  V30 13 O -0.212098 1.721513 0.994837 0
M  V30 14 N 0.813894 3.670339 0.629612 0
M  V30 15 C -0.139554 4.744450 0.539227 0
M  V30 16 C -1.059535 4.595950 -0.591587 0
M  V30 17 C -2.210008 3.889486 -0.814710 0
M  V30 18 F -2.640214 3.203972 0.267178 0
M  V30 19 C -2.893740 3.886353 -2.008675 0
M  V30 20 C -2.430813 4.628132 -3.080268 0
M  V30 21 C -1.272800 5.363185 -2.912907 0
M  V30 22 C -0.613426 5.337683 -1.690679 0
M  V30 23 F 0.501766 6.122825 -1.724875 0
M  V30 24 N 0.780910 -0.472180 1.241339 0
M  V30 25 C 0.653932 -1.814902 1.450881 0
M  V30 26 C 1.811443 -2.559758 1.475341 0
M  V30 27 C 1.239929 -6.149708 1.149906 0
M  V30 28 C 0.355259 -7.200385 1.330150 0
M  V30 29 N -0.700504 -7.159986 2.188649 0
M  V30 30 H -2.217548 -4.967544 4.206959 0
M  V30 31 H -2.996390 -6.361810 3.349157 0
M  V30 32 H -1.875665 -6.722314 4.673953 0
M  V30 33 H -0.181539 -4.058379 3.318558 0
M  V30 34 H 4.974183 -2.777341 1.271913 0
M  V30 35 H 4.112679 -0.149037 0.943761 0
M  V30 36 H 2.973407 2.013723 0.706423 0
M  V30 37 H 1.800838 4.073663 0.497228 0
M  V30 38 H 0.299785 5.733354 0.634875 0
M  V30 39 H -0.807508 4.583514 1.463184 0
M  V30 40 H -3.787938 3.267410 -2.006811 0
M  V30 41 H -3.059171 4.536638 -3.952067 0
M  V30 42 H -0.976765 5.908932 -3.778026 0
M  V30 43 H -0.310017 -2.284706 1.593102 0
M  V30 44 H 2.061481 -6.234157 0.455886 0
M  V30 45 H 0.484301 -8.130842 0.765808 0
M  V30 END ATOM
M  V30 BEGIN BOND
M  V30 1 1 1 2
M  V30 2 2 2 3
M  V30 3 1 3 4
M  V30 4 1 4 5
M  V30 5 2 5 6
M  V30 6 1 6 7
M  V30 7 1 7 8
M  V30 8 2 8 9
M  V30 9 1 9 10
M  V30 10 1 10 11
M  V30 11 1 11 12
M  V30 12 2 12 13
M  V30 13 1 12 14
M  V30 14 1 14 15
M  V30 15 1 15 16
M  V30 16 2 16 17
M  V30 17 1 17 18
M  V30 18 1 17 19
M  V30 19 2 19 20
M  V30 20 1 20 21
M  V30 21 2 21 22
M  V30 22 1 22 23
M  V30 23 2 10 24
M  V30 24 1 24 25
M  V30 25 2 25 26
M  V30 26 2 4 27
M  V30 27 1 27 28
M  V30 28 2 28 29
M  V30 29 1 29 2
M  V30 30 1 26 5
M  V30 31 1 26 8
M  V30 32 1 22 16
M  V30 33 1 1 30
M  V30 34 1 1 31
M  V30 35 1 1 32
M  V30 36 1 3 33
M  V30 37 1 7 34
M  V30 38 1 9 35
M  V30 39 1 11 36
M  V30 40 1 14 37
M  V30 41 1 15 38
M  V30 42 1 15 39
M  V30 43 1 19 40
M  V30 44 1 20 41
M  V30 45 1 21 42
M  V30 46 1 25 43
M  V30 47 1 27 44
M  V30 48 1 28 45
M  V30 END BOND
M  V30 END CTAB
M  END
>  <Dataset>  (259) 
ChEMBL_Kinases

>  <Ligand_Instance>  (259) 
nan

>  <PDB_ID>  (259) 
nan

>  <Standardized_SMILES>  (259) 
Cc1cc(-c2n[nH]c3cc(NC(=O)NCc4c(F)cccc4F)ncc23)ccn1

>  <Name>  (259) 
nan

>  <Pocket>  (259) 
nan

>  <ATP_Site>  (259) 
nan

>  <Peripheral>  (259) 
nan

>  <Num_H_Atoms_ProtBoundConf>  (259) 
nan

>  <Num_Resolved_Atoms>  (259) 
nan

>  <Num_Not_Resolved_Atoms>  (259) 
nan

$$$$
CHEMBL3654713
     RDKit          3D

  0  0  0  0  0  0  0  0  0  0999 V3000
M  V30 BEGIN CTAB
M  V30 COUNTS 52 56 0 0 0
M  V30 BEGIN ATOM
M  V30 1 C 2.560824 -5.611127 2.982268 0
M  V30 2 C 1.918991 -5.047015 1.751880 0 CFG=1
M  V30 3 N 2.726785 -3.957272 1.184818 0
M  V30 4 C 2.140032 -2.661126 1.063597 0
M  V30 5 O 0.945802 -2.440646 1.434220 0
M  V30 6 N 2.839948 -1.528099 0.524061 0
M  V30 7 C 2.205948 -0.251263 0.424669 0
M  V30 8 C 2.881806 0.840968 -0.095817 0
M  V30 9 C 2.179952 2.043768 -0.152045 0
M  V30 10 N 2.519371 3.278607 -0.588673 0
M  V30 11 N 1.489847 4.112726 -0.433630 0
M  V30 12 C 0.426780 3.457382 0.113713 0
M  V30 13 C -0.882533 4.025146 0.436780 0
M  V30 14 C -1.035931 5.240588 1.078368 0
M  V30 15 C -2.300759 5.757187 1.373697 0
M  V30 16 C -3.443334 5.048892 1.023057 0
M  V30 17 N -4.774052 5.294914 1.177442 0
M  V30 18 N -5.463385 4.288382 0.661531 0
M  V30 19 C -6.908455 4.077104 0.577770 0
M  V30 20 C -4.595906 3.383885 0.169868 0
M  V30 21 C -3.294561 3.835606 0.382690 0
M  V30 22 C -2.027754 3.333630 0.095008 0
M  V30 23 C 0.875903 2.162289 0.283848 0
M  V30 24 C 0.274108 1.043582 0.784617 0
M  V30 25 N 0.933771 -0.128089 0.847980 0
M  V30 26 C 1.730865 -6.120741 0.731689 0
M  V30 27 C 2.761537 -6.589911 -0.049625 0
M  V30 28 C 2.516016 -7.584161 -0.972813 0
M  V30 29 C 1.246182 -8.136619 -1.144063 0
M  V30 30 C 0.182540 -7.683861 -0.369269 0
M  V30 31 Cl -1.451614 -8.312205 -0.506798 0
M  V30 32 C 0.478675 -6.676633 0.551675 0
M  V30 33 H 2.343443 -6.698649 3.004846 0
M  V30 34 H 2.125409 -5.182725 3.915311 0
M  V30 35 H 3.674266 -5.475523 2.983482 0
M  V30 36 H 0.938145 -4.582382 1.983930 0
M  V30 37 H 3.707839 -4.042438 0.855841 0
M  V30 38 H 3.828155 -1.654941 0.203178 0
M  V30 39 H 3.907387 0.764602 -0.442931 0
M  V30 40 H 3.459723 3.532195 -0.989570 0
M  V30 41 H -0.148453 5.799594 1.355376 0
M  V30 42 H -2.407650 6.721069 1.882220 0
M  V30 43 H -7.433564 4.512283 1.451048 0
M  V30 44 H -7.274246 4.425063 -0.400115 0
M  V30 45 H -7.129431 2.972072 0.651477 0
M  V30 46 H -4.823305 2.446064 -0.318653 0
M  V30 47 H -2.029780 2.386836 -0.402477 0
M  V30 48 H -0.742864 1.074014 1.140377 0
M  V30 49 H 3.755915 -6.179746 0.061958 0
M  V30 50 H 3.287600 -7.995678 -1.618183 0
M  V30 51 H 1.003898 -8.916684 -1.853404 0
M  V30 52 H -0.335542 -6.297457 1.177464 0
M  V30 END ATOM
M  V30 BEGIN BOND
M  V30 1 1 1 2
M  V30 2 1 2 3
M  V30 3 1 3 4
M  V30 4 2 4 5
M  V30 5 1 4 6
M  V30 6 1 6 7
M  V30 7 2 7 8
M  V30 8 1 8 9
M  V30 9 1 9 10
M  V30 10 1 10 11
M  V30 11 2 11 12
M  V30 12 1 12 13
M  V30 13 1 13 14
M  V30 14 2 14 15
M  V30 15 1 15 16
M  V30 16 2 16 17
M  V30 17 1 17 18
M  V30 18 1 18 19
M  V30 19 1 18 20
M  V30 20 2 20 21
M  V30 21 1 21 22
M  V30 22 1 12 23
M  V30 23 1 23 24
M  V30 24 2 24 25
M  V30 25 1 2 26
M  V30 26 2 26 27
M  V30 27 1 27 28
M  V30 28 2 28 29
M  V30 29 1 29 30
M  V30 30 1 30 31
M  V30 31 2 30 32
M  V30 32 1 25 7
M  V30 33 1 32 26
M  V30 34 2 23 9
M  V30 35 2 22 13
M  V30 36 1 21 16
M  V30 37 1 1 33
M  V30 38 1 1 34
M  V30 39 1 1 35
M  V30 40 1 2 36 CFG=1
M  V30 41 1 3 37
M  V30 42 1 6 38
M  V30 43 1 8 39
M  V30 44 1 10 40
M  V30 45 1 14 41
M  V30 46 1 15 42
M  V30 47 1 19 43
M  V30 48 1 19 44
M  V30 49 1 19 45
M  V30 50 1 20 46
M  V30 51 1 22 47
M  V30 52 1 24 48
M  V30 53 1 27 49
M  V30 54 1 28 50
M  V30 55 1 29 51
M  V30 56 1 32 52
M  V30 END BOND
M  V30 END CTAB
M  END
>  <Dataset>  (260) 
ChEMBL_Kinases

>  <Ligand_Instance>  (260) 
nan

>  <PDB_ID>  (260) 
nan

>  <Standardized_SMILES>  (260) 
C[C@@H](NC(=O)Nc1cc2[nH]nc(-c3ccc4nn(C)cc4c3)c2cn1)c1cccc(Cl)c1

>  <Name>  (260) 
nan

>  <Pocket>  (260) 
nan

>  <ATP_Site>  (260) 
nan

>  <Peripheral>  (260) 
nan

>  <Num_H_Atoms_ProtBoundConf>  (260) 
nan

>  <Num_Resolved_Atoms>  (260) 
nan

>  <Num_Not_Resolved_Atoms>  (260) 
nan

$$$$
CHEMBL3654705
     RDKit          3D

  0  0  0  0  0  0  0  0  0  0999 V3000
M  V30 BEGIN CTAB
M  V30 COUNTS 48 51 0 0 0
M  V30 BEGIN ATOM
M  V30 1 C -0.827904 -6.912734 5.189188 0
M  V30 2 C -0.540274 -6.445207 3.816468 0
M  V30 3 C 0.434291 -5.497315 3.619308 0
M  V30 4 C 0.736870 -5.028987 2.337891 0
M  V30 5 C 1.760124 -4.025677 2.066143 0
M  V30 6 N 3.011087 -3.974271 2.577375 0
M  V30 7 N 3.684440 -2.943117 2.132625 0
M  V30 8 C 2.837136 -2.304623 1.303249 0
M  V30 9 C 3.083675 -1.151036 0.583629 0
M  V30 10 C 2.058500 -0.672801 -0.208541 0
M  V30 11 N 2.045724 0.483631 -1.043720 0
M  V30 12 C 1.626469 1.739770 -0.524434 0
M  V30 13 O 1.279945 1.758541 0.682728 0
M  V30 14 N 1.593398 2.904332 -1.296602 0
M  V30 15 C 1.189619 4.238813 -0.896628 0
M  V30 16 C -0.294975 4.252032 -0.835385 0
M  V30 17 C -1.094774 3.973955 0.244243 0
M  V30 18 C -2.470050 4.025098 0.151848 0
M  V30 19 C -3.055160 4.366700 -1.064878 0
M  V30 20 C -4.541019 4.381853 -1.016112 0
M  V30 21 F -5.030832 5.593506 -0.571445 0
M  V30 22 F -5.027414 3.389546 -0.182959 0
M  V30 23 F -5.075123 4.181984 -2.268738 0
M  V30 24 C -2.258697 4.647540 -2.154127 0
M  V30 25 C -0.883448 4.593384 -2.050807 0
M  V30 26 N 0.876042 -1.314975 -0.265851 0
M  V30 27 C 0.608565 -2.438945 0.423275 0
M  V30 28 C 1.613767 -2.940584 1.223558 0
M  V30 29 C -0.003246 -5.581802 1.316695 0
M  V30 30 C -0.990331 -6.544682 1.536403 0
M  V30 31 N -1.250211 -6.967678 2.782372 0
M  V30 32 H -1.145116 -6.068674 5.855756 0
M  V30 33 H -1.700602 -7.615418 5.188171 0
M  V30 34 H 0.014045 -7.484844 5.639274 0
M  V30 35 H 0.999798 -5.083777 4.460327 0
M  V30 36 H 4.664447 -2.683020 2.375344 0
M  V30 37 H 3.976389 -0.554637 0.547003 0
M  V30 38 H 2.350708 0.383508 -2.041932 0
M  V30 39 H 1.902996 2.774137 -2.285268 0
M  V30 40 H 1.593245 4.983810 -1.582750 0
M  V30 41 H 1.579484 4.402452 0.152512 0
M  V30 42 H -0.577629 3.719868 1.147985 0
M  V30 43 H -3.003234 3.786026 1.069390 0
M  V30 44 H -2.813735 4.904455 -3.061092 0
M  V30 45 H -0.408692 4.841623 -2.997665 0
M  V30 46 H -0.335958 -2.962310 0.385617 0
M  V30 47 H 0.127591 -5.313057 0.295933 0
M  V30 48 H -1.575908 -6.983606 0.739349 0
M  V30 END ATOM
M  V30 BEGIN BOND
M  V30 1 1 1 2
M  V30 2 2 2 3
M  V30 3 1 3 4
M  V30 4 1 4 5
M  V30 5 2 5 6
M  V30 6 1 6 7
M  V30 7 1 7 8
M  V30 8 2 8 9
M  V30 9 1 9 10
M  V30 10 1 10 11
M  V30 11 1 11 12
M  V30 12 2 12 13
M  V30 13 1 12 14
M  V30 14 1 14 15
M  V30 15 1 15 16
M  V30 16 2 16 17
M  V30 17 1 17 18
M  V30 18 2 18 19
M  V30 19 1 19 20
M  V30 20 1 20 21
M  V30 21 1 20 22
M  V30 22 1 20 23
M  V30 23 1 19 24
M  V30 24 2 24 25
M  V30 25 2 10 26
M  V30 26 1 26 27
M  V30 27 2 27 28
M  V30 28 2 4 29
M  V30 29 1 29 30
M  V30 30 2 30 31
M  V30 31 1 31 2
M  V30 32 1 28 5
M  V30 33 1 28 8
M  V30 34 1 25 16
M  V30 35 1 1 32
M  V30 36 1 1 33
M  V30 37 1 1 34
M  V30 38 1 3 35
M  V30 39 1 7 36
M  V30 40 1 9 37
M  V30 41 1 11 38
M  V30 42 1 14 39
M  V30 43 1 15 40
M  V30 44 1 15 41
M  V30 45 1 17 42
M  V30 46 1 18 43
M  V30 47 1 24 44
M  V30 48 1 25 45
M  V30 49 1 27 46
M  V30 50 1 29 47
M  V30 51 1 30 48
M  V30 END BOND
M  V30 END CTAB
M  END
>  <Dataset>  (261) 
ChEMBL_Kinases

>  <Ligand_Instance>  (261) 
nan

>  <PDB_ID>  (261) 
nan

>  <Standardized_SMILES>  (261) 
Cc1cc(-c2n[nH]c3cc(NC(=O)NCc4ccc(C(F)(F)F)cc4)ncc23)ccn1

>  <Name>  (261) 
nan

>  <Pocket>  (261) 
nan

>  <ATP_Site>  (261) 
nan

>  <Peripheral>  (261) 
nan

>  <Num_H_Atoms_ProtBoundConf>  (261) 
nan

>  <Num_Resolved_Atoms>  (261) 
nan

>  <Num_Not_Resolved_Atoms>  (261) 
nan

$$$$
CHEMBL3654706
     RDKit          3D

  0  0  0  0  0  0  0  0  0  0999 V3000
M  V30 BEGIN CTAB
M  V30 COUNTS 58 62 0 0 0
M  V30 BEGIN ATOM
M  V30 1 C 2.965158 -6.432967 2.790263 0
M  V30 2 C 2.958168 -4.943325 2.932481 0
M  V30 3 C 3.619932 -4.186178 1.990166 0
M  V30 4 C 3.610518 -2.812873 2.104958 0
M  V30 5 C 4.272670 -1.842772 1.199614 0
M  V30 6 N 5.528680 -1.731581 0.676280 0
M  V30 7 N 5.587474 -0.673993 -0.113095 0
M  V30 8 C 4.399946 -0.044659 -0.152954 0
M  V30 9 C 4.026230 1.082131 -0.860989 0
M  V30 10 C 2.717217 1.406046 -0.658340 0
M  V30 11 N 2.176999 2.543512 -1.296713 0
M  V30 12 C 0.931062 3.097741 -1.505190 0
M  V30 13 O 0.369502 2.106219 -0.913093 0
M  V30 14 N -0.272325 3.738232 -1.764666 0
M  V30 15 C -1.638233 3.337796 -1.495883 0
M  V30 16 C -2.487904 2.807247 -2.432706 0
M  V30 17 C -3.694443 2.396900 -1.907296 0
M  V30 18 C -3.969288 2.529941 -0.559138 0
M  V30 19 N -5.115823 2.168890 0.167177 0
M  V30 20 C -4.902454 0.732837 0.074245 0
M  V30 21 C -3.534291 0.285064 0.459728 0
M  V30 22 C -3.307684 -1.176293 0.364496 0
M  V30 23 C -3.517455 -2.053683 1.434101 0
M  V30 24 C -3.290825 -3.401750 1.284055 0
M  V30 25 C -2.859650 -3.959563 0.118334 0
M  V30 26 C -2.634412 -3.132800 -0.981224 0
M  V30 27 C -2.871091 -1.792406 -0.794509 0
M  V30 28 N -3.071803 3.073902 0.331074 0
M  V30 29 N -1.874819 3.486736 -0.160506 0
M  V30 30 N 1.879811 0.717091 0.135901 0
M  V30 31 C 2.247835 -0.375156 0.821549 0
M  V30 32 C 3.559906 -0.768871 0.668389 0
M  V30 33 C 2.927161 -2.221780 3.180116 0
M  V30 34 C 2.286591 -3.034765 4.085589 0
M  V30 35 N 2.303898 -4.381383 3.960875 0
M  V30 36 H 3.729671 -6.843847 3.463418 0
M  V30 37 H 1.962357 -6.809315 3.120230 0
M  V30 38 H 3.092336 -6.728831 1.739247 0
M  V30 39 H 4.166119 -4.573279 1.138092 0
M  V30 40 H 6.434764 -0.370758 -0.632163 0
M  V30 41 H 4.593905 1.690936 -1.504974 0
M  V30 42 H 2.466103 3.396203 -1.802944 0
M  V30 43 H 0.369100 4.441699 -2.186747 0
M  V30 44 H -2.220006 2.730468 -3.466240 0
M  V30 45 H -4.477818 1.958718 -2.502791 0
M  V30 46 H -5.891139 2.726115 0.634927 0
M  V30 47 H -5.628826 0.220542 0.773518 0
M  V30 48 H -5.191066 0.356286 -0.935414 0
M  V30 49 H -3.301712 0.644023 1.492376 0
M  V30 50 H -2.803633 0.742132 -0.269168 0
M  V30 51 H -3.856860 -1.633586 2.358921 0
M  V30 52 H -3.460261 -4.065216 2.131527 0
M  V30 53 H -2.662298 -5.013965 -0.064510 0
M  V30 54 H -2.295432 -3.520306 -1.926389 0
M  V30 55 H -2.686411 -1.161759 -1.679436 0
M  V30 56 H 1.526388 -0.883437 1.441047 0
M  V30 57 H 2.823862 -1.170639 3.425296 0
M  V30 58 H 1.729204 -2.713522 4.956353 0
M  V30 END ATOM
M  V30 BEGIN BOND
M  V30 1 1 1 2
M  V30 2 2 2 3
M  V30 3 1 3 4
M  V30 4 1 4 5
M  V30 5 2 5 6
M  V30 6 1 6 7
M  V30 7 1 7 8
M  V30 8 2 8 9
M  V30 9 1 9 10
M  V30 10 1 10 11
M  V30 11 1 11 12
M  V30 12 2 12 13
M  V30 13 1 12 14
M  V30 14 1 14 15
M  V30 15 2 15 16
M  V30 16 1 16 17
M  V30 17 2 17 18
M  V30 18 1 18 19
M  V30 19 1 19 20
M  V30 20 1 20 21
M  V30 21 1 21 22
M  V30 22 2 22 23
M  V30 23 1 23 24
M  V30 24 2 24 25
M  V30 25 1 25 26
M  V30 26 2 26 27
M  V30 27 1 18 28
M  V30 28 2 28 29
M  V30 29 2 10 30
M  V30 30 1 30 31
M  V30 31 2 31 32
M  V30 32 2 4 33
M  V30 33 1 33 34
M  V30 34 2 34 35
M  V30 35 1 35 2
M  V30 36 1 32 5
M  V30 37 1 32 8
M  V30 38 1 29 15
M  V30 39 1 27 22
M  V30 40 1 1 36
M  V30 41 1 1 37
M  V30 42 1 1 38
M  V30 43 1 3 39
M  V30 44 1 7 40
M  V30 45 1 9 41
M  V30 46 1 11 42
M  V30 47 1 14 43
M  V30 48 1 16 44
M  V30 49 1 17 45
M  V30 50 1 19 46
M  V30 51 1 20 47
M  V30 52 1 20 48
M  V30 53 1 21 49
M  V30 54 1 21 50
M  V30 55 1 23 51
M  V30 56 1 24 52
M  V30 57 1 25 53
M  V30 58 1 26 54
M  V30 59 1 27 55
M  V30 60 1 31 56
M  V30 61 1 33 57
M  V30 62 1 34 58
M  V30 END BOND
M  V30 END CTAB
M  END
>  <Dataset>  (262) 
ChEMBL_Kinases

>  <Ligand_Instance>  (262) 
nan

>  <PDB_ID>  (262) 
nan

>  <Standardized_SMILES>  (262) 
Cc1cc(-c2n[nH]c3cc(NC(=O)Nc4ccc(NCCc5ccccc5)nn4)ncc23)ccn1

>  <Name>  (262) 
nan

>  <Pocket>  (262) 
nan

>  <ATP_Site>  (262) 
nan

>  <Peripheral>  (262) 
nan

>  <Num_H_Atoms_ProtBoundConf>  (262) 
nan

>  <Num_Resolved_Atoms>  (262) 
nan

>  <Num_Not_Resolved_Atoms>  (262) 
nan

$$$$
CHEMBL3654707
     RDKit          3D

  0  0  0  0  0  0  0  0  0  0999 V3000
M  V30 BEGIN CTAB
M  V30 COUNTS 45 48 0 0 0
M  V30 BEGIN ATOM
M  V30 1 C -2.724003 -5.667629 1.306312 0
M  V30 2 C -1.261182 -5.961043 1.136879 0
M  V30 3 C -0.306600 -4.991968 1.325354 0
M  V30 4 C 1.054651 -5.171904 1.192406 0
M  V30 5 C 1.999857 -4.083122 1.411226 0
M  V30 6 N 3.163166 -4.065536 2.105424 0
M  V30 7 N 3.726731 -2.887160 2.065822 0
M  V30 8 C 2.958298 -2.070195 1.341235 0
M  V30 9 C 3.133294 -0.752035 1.022668 0
M  V30 10 C 2.179136 -0.098734 0.238064 0
M  V30 11 N 2.159585 1.252254 -0.205660 0
M  V30 12 C 1.538884 2.285670 0.554739 0
M  V30 13 O 1.017832 1.901705 1.633234 0
M  V30 14 N 1.523868 3.614918 0.114371 0
M  V30 15 C 0.909925 4.737549 0.826458 0
M  V30 16 C -0.548615 4.712551 0.682022 0
M  V30 17 C -1.470285 4.091638 1.487898 0
M  V30 18 C -2.835381 4.142749 1.243022 0
M  V30 19 C -3.308038 4.851651 0.134163 0
M  V30 20 F -4.666656 4.858141 -0.042917 0
M  V30 21 C -2.397502 5.495029 -0.706269 0
M  V30 22 Cl -3.037969 6.368155 -2.079125 0
M  V30 23 C -1.056198 5.402710 -0.403263 0
M  V30 24 N 1.103007 -0.810891 -0.180919 0
M  V30 25 C 0.965466 -2.118754 0.156881 0
M  V30 26 C 1.870420 -2.822969 0.928366 0
M  V30 27 C 1.434232 -6.460338 0.836819 0
M  V30 28 C 0.452841 -7.434136 0.648741 0
M  V30 29 N -0.863199 -7.193210 0.794563 0
M  V30 30 H -2.780365 -4.726889 1.908526 0
M  V30 31 H -3.211823 -5.430043 0.330488 0
M  V30 32 H -3.232845 -6.479380 1.829181 0
M  V30 33 H -0.699069 -4.022358 1.600211 0
M  V30 34 H 4.638145 -2.649239 2.537433 0
M  V30 35 H 3.942055 -0.117332 1.305260 0
M  V30 36 H 2.613948 1.480368 -1.109149 0
M  V30 37 H 1.977629 3.875999 -0.795723 0
M  V30 38 H 1.388286 5.689276 0.593141 0
M  V30 39 H 1.115647 4.530253 1.917431 0
M  V30 40 H -1.061716 3.553563 2.335912 0
M  V30 41 H -3.491121 3.626333 1.926696 0
M  V30 42 H -0.423420 5.933922 -1.111637 0
M  V30 43 H 0.085268 -2.651585 -0.201940 0
M  V30 44 H 2.489431 -6.666121 0.716621 0
M  V30 45 H 0.763217 -8.444866 0.369183 0
M  V30 END ATOM
M  V30 BEGIN BOND
M  V30 1 1 1 2
M  V30 2 2 2 3
M  V30 3 1 3 4
M  V30 4 1 4 5
M  V30 5 2 5 6
M  V30 6 1 6 7
M  V30 7 1 7 8
M  V30 8 2 8 9
M  V30 9 1 9 10
M  V30 10 1 10 11
M  V30 11 1 11 12
M  V30 12 2 12 13
M  V30 13 1 12 14
M  V30 14 1 14 15
M  V30 15 1 15 16
M  V30 16 2 16 17
M  V30 17 1 17 18
M  V30 18 2 18 19
M  V30 19 1 19 20
M  V30 20 1 19 21
M  V30 21 1 21 22
M  V30 22 2 21 23
M  V30 23 2 10 24
M  V30 24 1 24 25
M  V30 25 2 25 26
M  V30 26 2 4 27
M  V30 27 1 27 28
M  V30 28 2 28 29
M  V30 29 1 29 2
M  V30 30 1 26 5
M  V30 31 1 26 8
M  V30 32 1 23 16
M  V30 33 1 1 30
M  V30 34 1 1 31
M  V30 35 1 1 32
M  V30 36 1 3 33
M  V30 37 1 7 34
M  V30 38 1 9 35
M  V30 39 1 11 36
M  V30 40 1 14 37
M  V30 41 1 15 38
M  V30 42 1 15 39
M  V30 43 1 17 40
M  V30 44 1 18 41
M  V30 45 1 23 42
M  V30 46 1 25 43
M  V30 47 1 27 44
M  V30 48 1 28 45
M  V30 END BOND
M  V30 END CTAB
M  END
>  <Dataset>  (263) 
ChEMBL_Kinases

>  <Ligand_Instance>  (263) 
nan

>  <PDB_ID>  (263) 
nan

>  <Standardized_SMILES>  (263) 
Cc1cc(-c2n[nH]c3cc(NC(=O)NCc4ccc(F)c(Cl)c4)ncc23)ccn1

>  <Name>  (263) 
nan

>  <Pocket>  (263) 
nan

>  <ATP_Site>  (263) 
nan

>  <Peripheral>  (263) 
nan

>  <Num_H_Atoms_ProtBoundConf>  (263) 
nan

>  <Num_Resolved_Atoms>  (263) 
nan

>  <Num_Not_Resolved_Atoms>  (263) 
nan

$$$$
CHEMBL3654708
     RDKit          3D

  0  0  0  0  0  0  0  0  0  0999 V3000
M  V30 BEGIN CTAB
M  V30 COUNTS 45 48 0 0 0
M  V30 BEGIN ATOM
M  V30 1 C -2.940690 -1.928995 4.268486 0
M  V30 2 C -2.423692 -2.479411 2.962661 0 CFG=1
M  V30 3 N -0.993211 -2.175017 2.804033 0
M  V30 4 C -0.494553 -1.322669 1.782270 0
M  V30 5 O -1.279812 -0.786676 0.957779 0
M  V30 6 N 0.934441 -1.137483 1.779168 0
M  V30 7 C 1.437036 -0.281313 0.753651 0
M  V30 8 C 1.846659 -0.628807 -0.518769 0
M  V30 9 C 2.304596 0.363575 -1.364976 0
M  V30 10 N 2.751402 0.275575 -2.631286 0
M  V30 11 N 3.075795 1.502973 -3.011500 0
M  V30 12 C 2.852185 2.397117 -2.022579 0
M  V30 13 C 3.081987 3.838209 -2.052739 0
M  V30 14 C 3.696429 4.492239 -1.005397 0
M  V30 15 C 3.902289 5.854500 -1.056936 0
M  V30 16 N 3.521360 6.607705 -2.114184 0
M  V30 17 C 2.922064 5.948522 -3.128338 0
M  V30 18 F 2.555912 6.759903 -4.174261 0
M  V30 19 C 2.675332 4.580706 -3.159759 0
M  V30 20 C 2.354724 1.681144 -0.952788 0
M  V30 21 C 1.937507 1.993254 0.325814 0
M  V30 22 N 1.495395 1.011486 1.132802 0
M  V30 23 C -2.589665 -3.934337 2.853668 0
M  V30 24 C -3.401241 -4.614277 3.761841 0
M  V30 25 C -3.532239 -5.981847 3.625942 0
M  V30 26 C -2.892824 -6.703916 2.627929 0
M  V30 27 Cl -3.092796 -8.440896 2.498572 0
M  V30 28 C -2.078231 -6.020334 1.716766 0
M  V30 29 C -1.965070 -4.653797 1.875723 0
M  V30 30 H -2.542063 -2.433548 5.160957 0
M  V30 31 H -4.042554 -2.033553 4.268084 0
M  V30 32 H -2.693172 -0.850005 4.297413 0
M  V30 33 H -2.942460 -1.922883 2.152964 0
M  V30 34 H -0.407371 -2.663446 3.533076 0
M  V30 35 H 1.594250 -1.565985 2.443477 0
M  V30 36 H 1.771142 -1.664539 -0.743179 0
M  V30 37 H 2.820947 -0.611213 -3.192838 0
M  V30 38 H 4.031791 3.965687 -0.124042 0
M  V30 39 H 4.391913 6.373797 -0.221936 0
M  V30 40 H 2.189062 4.121843 -4.010100 0
M  V30 41 H 1.972561 3.019388 0.655860 0
M  V30 42 H -3.926461 -4.124093 4.558954 0
M  V30 43 H -4.158131 -6.561075 4.314002 0
M  V30 44 H -1.556389 -6.536114 0.918440 0
M  V30 45 H -1.335320 -4.104395 1.175419 0
M  V30 END ATOM
M  V30 BEGIN BOND
M  V30 1 1 1 2
M  V30 2 1 2 3
M  V30 3 1 3 4
M  V30 4 2 4 5
M  V30 5 1 4 6
M  V30 6 1 6 7
M  V30 7 2 7 8
M  V30 8 1 8 9
M  V30 9 1 9 10
M  V30 10 1 10 11
M  V30 11 2 11 12
M  V30 12 1 12 13
M  V30 13 2 13 14
M  V30 14 1 14 15
M  V30 15 2 15 16
M  V30 16 1 16 17
M  V30 17 1 17 18
M  V30 18 2 17 19
M  V30 19 1 12 20
M  V30 20 1 20 21
M  V30 21 2 21 22
M  V30 22 1 2 23
M  V30 23 2 23 24
M  V30 24 1 24 25
M  V30 25 2 25 26
M  V30 26 1 26 27
M  V30 27 1 26 28
M  V30 28 2 28 29
M  V30 29 1 22 7
M  V30 30 1 29 23
M  V30 31 2 20 9
M  V30 32 1 19 13
M  V30 33 1 1 30
M  V30 34 1 1 31
M  V30 35 1 1 32
M  V30 36 1 2 33 CFG=3
M  V30 37 1 3 34
M  V30 38 1 6 35
M  V30 39 1 8 36
M  V30 40 1 10 37
M  V30 41 1 14 38
M  V30 42 1 15 39
M  V30 43 1 19 40
M  V30 44 1 21 41
M  V30 45 1 24 42
M  V30 46 1 25 43
M  V30 47 1 28 44
M  V30 48 1 29 45
M  V30 END BOND
M  V30 END CTAB
M  END
>  <Dataset>  (264) 
ChEMBL_Kinases

>  <Ligand_Instance>  (264) 
nan

>  <PDB_ID>  (264) 
nan

>  <Standardized_SMILES>  (264) 
C[C@@H](NC(=O)Nc1cc2[nH]nc(-c3ccnc(F)c3)c2cn1)c1ccc(Cl)cc1

>  <Name>  (264) 
nan

>  <Pocket>  (264) 
nan

>  <ATP_Site>  (264) 
nan

>  <Peripheral>  (264) 
nan

>  <Num_H_Atoms_ProtBoundConf>  (264) 
nan

>  <Num_Resolved_Atoms>  (264) 
nan

>  <Num_Not_Resolved_Atoms>  (264) 
nan

$$$$
CHEMBL3654709
     RDKit          3D

  0  0  0  0  0  0  0  0  0  0999 V3000
M  V30 BEGIN CTAB
M  V30 COUNTS 42 45 0 0 0
M  V30 BEGIN ATOM
M  V30 1 O -1.547037 -1.344283 0.598742 0
M  V30 2 C -2.570728 -1.143733 -0.104308 0
M  V30 3 N -3.733519 -1.866692 0.292399 0
M  V30 4 C -3.836758 -2.798030 1.415724 0
M  V30 5 C -3.226244 -4.100303 1.144052 0
M  V30 6 C -1.929585 -4.491935 1.402064 0
M  V30 7 C -1.436212 -5.749103 1.104388 0
M  V30 8 C -2.289016 -6.643008 0.523526 0
M  V30 9 F -1.809358 -7.875153 0.230315 0
M  V30 10 C -3.618842 -6.337478 0.224552 0
M  V30 11 Cl -4.700311 -7.477537 -0.515196 0
M  V30 12 C -4.033137 -5.060897 0.553409 0
M  V30 13 N -2.623185 -0.263328 -1.234937 0
M  V30 14 C -1.347232 0.368292 -1.468613 0
M  V30 15 C -0.371606 -0.158046 -2.285483 0
M  V30 16 C 0.782067 0.593045 -2.374634 0
M  V30 17 N 1.918596 0.391341 -3.064125 0
M  V30 18 N 2.744772 1.408522 -2.821638 0
M  V30 19 C 2.158745 2.291482 -1.968580 0
M  V30 20 C 2.766189 3.505376 -1.492358 0
M  V30 21 C 2.646188 3.738565 -0.131091 0
M  V30 22 C 3.183515 4.874962 0.474070 0
M  V30 23 N 3.842673 5.773028 -0.308389 0
M  V30 24 C 3.982211 5.588021 -1.626045 0
M  V30 25 F 4.634161 6.468965 -2.415882 0
M  V30 26 C 3.451823 4.455536 -2.254350 0
M  V30 27 C 0.910271 1.782124 -1.678662 0
M  V30 28 C -0.089474 2.276932 -0.870258 0
M  V30 29 N -1.220571 1.535612 -0.786232 0
M  V30 30 H -4.588436 -1.689374 -0.307038 0
M  V30 31 H -3.351194 -2.326733 2.322056 0
M  V30 32 H -4.913167 -2.878147 1.667217 0
M  V30 33 H -1.290305 -3.754274 1.864379 0
M  V30 34 H -0.408997 -6.001003 1.329574 0
M  V30 35 H -5.072492 -4.835691 0.314963 0
M  V30 36 H -3.510182 -0.124848 -1.799663 0
M  V30 37 H -0.552149 -1.083292 -2.787780 0
M  V30 38 H 2.073054 -0.448361 -3.676370 0
M  V30 39 H 2.155801 3.125993 0.635874 0
M  V30 40 H 3.131248 5.124754 1.523906 0
M  V30 41 H 3.520678 4.229262 -3.317703 0
M  V30 42 H -0.030878 3.198815 -0.313255 0
M  V30 END ATOM
M  V30 BEGIN BOND
M  V30 1 2 1 2
M  V30 2 1 2 3
M  V30 3 1 3 4
M  V30 4 1 4 5
M  V30 5 2 5 6
M  V30 6 1 6 7
M  V30 7 2 7 8
M  V30 8 1 8 9
M  V30 9 1 8 10
M  V30 10 1 10 11
M  V30 11 2 10 12
M  V30 12 1 2 13
M  V30 13 1 13 14
M  V30 14 2 14 15
M  V30 15 1 15 16
M  V30 16 1 16 17
M  V30 17 1 17 18
M  V30 18 2 18 19
M  V30 19 1 19 20
M  V30 20 2 20 21
M  V30 21 1 21 22
M  V30 22 2 22 23
M  V30 23 1 23 24
M  V30 24 1 24 25
M  V30 25 2 24 26
M  V30 26 1 19 27
M  V30 27 1 27 28
M  V30 28 2 28 29
M  V30 29 1 12 5
M  V30 30 1 29 14
M  V30 31 2 27 16
M  V30 32 1 26 20
M  V30 33 1 3 30
M  V30 34 1 4 31
M  V30 35 1 4 32
M  V30 36 1 6 33
M  V30 37 1 7 34
M  V30 38 1 12 35
M  V30 39 1 13 36
M  V30 40 1 15 37
M  V30 41 1 17 38
M  V30 42 1 21 39
M  V30 43 1 22 40
M  V30 44 1 26 41
M  V30 45 1 28 42
M  V30 END BOND
M  V30 END CTAB
M  END
>  <Dataset>  (265) 
ChEMBL_Kinases

>  <Ligand_Instance>  (265) 
nan

>  <PDB_ID>  (265) 
nan

>  <Standardized_SMILES>  (265) 
O=C(NCc1ccc(F)c(Cl)c1)Nc1cc2[nH]nc(-c3ccnc(F)c3)c2cn1

>  <Name>  (265) 
nan

>  <Pocket>  (265) 
nan

>  <ATP_Site>  (265) 
nan

>  <Peripheral>  (265) 
nan

>  <Num_H_Atoms_ProtBoundConf>  (265) 
nan

>  <Num_Resolved_Atoms>  (265) 
nan

>  <Num_Not_Resolved_Atoms>  (265) 
nan

$$$$
CHEMBL3654710
     RDKit          3D

  0  0  0  0  0  0  0  0  0  0999 V3000
M  V30 BEGIN CTAB
M  V30 COUNTS 46 49 0 0 0
M  V30 BEGIN ATOM
M  V30 1 C -2.319994 -3.274720 4.153481 0
M  V30 2 C -2.085576 -3.268072 2.646980 0 CFG=1
M  V30 3 N -0.666681 -3.069097 2.402041 0
M  V30 4 C -0.194727 -1.883745 1.780008 0
M  V30 5 O -1.032775 -1.007386 1.444629 0
M  V30 6 N 1.173896 -1.655451 1.526181 0
M  V30 7 C 1.690596 -0.480931 0.904658 0
M  V30 8 C 3.049844 -0.348862 0.698297 0
M  V30 9 C 3.597733 0.772467 0.099178 0
M  V30 10 N 4.859804 1.129907 -0.205849 0
M  V30 11 N 4.791759 2.322990 -0.775023 0
M  V30 12 C 3.517041 2.752739 -0.848913 0
M  V30 13 C 3.038206 4.017497 -1.409623 0
M  V30 14 C 3.297686 4.748331 -2.557029 0
M  V30 15 N 2.535617 5.867332 -2.533406 0
M  V30 16 N 1.810699 5.873673 -1.426638 0
M  V30 17 C 0.879155 6.955467 -1.104637 0
M  V30 18 C 2.090730 4.759419 -0.714855 0
M  V30 19 C 2.696558 1.770561 -0.288426 0
M  V30 20 C 1.335765 1.640239 -0.082745 0
M  V30 21 N 0.860248 0.507660 0.514216 0
M  V30 22 C -2.626748 -4.496135 2.058179 0
M  V30 23 C -3.480295 -5.381054 2.722368 0
M  V30 24 C -3.989837 -6.533799 2.173345 0
M  V30 25 C -3.628869 -6.840908 0.860822 0
M  V30 26 Cl -4.285622 -8.317958 0.166387 0
M  V30 27 C -2.787090 -5.988527 0.174995 0
M  V30 28 C -2.303557 -4.844690 0.771599 0
M  V30 29 H -2.087103 -4.266192 4.591905 0
M  V30 30 H -3.386087 -3.023949 4.364415 0
M  V30 31 H -1.659168 -2.510539 4.610210 0
M  V30 32 H -2.598573 -2.354846 2.259817 0
M  V30 33 H 0.038050 -3.790998 2.676802 0
M  V30 34 H 1.816216 -2.407096 1.821857 0
M  V30 35 H 3.720336 -1.127156 1.003927 0
M  V30 36 H 5.681474 0.515159 0.004921 0
M  V30 37 H 4.024023 4.355898 -3.270326 0
M  V30 38 H 1.453553 7.859177 -0.883812 0
M  V30 39 H 0.314143 6.715300 -0.172865 0
M  V30 40 H 0.103785 7.069448 -1.885463 0
M  V30 41 H 1.572954 4.600921 0.242729 0
M  V30 42 H 0.672052 2.445735 -0.402215 0
M  V30 43 H -3.739169 -5.109541 3.741287 0
M  V30 44 H -4.646109 -7.184458 2.729057 0
M  V30 45 H -2.552625 -6.296392 -0.841651 0
M  V30 46 H -1.663020 -4.263889 0.147084 0
M  V30 END ATOM
M  V30 BEGIN BOND
M  V30 1 1 1 2
M  V30 2 1 2 3
M  V30 3 1 3 4
M  V30 4 2 4 5
M  V30 5 1 4 6
M  V30 6 1 6 7
M  V30 7 2 7 8
M  V30 8 1 8 9
M  V30 9 1 9 10
M  V30 10 1 10 11
M  V30 11 2 11 12
M  V30 12 1 12 13
M  V30 13 1 13 14
M  V30 14 2 14 15
M  V30 15 1 15 16
M  V30 16 1 16 17
M  V30 17 1 16 18
M  V30 18 1 12 19
M  V30 19 1 19 20
M  V30 20 2 20 21
M  V30 21 1 2 22
M  V30 22 2 22 23
M  V30 23 1 23 24
M  V30 24 2 24 25
M  V30 25 1 25 26
M  V30 26 1 25 27
M  V30 27 2 27 28
M  V30 28 1 21 7
M  V30 29 1 28 22
M  V30 30 2 19 9
M  V30 31 2 18 13
M  V30 32 1 1 29
M  V30 33 1 1 30
M  V30 34 1 1 31
M  V30 35 1 2 32 CFG=3
M  V30 36 1 3 33
M  V30 37 1 6 34
M  V30 38 1 8 35
M  V30 39 1 10 36
M  V30 40 1 14 37
M  V30 41 1 17 38
M  V30 42 1 17 39
M  V30 43 1 17 40
M  V30 44 1 18 41
M  V30 45 1 20 42
M  V30 46 1 23 43
M  V30 47 1 24 44
M  V30 48 1 27 45
M  V30 49 1 28 46
M  V30 END BOND
M  V30 END CTAB
M  END
>  <Dataset>  (266) 
ChEMBL_Kinases

>  <Ligand_Instance>  (266) 
nan

>  <PDB_ID>  (266) 
nan

>  <Standardized_SMILES>  (266) 
C[C@@H](NC(=O)Nc1cc2[nH]nc(-c3cnn(C)c3)c2cn1)c1ccc(Cl)cc1

>  <Name>  (266) 
nan

>  <Pocket>  (266) 
nan

>  <ATP_Site>  (266) 
nan

>  <Peripheral>  (266) 
nan

>  <Num_H_Atoms_ProtBoundConf>  (266) 
nan

>  <Num_Resolved_Atoms>  (266) 
nan

>  <Num_Not_Resolved_Atoms>  (266) 
nan

$$$$
CHEMBL3654711
     RDKit          3D

  0  0  0  0  0  0  0  0  0  0999 V3000
M  V30 BEGIN CTAB
M  V30 COUNTS 43 46 0 0 0
M  V30 BEGIN ATOM
M  V30 1 C -0.287165 -8.213690 3.644061 0
M  V30 2 N 0.364072 -7.198467 2.830901 0
M  V30 3 C -0.232243 -6.169493 2.192204 0
M  V30 4 C 0.719393 -5.401514 1.508123 0
M  V30 5 C 0.422673 -4.213226 0.712268 0
M  V30 6 N -0.590732 -4.127184 -0.170888 0
M  V30 7 N -0.608757 -2.927637 -0.740037 0
M  V30 8 C 0.398832 -2.174311 -0.249214 0
M  V30 9 C 0.896846 -0.894800 -0.426016 0
M  V30 10 C 2.008585 -0.440959 0.289922 0
M  V30 11 N 2.314410 0.898023 -0.077437 0
M  V30 12 C 1.742504 2.002137 0.597512 0
M  V30 13 O 0.950965 1.747118 1.540676 0
M  V30 14 N 2.042931 3.317995 0.232868 0
M  V30 15 C 1.534273 4.549090 0.827596 0
M  V30 16 C 0.140525 4.794478 0.368365 0
M  V30 17 C -0.146570 5.514908 -0.794780 0
M  V30 18 C -1.448452 5.742627 -1.219572 0
M  V30 19 C -2.509891 5.251841 -0.486823 0
M  V30 20 F -3.775193 5.491216 -0.928171 0
M  V30 21 C -2.276346 4.528489 0.678796 0
M  V30 22 Cl -3.619514 3.903075 1.612653 0
M  V30 23 C -0.955951 4.327165 1.062674 0
M  V30 24 N 2.615436 -1.257744 1.172683 0
M  V30 25 C 2.146663 -2.514869 1.363307 0
M  V30 26 C 1.053546 -2.986858 0.671225 0
M  V30 27 C 1.924338 -6.055336 1.791094 0
M  V30 28 N 1.659601 -7.111738 2.577095 0
M  V30 29 H 0.355695 -8.376221 4.549273 0
M  V30 30 H -1.260418 -7.843534 4.037546 0
M  V30 31 H -0.390514 -9.175057 3.108056 0
M  V30 32 H -1.312769 -5.955201 2.200516 0
M  V30 33 H -1.271252 -2.548551 -1.467624 0
M  V30 34 H 0.321218 -0.337261 -1.162843 0
M  V30 35 H 2.982078 1.088168 -0.872012 0
M  V30 36 H 2.708241 3.436557 -0.556586 0
M  V30 37 H 1.460288 4.367120 1.940255 0
M  V30 38 H 2.210806 5.393057 0.633128 0
M  V30 39 H 0.674334 5.911989 -1.389674 0
M  V30 40 H -1.647984 6.307786 -2.131908 0
M  V30 41 H -0.849578 3.766659 1.964941 0
M  V30 42 H 2.662575 -3.133914 2.079544 0
M  V30 43 H 2.847467 -5.661315 1.375095 0
M  V30 END ATOM
M  V30 BEGIN BOND
M  V30 1 1 1 2
M  V30 2 1 2 3
M  V30 3 2 3 4
M  V30 4 1 4 5
M  V30 5 2 5 6
M  V30 6 1 6 7
M  V30 7 1 7 8
M  V30 8 2 8 9
M  V30 9 1 9 10
M  V30 10 1 10 11
M  V30 11 1 11 12
M  V30 12 2 12 13
M  V30 13 1 12 14
M  V30 14 1 14 15
M  V30 15 1 15 16
M  V30 16 2 16 17
M  V30 17 1 17 18
M  V30 18 2 18 19
M  V30 19 1 19 20
M  V30 20 1 19 21
M  V30 21 1 21 22
M  V30 22 2 21 23
M  V30 23 2 10 24
M  V30 24 1 24 25
M  V30 25 2 25 26
M  V30 26 1 4 27
M  V30 27 2 27 28
M  V30 28 1 28 2
M  V30 29 1 26 5
M  V30 30 1 26 8
M  V30 31 1 23 16
M  V30 32 1 1 29
M  V30 33 1 1 30
M  V30 34 1 1 31
M  V30 35 1 3 32
M  V30 36 1 7 33
M  V30 37 1 9 34
M  V30 38 1 11 35
M  V30 39 1 14 36
M  V30 40 1 15 37
M  V30 41 1 15 38
M  V30 42 1 17 39
M  V30 43 1 18 40
M  V30 44 1 23 41
M  V30 45 1 25 42
M  V30 46 1 27 43
M  V30 END BOND
M  V30 END CTAB
M  END
>  <Dataset>  (267) 
ChEMBL_Kinases

>  <Ligand_Instance>  (267) 
nan

>  <PDB_ID>  (267) 
nan

>  <Standardized_SMILES>  (267) 
Cn1cc(-c2n[nH]c3cc(NC(=O)NCc4ccc(F)c(Cl)c4)ncc23)cn1

>  <Name>  (267) 
nan

>  <Pocket>  (267) 
nan

>  <ATP_Site>  (267) 
nan

>  <Peripheral>  (267) 
nan

>  <Num_H_Atoms_ProtBoundConf>  (267) 
nan

>  <Num_Resolved_Atoms>  (267) 
nan

>  <Num_Not_Resolved_Atoms>  (267) 
nan

$$$$
CHEMBL3654712
     RDKit          3D

  0  0  0  0  0  0  0  0  0  0999 V3000
M  V30 BEGIN CTAB
M  V30 COUNTS 42 45 0 0 0
M  V30 BEGIN ATOM
M  V30 1 C 2.299860 -5.456043 3.084463 0
M  V30 2 C 2.198470 -5.475151 1.600617 0
M  V30 3 C 2.346348 -4.291942 0.895640 0
M  V30 4 C 2.265510 -4.230806 -0.477064 0
M  V30 5 C 2.418061 -2.995382 -1.241016 0
M  V30 6 N 3.127239 -2.789847 -2.348055 0
M  V30 7 N 3.016853 -1.531653 -2.745264 0
M  V30 8 C 2.226226 -0.831985 -1.921082 0
M  V30 9 C 1.753671 0.469577 -1.818408 0
M  V30 10 C 0.929116 0.812447 -0.788094 0
M  V30 11 N 0.420280 2.139490 -0.644649 0
M  V30 12 C -0.432868 2.494711 0.421143 0
M  V30 13 O -0.715524 1.584881 1.227722 0
M  V30 14 N -1.000740 3.772354 0.671045 0
M  V30 15 C -1.831349 3.797098 1.850382 0
M  V30 16 C -1.379800 4.088414 3.120148 0
M  V30 17 C -2.278530 4.081150 4.182663 0
M  V30 18 C -3.597096 3.776266 3.896802 0
M  V30 19 C -4.087092 3.479835 2.642375 0
M  V30 20 C -3.162374 3.496149 1.604551 0
M  V30 21 N 0.568618 -0.111583 0.136420 0
M  V30 22 C 1.010917 -1.387707 0.065875 0
M  V30 23 C 1.846743 -1.756433 -0.969175 0
M  V30 24 C 2.027355 -5.411159 -1.142666 0
M  V30 25 C 1.877654 -6.601546 -0.447422 0
M  V30 26 N 1.970390 -6.573363 0.883207 0
M  V30 27 H 2.418530 -6.481222 3.483807 0
M  V30 28 H 3.213763 -4.856951 3.323498 0
M  V30 29 H 1.419970 -4.919815 3.473267 0
M  V30 30 H 2.531173 -3.393847 1.456413 0
M  V30 31 H 3.474734 -1.100150 -3.591921 0
M  V30 32 H 2.061231 1.180441 -2.572946 0
M  V30 33 H 0.658108 2.889388 -1.316417 0
M  V30 34 H -0.748838 4.532620 -0.025438 0
M  V30 35 H -0.327233 4.313452 3.233343 0
M  V30 36 H -1.937871 4.305474 5.169097 0
M  V30 37 H -4.281418 3.777431 4.747766 0
M  V30 38 H -5.140304 3.256363 2.539794 0
M  V30 39 H -3.583349 3.257617 0.628053 0
M  V30 40 H 0.659437 -2.020171 0.848752 0
M  V30 41 H 1.941772 -5.498012 -2.219582 0
M  V30 42 H 1.687251 -7.582939 -0.885931 0
M  V30 END ATOM
M  V30 BEGIN BOND
M  V30 1 1 1 2
M  V30 2 2 2 3
M  V30 3 1 3 4
M  V30 4 1 4 5
M  V30 5 2 5 6
M  V30 6 1 6 7
M  V30 7 1 7 8
M  V30 8 2 8 9
M  V30 9 1 9 10
M  V30 10 1 10 11
M  V30 11 1 11 12
M  V30 12 2 12 13
M  V30 13 1 12 14
M  V30 14 1 14 15
M  V30 15 2 15 16
M  V30 16 1 16 17
M  V30 17 2 17 18
M  V30 18 1 18 19
M  V30 19 2 19 20
M  V30 20 2 10 21
M  V30 21 1 21 22
M  V30 22 2 22 23
M  V30 23 2 4 24
M  V30 24 1 24 25
M  V30 25 2 25 26
M  V30 26 1 26 2
M  V30 27 1 23 5
M  V30 28 1 23 8
M  V30 29 1 20 15
M  V30 30 1 1 27
M  V30 31 1 1 28
M  V30 32 1 1 29
M  V30 33 1 3 30
M  V30 34 1 7 31
M  V30 35 1 9 32
M  V30 36 1 11 33
M  V30 37 1 14 34
M  V30 38 1 16 35
M  V30 39 1 17 36
M  V30 40 1 18 37
M  V30 41 1 19 38
M  V30 42 1 20 39
M  V30 43 1 22 40
M  V30 44 1 24 41
M  V30 45 1 25 42
M  V30 END BOND
M  V30 END CTAB
M  END
>  <Dataset>  (268) 
ChEMBL_Kinases

>  <Ligand_Instance>  (268) 
nan

>  <PDB_ID>  (268) 
nan

>  <Standardized_SMILES>  (268) 
Cc1cc(-c2n[nH]c3cc(NC(=O)Nc4ccccc4)ncc23)ccn1

>  <Name>  (268) 
nan

>  <Pocket>  (268) 
nan

>  <ATP_Site>  (268) 
nan

>  <Peripheral>  (268) 
nan

>  <Num_H_Atoms_ProtBoundConf>  (268) 
nan

>  <Num_Resolved_Atoms>  (268) 
nan

>  <Num_Not_Resolved_Atoms>  (268) 
nan

$$$$
CHEMBL3654704
     RDKit          3D

  0  0  0  0  0  0  0  0  0  0999 V3000
M  V30 BEGIN CTAB
M  V30 COUNTS 45 48 0 0 0
M  V30 BEGIN ATOM
M  V30 1 C -1.210396 -6.435908 1.649764 0
M  V30 2 C -0.676852 -6.101891 0.285031 0
M  V30 3 C -0.456567 -4.775632 -0.078446 0
M  V30 4 C 0.041029 -4.508875 -1.358786 0
M  V30 5 C 0.261793 -3.108163 -1.710867 0
M  V30 6 N -0.106809 -2.555632 -2.882791 0
M  V30 7 N 0.226899 -1.261876 -2.913835 0
M  V30 8 C 0.826677 -0.917461 -1.763846 0
M  V30 9 C 1.364993 0.244771 -1.251068 0
M  V30 10 C 1.921948 0.233772 0.018119 0
M  V30 11 N 2.491703 1.421185 0.586834 0
M  V30 12 C 1.639623 2.269228 1.341587 0
M  V30 13 O 0.416219 2.046115 1.543839 0
M  V30 14 N 2.305432 3.421644 1.862264 0
M  V30 15 C 1.739788 4.499568 2.678342 0
M  V30 16 C 0.293087 4.238826 2.919091 0
M  V30 17 C -0.041521 3.497887 4.050373 0
M  V30 18 C -1.341059 3.190391 4.382528 0
M  V30 19 C -2.385649 3.618087 3.583062 0
M  V30 20 C -2.057530 4.355261 2.456960 0
M  V30 21 F -3.078164 4.774932 1.673014 0
M  V30 22 C -0.760744 4.655979 2.135186 0
M  V30 23 N 1.926443 -0.920581 0.730981 0
M  V30 24 C 1.402816 -2.064145 0.240143 0
M  V30 25 C 0.842566 -2.081924 -1.018995 0
M  V30 26 C 0.300573 -5.551429 -2.225476 0
M  V30 27 C 0.065830 -6.870312 -1.822255 0
M  V30 28 N -0.415646 -7.100250 -0.578648 0
M  V30 29 H -0.817108 -7.416118 2.017006 0
M  V30 30 H -1.031472 -5.617640 2.364170 0
M  V30 31 H -2.313210 -6.567812 1.552706 0
M  V30 32 H -0.690159 -4.056467 0.664633 0
M  V30 33 H 0.055685 -0.609090 -3.699320 0
M  V30 34 H 1.343632 1.140753 -1.844897 0
M  V30 35 H 3.523192 1.526908 0.365902 0
M  V30 36 H 3.319501 3.636209 1.712741 0
M  V30 37 H 2.261642 4.520161 3.649028 0
M  V30 38 H 1.901125 5.486026 2.199110 0
M  V30 39 H 0.750400 3.143663 4.703848 0
M  V30 40 H -1.524991 2.606954 5.282740 0
M  V30 41 H -3.396828 3.362311 3.867634 0
M  V30 42 H -0.489685 5.230732 1.259009 0
M  V30 43 H 1.432089 -2.950817 0.846174 0
M  V30 44 H 0.687675 -5.340228 -3.220896 0
M  V30 45 H 0.280864 -7.682120 -2.531549 0
M  V30 END ATOM
M  V30 BEGIN BOND
M  V30 1 1 1 2
M  V30 2 2 2 3
M  V30 3 1 3 4
M  V30 4 1 4 5
M  V30 5 2 5 6
M  V30 6 1 6 7
M  V30 7 1 7 8
M  V30 8 2 8 9
M  V30 9 1 9 10
M  V30 10 1 10 11
M  V30 11 1 11 12
M  V30 12 2 12 13
M  V30 13 1 12 14
M  V30 14 1 14 15
M  V30 15 1 15 16
M  V30 16 2 16 17
M  V30 17 1 17 18
M  V30 18 2 18 19
M  V30 19 1 19 20
M  V30 20 1 20 21
M  V30 21 2 20 22
M  V30 22 2 10 23
M  V30 23 1 23 24
M  V30 24 2 24 25
M  V30 25 2 4 26
M  V30 26 1 26 27
M  V30 27 2 27 28
M  V30 28 1 28 2
M  V30 29 1 25 5
M  V30 30 1 25 8
M  V30 31 1 22 16
M  V30 32 1 1 29
M  V30 33 1 1 30
M  V30 34 1 1 31
M  V30 35 1 3 32
M  V30 36 1 7 33
M  V30 37 1 9 34
M  V30 38 1 11 35
M  V30 39 1 14 36
M  V30 40 1 15 37
M  V30 41 1 15 38
M  V30 42 1 17 39
M  V30 43 1 18 40
M  V30 44 1 19 41
M  V30 45 1 22 42
M  V30 46 1 24 43
M  V30 47 1 26 44
M  V30 48 1 27 45
M  V30 END BOND
M  V30 END CTAB
M  END
>  <Dataset>  (269) 
ChEMBL_Kinases

>  <Ligand_Instance>  (269) 
nan

>  <PDB_ID>  (269) 
nan

>  <Standardized_SMILES>  (269) 
Cc1cc(-c2n[nH]c3cc(NC(=O)NCc4cccc(F)c4)ncc23)ccn1

>  <Name>  (269) 
nan

>  <Pocket>  (269) 
nan

>  <ATP_Site>  (269) 
nan

>  <Peripheral>  (269) 
nan

>  <Num_H_Atoms_ProtBoundConf>  (269) 
nan

>  <Num_Resolved_Atoms>  (269) 
nan

>  <Num_Not_Resolved_Atoms>  (269) 
nan

$$$$
CHEMBL3654760
     RDKit          3D

  0  0  0  0  0  0  0  0  0  0999 V3000
M  V30 BEGIN CTAB
M  V30 COUNTS 55 58 0 0 0
M  V30 BEGIN ATOM
M  V30 1 C 3.369913 -7.745491 1.087389 0
M  V30 2 O 4.240797 -6.856920 0.445594 0
M  V30 3 C 3.764592 -5.575165 0.360963 0 CFG=1
M  V30 4 C 4.668575 -4.547798 1.024833 0
M  V30 5 N 4.260947 -3.278732 0.419983 0
M  V30 6 C 4.089042 -2.149659 1.255611 0
M  V30 7 O 4.385132 -2.663739 2.389517 0
M  V30 8 C 3.719574 -0.754242 1.201183 0
M  V30 9 N 4.646087 0.218097 1.444878 0
M  V30 10 N 4.069553 1.398585 1.345489 0
M  V30 11 C 2.757441 1.230287 1.035364 0
M  V30 12 C 1.707719 2.130206 0.821008 0
M  V30 13 C 0.457272 1.581181 0.517060 0
M  V30 14 N -0.679578 2.410521 0.297208 0
M  V30 15 C -1.992983 1.936612 -0.056832 0
M  V30 16 O -2.136832 0.704430 -0.197698 0
M  V30 17 N -3.074997 2.852450 -0.235793 0
M  V30 18 C -4.337412 2.281289 -0.594739 0 CFG=2
M  V30 19 C -4.997825 2.940960 -1.774925 0
M  V30 20 C -5.272091 2.412308 0.562411 0
M  V30 21 C -5.430315 3.572921 1.302226 0
M  V30 22 C -6.303629 3.663764 2.363852 0
M  V30 23 C -7.073950 2.559021 2.733986 0
M  V30 24 C -6.960044 1.365742 2.029628 0
M  V30 25 C -6.065493 1.373986 0.990054 0
M  V30 26 N 0.276463 0.243027 0.434519 0
M  V30 27 C 1.288494 -0.636058 0.640817 0
M  V30 28 C 2.521865 -0.124215 0.940867 0
M  V30 29 C 4.168107 -3.674498 -0.971873 0
M  V30 30 C 3.778551 -5.098966 -1.058419 0 CFG=2
M  V30 31 O 2.553475 -5.231562 -1.698655 0
M  V30 32 H 3.768291 -8.776796 1.127527 0
M  V30 33 H 2.350156 -7.687198 0.668637 0
M  V30 34 H 3.292199 -7.434916 2.168120 0
M  V30 35 H 2.764899 -5.506786 0.827469 0
M  V30 36 H 5.691085 -4.823988 0.759309 0
M  V30 37 H 4.469411 -4.555875 2.109290 0
M  V30 38 H 4.451952 2.360958 1.465830 0
M  V30 39 H 1.846107 3.195445 0.885835 0
M  V30 40 H -0.550069 3.460102 0.414102 0
M  V30 41 H -2.857768 3.861139 -0.092172 0
M  V30 42 H -4.214276 1.217619 -0.792608 0
M  V30 43 H -5.340314 3.988188 -1.533077 0
M  V30 44 H -4.451276 2.851236 -2.712205 0
M  V30 45 H -5.973875 2.392091 -1.915083 0
M  V30 46 H -4.839967 4.456228 1.034113 0
M  V30 47 H -6.387442 4.600288 2.909002 0
M  V30 48 H -7.772580 2.589405 3.564410 0
M  V30 49 H -7.550533 0.532631 2.319931 0
M  V30 50 H -5.933892 0.452660 0.397399 0
M  V30 51 H 1.157369 -1.714499 0.577082 0
M  V30 52 H 5.107866 -3.425300 -1.515004 0
M  V30 53 H 3.319741 -3.048996 -1.382054 0
M  V30 54 H 4.561712 -5.638442 -1.637912 0
M  V30 55 H 2.637837 -4.824471 -2.596198 0
M  V30 END ATOM
M  V30 BEGIN BOND
M  V30 1 1 1 2
M  V30 2 1 2 3
M  V30 3 1 3 4
M  V30 4 1 4 5
M  V30 5 1 5 6
M  V30 6 2 6 7
M  V30 7 1 6 8
M  V30 8 2 8 9
M  V30 9 1 9 10
M  V30 10 1 10 11
M  V30 11 2 11 12
M  V30 12 1 12 13
M  V30 13 1 13 14
M  V30 14 1 14 15
M  V30 15 2 15 16
M  V30 16 1 15 17
M  V30 17 1 17 18
M  V30 18 1 18 19
M  V30 19 1 18 20
M  V30 20 2 20 21
M  V30 21 1 21 22
M  V30 22 2 22 23
M  V30 23 1 23 24
M  V30 24 2 24 25
M  V30 25 2 13 26
M  V30 26 1 26 27
M  V30 27 2 27 28
M  V30 28 1 5 29
M  V30 29 1 29 30
M  V30 30 1 30 31
M  V30 31 1 30 3
M  V30 32 1 28 8
M  V30 33 1 28 11
M  V30 34 1 25 20
M  V30 35 1 1 32
M  V30 36 1 1 33
M  V30 37 1 1 34
M  V30 38 1 3 35 CFG=1
M  V30 39 1 4 36
M  V30 40 1 4 37
M  V30 41 1 10 38
M  V30 42 1 12 39
M  V30 43 1 14 40
M  V30 44 1 17 41
M  V30 45 1 18 42 CFG=3
M  V30 46 1 19 43
M  V30 47 1 19 44
M  V30 48 1 19 45
M  V30 49 1 21 46
M  V30 50 1 22 47
M  V30 51 1 23 48
M  V30 52 1 24 49
M  V30 53 1 25 50
M  V30 54 1 27 51
M  V30 55 1 29 52
M  V30 56 1 29 53
M  V30 57 1 30 54 CFG=3
M  V30 58 1 31 55
M  V30 END BOND
M  V30 END CTAB
M  END
>  <Dataset>  (270) 
ChEMBL_Kinases

>  <Ligand_Instance>  (270) 
nan

>  <PDB_ID>  (270) 
nan

>  <Standardized_SMILES>  (270) 
CO[C@H]1CN(C(=O)c2n[nH]c3cc(NC(=O)N[C@H](C)c4ccccc4)ncc23)C[C@@H]1O

>  <Name>  (270) 
nan

>  <Pocket>  (270) 
nan

>  <ATP_Site>  (270) 
nan

>  <Peripheral>  (270) 
nan

>  <Num_H_Atoms_ProtBoundConf>  (270) 
nan

>  <Num_Resolved_Atoms>  (270) 
nan

>  <Num_Not_Resolved_Atoms>  (270) 
nan

$$$$
CHEMBL3654759
     RDKit          3D

  0  0  0  0  0  0  0  0  0  0999 V3000
M  V30 BEGIN CTAB
M  V30 COUNTS 62 66 0 0 0
M  V30 BEGIN ATOM
M  V30 1 C 3.117385 -2.546468 6.521330 0
M  V30 2 C 2.330813 -3.086249 5.369575 0 CFG=1
M  V30 3 N 3.214445 -3.048475 4.199478 0
M  V30 4 C 2.805618 -2.284752 3.086546 0
M  V30 5 O 1.711685 -1.659275 3.107555 0
M  V30 6 N 3.594190 -2.173862 1.883544 0
M  V30 7 C 3.108383 -1.383774 0.806261 0
M  V30 8 C 3.847879 -1.259262 -0.351508 0
M  V30 9 C 3.331050 -0.483524 -1.366792 0
M  V30 10 N 3.681444 -0.095226 -2.602181 0
M  V30 11 N 2.772498 0.697026 -3.173490 0
M  V30 12 C 1.739817 0.871371 -2.301012 0
M  V30 13 C 0.670681 1.704305 -2.766919 0
M  V30 14 O 0.767750 2.280492 -3.898073 0
M  V30 15 N -0.569383 2.072025 -2.232955 0
M  V30 16 C -1.540179 2.938291 -2.854395 0
M  V30 17 C -2.766045 3.085901 -1.961934 0
M  V30 18 C -3.737925 3.983287 -2.648925 0
M  V30 19 C -5.011611 3.209800 -2.589751 0
M  V30 20 N -4.700332 1.825631 -2.504364 0
M  V30 21 C -4.578465 1.117235 -3.733425 0
M  V30 22 C -5.699097 1.004135 -4.694914 0
M  V30 23 C -5.254134 -0.220100 -3.946634 0
M  V30 24 C -3.469801 1.787473 -1.752658 0
M  V30 25 C 2.113199 0.136712 -1.205767 0
M  V30 26 C 1.393334 0.004110 -0.054332 0
M  V30 27 N 1.923572 -0.758865 0.917383 0
M  V30 28 C 1.800733 -4.441576 5.622444 0
M  V30 29 C 2.571758 -5.581825 5.583526 0
M  V30 30 C 2.135717 -6.868822 5.809654 0
M  V30 31 C 0.792884 -6.979403 6.099298 0
M  V30 32 C -0.101853 -5.916072 6.171947 0
M  V30 33 C 0.459091 -4.673981 5.924348 0
M  V30 34 H 3.882227 -3.327711 6.778994 0
M  V30 35 H 3.546565 -1.576984 6.255608 0
M  V30 36 H 2.528611 -2.404433 7.440850 0
M  V30 37 H 1.432830 -2.450141 5.147875 0
M  V30 38 H 4.110909 -3.564965 4.186867 0
M  V30 39 H 4.501501 -2.679070 1.837526 0
M  V30 40 H 4.797614 -1.730838 -0.504909 0
M  V30 41 H 4.578573 -0.389014 -3.062304 0
M  V30 42 H -0.794583 1.670894 -1.305714 0
M  V30 43 H -1.108393 3.979968 -2.894174 0
M  V30 44 H -1.779749 2.692404 -3.891224 0
M  V30 45 H -2.388788 3.529189 -1.009898 0
M  V30 46 H -3.439968 4.315559 -3.660084 0
M  V30 47 H -3.851728 4.909947 -2.033407 0
M  V30 48 H -5.722309 3.467939 -3.400847 0
M  V30 49 H -5.553130 3.480939 -1.645337 0
M  V30 50 H -3.557210 1.125979 -4.192630 0
M  V30 51 H -6.729294 1.343318 -4.459551 0
M  V30 52 H -5.467565 1.048911 -5.778529 0
M  V30 53 H -4.777491 -1.005642 -4.556209 0
M  V30 54 H -5.829910 -0.594011 -3.090276 0
M  V30 55 H -2.878754 0.937343 -2.155676 0
M  V30 56 H -3.650391 1.685739 -0.660302 0
M  V30 57 H 0.445211 0.478993 0.094809 0
M  V30 58 H 3.644886 -5.484210 5.351257 0
M  V30 59 H 2.780567 -7.729573 5.767340 0
M  V30 60 H 0.373853 -7.976269 6.291630 0
M  V30 61 H -1.143369 -6.017914 6.398741 0
M  V30 62 H -0.206995 -3.814872 5.970422 0
M  V30 END ATOM
M  V30 BEGIN BOND
M  V30 1 1 1 2
M  V30 2 1 2 3
M  V30 3 1 3 4
M  V30 4 2 4 5
M  V30 5 1 4 6
M  V30 6 1 6 7
M  V30 7 2 7 8
M  V30 8 1 8 9
M  V30 9 1 9 10
M  V30 10 1 10 11
M  V30 11 2 11 12
M  V30 12 1 12 13
M  V30 13 2 13 14
M  V30 14 1 13 15
M  V30 15 1 15 16
M  V30 16 1 16 17
M  V30 17 1 17 18
M  V30 18 1 18 19
M  V30 19 1 19 20
M  V30 20 1 20 21
M  V30 21 1 21 22
M  V30 22 1 22 23
M  V30 23 1 20 24
M  V30 24 1 12 25
M  V30 25 1 25 26
M  V30 26 2 26 27
M  V30 27 1 2 28
M  V30 28 2 28 29
M  V30 29 1 29 30
M  V30 30 2 30 31
M  V30 31 1 31 32
M  V30 32 2 32 33
M  V30 33 1 27 7
M  V30 34 1 33 28
M  V30 35 2 25 9
M  V30 36 1 24 17
M  V30 37 1 23 21
M  V30 38 1 1 34
M  V30 39 1 1 35
M  V30 40 1 1 36
M  V30 41 1 2 37 CFG=3
M  V30 42 1 3 38
M  V30 43 1 6 39
M  V30 44 1 8 40
M  V30 45 1 10 41
M  V30 46 1 15 42
M  V30 47 1 16 43
M  V30 48 1 16 44
M  V30 49 1 17 45
M  V30 50 1 18 46
M  V30 51 1 18 47
M  V30 52 1 19 48
M  V30 53 1 19 49
M  V30 54 1 21 50
M  V30 55 1 22 51
M  V30 56 1 22 52
M  V30 57 1 23 53
M  V30 58 1 23 54
M  V30 59 1 24 55
M  V30 60 1 24 56
M  V30 61 1 26 57
M  V30 62 1 29 58
M  V30 63 1 30 59
M  V30 64 1 31 60
M  V30 65 1 32 61
M  V30 66 1 33 62
M  V30 END BOND
M  V30 END CTAB
M  END
>  <Dataset>  (271) 
ChEMBL_Kinases

>  <Ligand_Instance>  (271) 
nan

>  <PDB_ID>  (271) 
nan

>  <Standardized_SMILES>  (271) 
C[C@@H](NC(=O)Nc1cc2[nH]nc(C(=O)NCC3CCN(C4CC4)C3)c2cn1)c1ccccc1

>  <Name>  (271) 
nan

>  <Pocket>  (271) 
nan

>  <ATP_Site>  (271) 
nan

>  <Peripheral>  (271) 
nan

>  <Num_H_Atoms_ProtBoundConf>  (271) 
nan

>  <Num_Resolved_Atoms>  (271) 
nan

>  <Num_Not_Resolved_Atoms>  (271) 
nan

$$$$
CHEMBL3654758
     RDKit          3D

  0  0  0  0  0  0  0  0  0  0999 V3000
M  V30 BEGIN CTAB
M  V30 COUNTS 61 64 0 0 0
M  V30 BEGIN ATOM
M  V30 1 C 4.005769 -0.194980 7.250510 0
M  V30 2 C 2.711262 0.319240 6.659759 0 CFG=1
M  V30 3 N 2.264973 -0.659446 5.691750 0
M  V30 4 C 2.191516 -0.469584 4.297338 0
M  V30 5 O 2.510671 0.594674 3.712157 0
M  V30 6 N 1.720054 -1.576048 3.524406 0
M  V30 7 C 1.630721 -1.420566 2.110752 0
M  V30 8 C 2.645784 -1.709959 1.213714 0
M  V30 9 C 2.482542 -1.532076 -0.149091 0
M  V30 10 N 3.265751 -1.721804 -1.225442 0
M  V30 11 N 2.559633 -1.373288 -2.287938 0
M  V30 12 C 1.321385 -0.954902 -1.943544 0
M  V30 13 C 0.264488 -0.494209 -2.833383 0
M  V30 14 O -0.829693 -0.138454 -2.331283 0
M  V30 15 N 0.403713 -0.427042 -4.217895 0
M  V30 16 C -0.464776 -0.024401 -5.298515 0
M  V30 17 C -1.673353 -0.917558 -5.332706 0
M  V30 18 F -1.206167 -2.204115 -5.518361 0
M  V30 19 F -2.399398 -0.746204 -4.184621 0
M  V30 20 C -2.576959 -0.496498 -6.480870 0
M  V30 21 N -3.759625 -1.276405 -6.611219 0
M  V30 22 C -4.730495 -1.151470 -5.580907 0
M  V30 23 C -4.930646 -2.498736 -4.950264 0
M  V30 24 C -4.127734 -3.460384 -5.773926 0
M  V30 25 C -3.585730 -2.651435 -6.930439 0
M  V30 26 C 1.253900 -1.050379 -0.571297 0
M  V30 27 C 0.212995 -0.750696 0.313823 0
M  V30 28 N 0.477779 -0.958559 1.598025 0
M  V30 29 C 1.718980 0.611621 7.700439 0
M  V30 30 C 1.023566 -0.412121 8.310465 0
M  V30 31 C 0.111340 -0.040882 9.276240 0
M  V30 32 C -0.137715 1.261389 9.655997 0
M  V30 33 C 0.559057 2.282241 9.044366 0
M  V30 34 C 1.479344 1.919076 8.071042 0
M  V30 35 H 3.987618 -1.298361 7.237495 0
M  V30 36 H 4.028210 0.142122 8.327060 0
M  V30 37 H 4.875619 0.186330 6.679238 0
M  V30 38 H 2.987240 1.243549 6.071802 0
M  V30 39 H 1.993326 -1.553446 6.155480 0
M  V30 40 H 1.428299 -2.511394 3.924600 0
M  V30 41 H 3.566972 -2.078493 1.613877 0
M  V30 42 H 4.254831 -2.081961 -1.203580 0
M  V30 43 H 1.373397 -0.749192 -4.529474 0
M  V30 44 H -0.864924 1.022447 -5.104236 0
M  V30 45 H 0.069520 0.021994 -6.249628 0
M  V30 46 H -2.901687 0.545761 -6.229851 0
M  V30 47 H -2.002130 -0.539296 -7.404638 0
M  V30 48 H -5.700874 -0.869212 -6.072874 0
M  V30 49 H -4.556365 -0.334636 -4.849128 0
M  V30 50 H -6.016322 -2.808570 -4.979680 0
M  V30 51 H -4.682903 -2.516652 -3.868644 0
M  V30 52 H -3.311146 -3.950517 -5.182727 0
M  V30 53 H -4.778254 -4.308414 -6.115241 0
M  V30 54 H -2.568751 -2.954636 -7.225591 0
M  V30 55 H -4.236619 -2.879628 -7.812464 0
M  V30 56 H -0.747036 -0.375129 -0.009469 0
M  V30 57 H 1.199557 -1.440838 8.032305 0
M  V30 58 H -0.454598 -0.843356 9.775333 0
M  V30 59 H -0.858248 1.537880 10.416617 0
M  V30 60 H 0.448193 3.337448 9.259427 0
M  V30 61 H 2.046329 2.719545 7.570342 0
M  V30 END ATOM
M  V30 BEGIN BOND
M  V30 1 1 1 2
M  V30 2 1 2 3
M  V30 3 1 3 4
M  V30 4 2 4 5
M  V30 5 1 4 6
M  V30 6 1 6 7
M  V30 7 2 7 8
M  V30 8 1 8 9
M  V30 9 1 9 10
M  V30 10 1 10 11
M  V30 11 2 11 12
M  V30 12 1 12 13
M  V30 13 2 13 14
M  V30 14 1 13 15
M  V30 15 1 15 16
M  V30 16 1 16 17
M  V30 17 1 17 18
M  V30 18 1 17 19
M  V30 19 1 17 20
M  V30 20 1 20 21
M  V30 21 1 21 22
M  V30 22 1 22 23
M  V30 23 1 23 24
M  V30 24 1 24 25
M  V30 25 1 12 26
M  V30 26 1 26 27
M  V30 27 2 27 28
M  V30 28 1 2 29
M  V30 29 2 29 30
M  V30 30 1 30 31
M  V30 31 2 31 32
M  V30 32 1 32 33
M  V30 33 2 33 34
M  V30 34 1 28 7
M  V30 35 1 34 29
M  V30 36 2 26 9
M  V30 37 1 25 21
M  V30 38 1 1 35
M  V30 39 1 1 36
M  V30 40 1 1 37
M  V30 41 1 2 38 CFG=3
M  V30 42 1 3 39
M  V30 43 1 6 40
M  V30 44 1 8 41
M  V30 45 1 10 42
M  V30 46 1 15 43
M  V30 47 1 16 44
M  V30 48 1 16 45
M  V30 49 1 20 46
M  V30 50 1 20 47
M  V30 51 1 22 48
M  V30 52 1 22 49
M  V30 53 1 23 50
M  V30 54 1 23 51
M  V30 55 1 24 52
M  V30 56 1 24 53
M  V30 57 1 25 54
M  V30 58 1 25 55
M  V30 59 1 27 56
M  V30 60 1 30 57
M  V30 61 1 31 58
M  V30 62 1 32 59
M  V30 63 1 33 60
M  V30 64 1 34 61
M  V30 END BOND
M  V30 END CTAB
M  END
>  <Dataset>  (272) 
ChEMBL_Kinases

>  <Ligand_Instance>  (272) 
nan

>  <PDB_ID>  (272) 
nan

>  <Standardized_SMILES>  (272) 
C[C@@H](NC(=O)Nc1cc2[nH]nc(C(=O)NCC(F)(F)CN3CCCC3)c2cn1)c1ccccc1

>  <Name>  (272) 
nan

>  <Pocket>  (272) 
nan

>  <ATP_Site>  (272) 
nan

>  <Peripheral>  (272) 
nan

>  <Num_H_Atoms_ProtBoundConf>  (272) 
nan

>  <Num_Resolved_Atoms>  (272) 
nan

>  <Num_Not_Resolved_Atoms>  (272) 
nan

$$$$
CHEMBL3654757
     RDKit          3D

  0  0  0  0  0  0  0  0  0  0999 V3000
M  V30 BEGIN CTAB
M  V30 COUNTS 60 63 0 0 0
M  V30 BEGIN ATOM
M  V30 1 C 3.895064 -6.369122 0.138147 0
M  V30 2 C 4.361168 -5.334756 1.147224 0 CFG=1
M  V30 3 N 3.184285 -4.901339 1.918947 0
M  V30 4 C 2.652425 -3.595710 1.731235 0
M  V30 5 O 3.122799 -2.764840 0.932881 0
M  V30 6 N 1.512461 -3.349645 2.568602 0
M  V30 7 C 0.890110 -2.073857 2.443914 0
M  V30 8 C 1.182460 -0.922689 3.133718 0
M  V30 9 C 0.423708 0.176352 2.812505 0
M  V30 10 N 0.421110 1.440263 3.252207 0
M  V30 11 N -0.508942 2.158224 2.624589 0
M  V30 12 C -1.158058 1.372122 1.738400 0
M  V30 13 C -2.205773 1.963492 0.944253 0
M  V30 14 O -2.316671 3.239156 0.998000 0
M  V30 15 N -3.191841 1.490102 0.084274 0
M  V30 16 C -4.142439 2.268172 -0.621464 0
M  V30 17 C -3.584225 3.288225 -1.586266 0
M  V30 18 C -4.819559 3.963414 -2.199996 0
M  V30 19 O -5.560215 4.563232 -1.184577 0
M  V30 20 C -4.495225 4.930295 -3.279103 0
M  V30 21 C -4.945554 4.257859 -4.584296 0
M  V30 22 C -6.223913 3.570942 -4.083663 0
M  V30 23 C -5.713199 2.904341 -2.838139 0
M  V30 24 C -0.569467 0.139152 1.861813 0
M  V30 25 C -0.840468 -1.020862 1.188409 0
M  V30 26 N -0.086307 -2.088315 1.516664 0
M  V30 27 C 5.418580 -5.876861 2.011005 0
M  V30 28 C 6.214520 -6.996613 1.962654 0
M  V30 29 C 7.145635 -7.236956 2.940835 0
M  V30 30 C 7.343266 -6.395892 4.015033 0
M  V30 31 C 6.546845 -5.249683 4.089838 0
M  V30 32 C 5.598061 -5.003569 3.092189 0
M  V30 33 H 3.237756 -7.077540 0.699056 0
M  V30 34 H 3.332427 -5.881350 -0.691596 0
M  V30 35 H 4.687745 -6.948407 -0.321911 0
M  V30 36 H 4.756159 -4.472182 0.538058 0
M  V30 37 H 2.830736 -5.636340 2.568711 0
M  V30 38 H 1.054194 -3.986817 3.267135 0
M  V30 39 H 1.956187 -0.956694 3.851714 0
M  V30 40 H 1.064469 1.801187 3.987098 0
M  V30 41 H -3.198526 0.454276 -0.018255 0
M  V30 42 H -4.821866 2.808629 0.073914 0
M  V30 43 H -4.802541 1.608172 -1.213323 0
M  V30 44 H -3.028160 2.842042 -2.424176 0
M  V30 45 H -3.028317 4.089709 -1.054803 0
M  V30 46 H -6.520963 4.350481 -1.231080 0
M  V30 47 H -5.126828 5.837957 -3.198156 0
M  V30 48 H -3.425846 5.211776 -3.333518 0
M  V30 49 H -5.199130 4.979482 -5.369392 0
M  V30 50 H -4.233592 3.474108 -4.861472 0
M  V30 51 H -6.995458 4.338944 -3.893393 0
M  V30 52 H -6.582504 2.794572 -4.787991 0
M  V30 53 H -5.033361 2.078804 -3.194494 0
M  V30 54 H -6.488336 2.566777 -2.150237 0
M  V30 55 H -1.611803 -1.040469 0.445062 0
M  V30 56 H 5.977481 -7.578326 1.089185 0
M  V30 57 H 7.687437 -8.172399 2.734805 0
M  V30 58 H 8.102245 -6.674634 4.727091 0
M  V30 59 H 6.743707 -4.636842 4.939199 0
M  V30 60 H 5.072722 -4.064516 3.317805 0
M  V30 END ATOM
M  V30 BEGIN BOND
M  V30 1 1 1 2
M  V30 2 1 2 3
M  V30 3 1 3 4
M  V30 4 2 4 5
M  V30 5 1 4 6
M  V30 6 1 6 7
M  V30 7 2 7 8
M  V30 8 1 8 9
M  V30 9 1 9 10
M  V30 10 1 10 11
M  V30 11 2 11 12
M  V30 12 1 12 13
M  V30 13 2 13 14
M  V30 14 1 13 15
M  V30 15 1 15 16
M  V30 16 1 16 17
M  V30 17 1 17 18
M  V30 18 1 18 19
M  V30 19 1 18 20
M  V30 20 1 20 21
M  V30 21 1 21 22
M  V30 22 1 22 23
M  V30 23 1 12 24
M  V30 24 1 24 25
M  V30 25 2 25 26
M  V30 26 1 2 27
M  V30 27 2 27 28
M  V30 28 1 28 29
M  V30 29 2 29 30
M  V30 30 1 30 31
M  V30 31 2 31 32
M  V30 32 1 26 7
M  V30 33 1 32 27
M  V30 34 2 24 9
M  V30 35 1 23 18
M  V30 36 1 1 33
M  V30 37 1 1 34
M  V30 38 1 1 35
M  V30 39 1 2 36 CFG=3
M  V30 40 1 3 37
M  V30 41 1 6 38
M  V30 42 1 8 39
M  V30 43 1 10 40
M  V30 44 1 15 41
M  V30 45 1 16 42
M  V30 46 1 16 43
M  V30 47 1 17 44
M  V30 48 1 17 45
M  V30 49 1 19 46
M  V30 50 1 20 47
M  V30 51 1 20 48
M  V30 52 1 21 49
M  V30 53 1 21 50
M  V30 54 1 22 51
M  V30 55 1 22 52
M  V30 56 1 23 53
M  V30 57 1 23 54
M  V30 58 1 25 55
M  V30 59 1 28 56
M  V30 60 1 29 57
M  V30 61 1 30 58
M  V30 62 1 31 59
M  V30 63 1 32 60
M  V30 END BOND
M  V30 END CTAB
M  END
>  <Dataset>  (273) 
ChEMBL_Kinases

>  <Ligand_Instance>  (273) 
nan

>  <PDB_ID>  (273) 
nan

>  <Standardized_SMILES>  (273) 
C[C@@H](NC(=O)Nc1cc2[nH]nc(C(=O)NCCC3(O)CCCC3)c2cn1)c1ccccc1

>  <Name>  (273) 
nan

>  <Pocket>  (273) 
nan

>  <ATP_Site>  (273) 
nan

>  <Peripheral>  (273) 
nan

>  <Num_H_Atoms_ProtBoundConf>  (273) 
nan

>  <Num_Resolved_Atoms>  (273) 
nan

>  <Num_Not_Resolved_Atoms>  (273) 
nan

$$$$
CHEMBL3654756
     RDKit          3D

  0  0  0  0  0  0  0  0  0  0999 V3000
M  V30 BEGIN CTAB
M  V30 COUNTS 62 65 0 0 0
M  V30 BEGIN ATOM
M  V30 1 C 3.840787 1.131923 6.854002 0
M  V30 2 C 2.464573 1.350205 6.251115 0 CFG=1
M  V30 3 N 2.075592 0.260298 5.373138 0
M  V30 4 C 1.802895 0.555464 4.028572 0
M  V30 5 O 1.832543 1.630116 3.413318 0
M  V30 6 N 1.425376 -0.589040 3.235924 0
M  V30 7 C 1.107999 -0.499156 1.848452 0
M  V30 8 C 2.030302 -0.630351 0.830536 0
M  V30 9 C 1.606314 -0.524485 -0.481653 0
M  V30 10 N 2.234739 -0.601200 -1.669466 0
M  V30 11 N 1.357762 -0.426911 -2.635790 0
M  V30 12 C 0.114045 -0.227058 -2.160196 0
M  V30 13 C -1.131593 0.002834 -2.891240 0
M  V30 14 O -2.185962 0.165801 -2.222579 0
M  V30 15 N -1.208456 0.050081 -4.292274 0
M  V30 16 C -2.349645 0.261916 -5.128978 0
M  V30 17 C -3.448100 -0.732871 -5.011366 0
M  V30 18 F -3.995823 -0.816514 -3.750752 0
M  V30 19 F -4.496176 -0.245145 -5.813812 0
M  V30 20 C -3.105244 -2.073593 -5.611336 0
M  V30 21 N -1.977352 -2.727028 -5.042944 0
M  V30 22 C -2.104754 -3.199401 -3.710144 0
M  V30 23 C -2.217214 -4.699139 -3.566461 0
M  V30 24 O -1.217898 -5.273465 -4.347932 0
M  V30 25 C -1.661203 -5.092958 -5.679617 0
M  V30 26 C -1.422624 -3.646650 -5.995642 0
M  V30 27 C 0.281763 -0.290557 -0.799118 0
M  V30 28 C -0.604133 -0.166461 0.254307 0
M  V30 29 N -0.190180 -0.269733 1.531987 0
M  V30 30 C 1.541773 1.513398 7.406882 0
M  V30 31 C 1.079790 0.449054 8.160671 0
M  V30 32 C 0.225712 0.691143 9.216880 0
M  V30 33 C -0.186386 1.954743 9.551463 0
M  V30 34 C 0.248865 3.046585 8.827708 0
M  V30 35 C 1.112976 2.796041 7.759887 0
M  V30 36 H 3.964429 0.067843 7.188315 0
M  V30 37 H 4.667681 1.442850 6.190791 0
M  V30 38 H 3.917682 1.766077 7.762163 0
M  V30 39 H 2.472930 2.264788 5.656357 0
M  V30 40 H 2.018667 -0.679699 5.782554 0
M  V30 41 H 1.331413 -1.597134 3.535838 0
M  V30 42 H 3.061522 -0.812747 1.085680 0
M  V30 43 H 3.265210 -0.774768 -1.742036 0
M  V30 44 H -0.256788 -0.098289 -4.749266 0
M  V30 45 H -2.828215 1.270275 -4.941239 0
M  V30 46 H -2.041437 0.303761 -6.183729 0
M  V30 47 H -2.982468 -1.938782 -6.687408 0
M  V30 48 H -3.985858 -2.761298 -5.474856 0
M  V30 49 H -2.975382 -2.768343 -3.196878 0
M  V30 50 H -1.222090 -2.897906 -3.103756 0
M  V30 51 H -2.021203 -4.950357 -2.515675 0
M  V30 52 H -3.226370 -5.072060 -3.904995 0
M  V30 53 H -2.732864 -5.349361 -5.664439 0
M  V30 54 H -1.049535 -5.679190 -6.386983 0
M  V30 55 H -0.329502 -3.510416 -6.141471 0
M  V30 56 H -1.857493 -3.430435 -7.015403 0
M  V30 57 H -1.658858 0.017737 0.097497 0
M  V30 58 H 1.400460 -0.547500 7.902572 0
M  V30 59 H -0.155054 -0.121256 9.827619 0
M  V30 60 H -0.862638 2.189891 10.381144 0
M  V30 61 H -0.045347 4.069792 9.048064 0
M  V30 62 H 1.448866 3.646401 7.199705 0
M  V30 END ATOM
M  V30 BEGIN BOND
M  V30 1 1 1 2
M  V30 2 1 2 3
M  V30 3 1 3 4
M  V30 4 2 4 5
M  V30 5 1 4 6
M  V30 6 1 6 7
M  V30 7 2 7 8
M  V30 8 1 8 9
M  V30 9 1 9 10
M  V30 10 1 10 11
M  V30 11 2 11 12
M  V30 12 1 12 13
M  V30 13 2 13 14
M  V30 14 1 13 15
M  V30 15 1 15 16
M  V30 16 1 16 17
M  V30 17 1 17 18
M  V30 18 1 17 19
M  V30 19 1 17 20
M  V30 20 1 20 21
M  V30 21 1 21 22
M  V30 22 1 22 23
M  V30 23 1 23 24
M  V30 24 1 24 25
M  V30 25 1 25 26
M  V30 26 1 12 27
M  V30 27 1 27 28
M  V30 28 2 28 29
M  V30 29 1 2 30
M  V30 30 2 30 31
M  V30 31 1 31 32
M  V30 32 2 32 33
M  V30 33 1 33 34
M  V30 34 2 34 35
M  V30 35 1 29 7
M  V30 36 1 35 30
M  V30 37 2 27 9
M  V30 38 1 26 21
M  V30 39 1 1 36
M  V30 40 1 1 37
M  V30 41 1 1 38
M  V30 42 1 2 39 CFG=3
M  V30 43 1 3 40
M  V30 44 1 6 41
M  V30 45 1 8 42
M  V30 46 1 10 43
M  V30 47 1 15 44
M  V30 48 1 16 45
M  V30 49 1 16 46
M  V30 50 1 20 47
M  V30 51 1 20 48
M  V30 52 1 22 49
M  V30 53 1 22 50
M  V30 54 1 23 51
M  V30 55 1 23 52
M  V30 56 1 25 53
M  V30 57 1 25 54
M  V30 58 1 26 55
M  V30 59 1 26 56
M  V30 60 1 28 57
M  V30 61 1 31 58
M  V30 62 1 32 59
M  V30 63 1 33 60
M  V30 64 1 34 61
M  V30 65 1 35 62
M  V30 END BOND
M  V30 END CTAB
M  END
>  <Dataset>  (274) 
ChEMBL_Kinases

>  <Ligand_Instance>  (274) 
nan

>  <PDB_ID>  (274) 
nan

>  <Standardized_SMILES>  (274) 
C[C@@H](NC(=O)Nc1cc2[nH]nc(C(=O)NCC(F)(F)CN3CCOCC3)c2cn1)c1ccccc1

>  <Name>  (274) 
nan

>  <Pocket>  (274) 
nan

>  <ATP_Site>  (274) 
nan

>  <Peripheral>  (274) 
nan

>  <Num_H_Atoms_ProtBoundConf>  (274) 
nan

>  <Num_Resolved_Atoms>  (274) 
nan

>  <Num_Not_Resolved_Atoms>  (274) 
nan

$$$$
CHEMBL3654755
     RDKit          3D

  0  0  0  0  0  0  0  0  0  0999 V3000
M  V30 BEGIN CTAB
M  V30 COUNTS 51 54 0 0 0
M  V30 BEGIN ATOM
M  V30 1 C 3.688962 -4.442411 4.417567 0
M  V30 2 C 2.204112 -4.400888 4.120592 0 CFG=1
M  V30 3 N 1.989139 -3.682349 2.880657 0
M  V30 4 C 1.269627 -2.521060 2.586255 0
M  V30 5 O 0.605981 -1.812896 3.384183 0
M  V30 6 N 1.327915 -2.144878 1.238625 0
M  V30 7 C 0.694642 -1.014109 0.663595 0
M  V30 8 C 1.526332 0.106846 0.756329 0
M  V30 9 C 1.092579 1.335065 0.239839 0
M  V30 10 N 1.652494 2.556862 0.183970 0
M  V30 11 N 0.787445 3.368330 -0.422225 0
M  V30 12 C -0.331695 2.666969 -0.757363 0
M  V30 13 C -1.491841 3.239917 -1.436145 0
M  V30 14 O -2.453473 2.481068 -1.721171 0
M  V30 15 N -1.548061 4.609147 -1.769552 0
M  V30 16 C -2.621087 5.316057 -2.438128 0
M  V30 17 C -2.917880 4.803522 -3.822943 0
M  V30 18 O -3.308157 3.479500 -3.969484 0
M  V30 19 C -3.773784 5.753998 -4.639198 0
M  V30 20 C -2.320781 5.517158 -4.987144 0
M  V30 21 C -0.169651 1.360815 -0.347327 0
M  V30 22 C -0.968516 0.254049 -0.428961 0
M  V30 23 N -0.512984 -0.904235 0.079720 0
M  V30 24 C 1.604110 -5.752214 4.135916 0
M  V30 25 C 0.917838 -6.190435 5.275327 0
M  V30 26 C 0.322485 -7.427591 5.388684 0
M  V30 27 C 0.389802 -8.312319 4.330646 0
M  V30 28 C 1.059624 -7.903152 3.200256 0
M  V30 29 C 1.651385 -6.653428 3.106805 0
M  V30 30 H 4.233853 -4.866383 3.545685 0
M  V30 31 H 3.851762 -5.010677 5.354201 0
M  V30 32 H 4.057446 -3.413996 4.616207 0
M  V30 33 H 1.679826 -3.794404 4.897691 0
M  V30 34 H 2.523029 -4.253903 2.191368 0
M  V30 35 H 1.811022 -2.579130 0.422674 0
M  V30 36 H 2.518614 0.143944 1.203766 0
M  V30 37 H 2.590990 2.846078 0.542282 0
M  V30 38 H -0.702459 5.188925 -1.497583 0
M  V30 39 H -3.566995 5.156224 -1.856917 0
M  V30 40 H -2.462549 6.390790 -2.462622 0
M  V30 41 H -4.240404 3.333109 -3.683591 0
M  V30 42 H -4.523390 5.331076 -5.357545 0
M  V30 43 H -4.079724 6.722983 -4.217587 0
M  V30 44 H -2.100643 4.947173 -5.915986 0
M  V30 45 H -1.611349 6.341059 -4.740998 0
M  V30 46 H -1.946348 0.284779 -0.886753 0
M  V30 47 H 0.806507 -5.569335 6.166129 0
M  V30 48 H -0.197328 -7.742311 6.270251 0
M  V30 49 H -0.043113 -9.300276 4.322183 0
M  V30 50 H 1.119772 -8.597499 2.353270 0
M  V30 51 H 2.162622 -6.372272 2.209209 0
M  V30 END ATOM
M  V30 BEGIN BOND
M  V30 1 1 1 2
M  V30 2 1 2 3
M  V30 3 1 3 4
M  V30 4 2 4 5
M  V30 5 1 4 6
M  V30 6 1 6 7
M  V30 7 2 7 8
M  V30 8 1 8 9
M  V30 9 1 9 10
M  V30 10 1 10 11
M  V30 11 2 11 12
M  V30 12 1 12 13
M  V30 13 2 13 14
M  V30 14 1 13 15
M  V30 15 1 15 16
M  V30 16 1 16 17
M  V30 17 1 17 18
M  V30 18 1 17 19
M  V30 19 1 19 20
M  V30 20 1 12 21
M  V30 21 1 21 22
M  V30 22 2 22 23
M  V30 23 1 2 24
M  V30 24 2 24 25
M  V30 25 1 25 26
M  V30 26 2 26 27
M  V30 27 1 27 28
M  V30 28 2 28 29
M  V30 29 1 23 7
M  V30 30 1 29 24
M  V30 31 2 21 9
M  V30 32 1 20 17
M  V30 33 1 1 30
M  V30 34 1 1 31
M  V30 35 1 1 32
M  V30 36 1 2 33 CFG=1
M  V30 37 1 3 34
M  V30 38 1 6 35
M  V30 39 1 8 36
M  V30 40 1 10 37
M  V30 41 1 15 38
M  V30 42 1 16 39
M  V30 43 1 16 40
M  V30 44 1 18 41
M  V30 45 1 19 42
M  V30 46 1 19 43
M  V30 47 1 20 44
M  V30 48 1 20 45
M  V30 49 1 22 46
M  V30 50 1 25 47
M  V30 51 1 26 48
M  V30 52 1 27 49
M  V30 53 1 28 50
M  V30 54 1 29 51
M  V30 END BOND
M  V30 END CTAB
M  END
>  <Dataset>  (275) 
ChEMBL_Kinases

>  <Ligand_Instance>  (275) 
nan

>  <PDB_ID>  (275) 
nan

>  <Standardized_SMILES>  (275) 
C[C@@H](NC(=O)Nc1cc2[nH]nc(C(=O)NCC3(O)CC3)c2cn1)c1ccccc1

>  <Name>  (275) 
nan

>  <Pocket>  (275) 
nan

>  <ATP_Site>  (275) 
nan

>  <Peripheral>  (275) 
nan

>  <Num_H_Atoms_ProtBoundConf>  (275) 
nan

>  <Num_Resolved_Atoms>  (275) 
nan

>  <Num_Not_Resolved_Atoms>  (275) 
nan

$$$$
CHEMBL3654754
     RDKit          3D

  0  0  0  0  0  0  0  0  0  0999 V3000
M  V30 BEGIN CTAB
M  V30 COUNTS 50 52 0 0 0
M  V30 BEGIN ATOM
M  V30 1 C -3.044762 -5.520436 -0.496500 0
M  V30 2 C -1.552857 -5.199691 -0.491340 0 CFG=1
M  V30 3 N -1.191395 -4.454620 0.701606 0
M  V30 4 C -0.681283 -3.144054 0.495985 0
M  V30 5 O -0.528857 -2.609059 -0.611111 0
M  V30 6 N -0.316287 -2.383281 1.639373 0
M  V30 7 C 0.209993 -1.057142 1.616150 0
M  V30 8 C 1.544066 -0.711160 1.546620 0
M  V30 9 C 1.924293 0.617901 1.531140 0
M  V30 10 N 3.132396 1.211011 1.469165 0
M  V30 11 N 2.919248 2.520764 1.485086 0
M  V30 12 C 1.589427 2.791464 1.556562 0
M  V30 13 C 0.970746 4.113597 1.594025 0
M  V30 14 O -0.282685 4.188594 1.660732 0
M  V30 15 N 1.730274 5.312128 1.557994 0
M  V30 16 C 1.270083 6.682672 1.583537 0
M  V30 17 C 0.385436 7.056381 0.424365 0
M  V30 18 O -0.773528 6.334643 0.313665 0
M  V30 19 C 0.150853 8.543579 0.346994 0
M  V30 20 F -0.662284 8.829332 -0.728043 0
M  V30 21 F -0.504103 9.026070 1.463453 0
M  V30 22 C 0.934274 1.580090 1.587035 0
M  V30 23 C -0.409008 1.229839 1.657038 0
M  V30 24 N -0.741069 -0.078157 1.670038 0
M  V30 25 C -0.795776 -6.480257 -0.504907 0
M  V30 26 C -0.713261 -7.230223 0.659922 0
M  V30 27 C -0.021533 -8.424734 0.694377 0
M  V30 28 C 0.614856 -8.922771 -0.422103 0
M  V30 29 C 0.541035 -8.187857 -1.586424 0
M  V30 30 C -0.157166 -6.982065 -1.621403 0
M  V30 31 H -3.632269 -4.628384 -0.837023 0
M  V30 32 H -3.263613 -6.348283 -1.177481 0
M  V30 33 H -3.402090 -5.729685 0.523483 0
M  V30 34 H -1.373398 -4.622938 -1.406037 0
M  V30 35 H -1.325356 -4.918235 1.626671 0
M  V30 36 H -0.415159 -2.762920 2.595355 0
M  V30 37 H 2.249851 -1.530089 1.506304 0
M  V30 38 H 4.048841 0.705695 1.418781 0
M  V30 39 H 2.767926 5.105903 1.505156 0
M  V30 40 H 0.748650 6.902266 2.562907 0
M  V30 41 H 2.171555 7.325843 1.620972 0
M  V30 42 H 0.985912 6.812571 -0.503596 0
M  V30 43 H -1.023608 6.109888 -0.616900 0
M  V30 44 H 1.122496 9.023009 0.192146 0
M  V30 45 H -1.163827 1.999758 1.699777 0
M  V30 46 H -1.162660 -6.951225 1.587211 0
M  V30 47 H 0.064088 -9.041385 1.594393 0
M  V30 48 H 1.169334 -9.858114 -0.436811 0
M  V30 49 H 1.003813 -8.479770 -2.532569 0
M  V30 50 H -0.210088 -6.407903 -2.546504 0
M  V30 END ATOM
M  V30 BEGIN BOND
M  V30 1 1 1 2
M  V30 2 1 2 3
M  V30 3 1 3 4
M  V30 4 2 4 5
M  V30 5 1 4 6
M  V30 6 1 6 7
M  V30 7 2 7 8
M  V30 8 1 8 9
M  V30 9 1 9 10
M  V30 10 1 10 11
M  V30 11 2 11 12
M  V30 12 1 12 13
M  V30 13 2 13 14
M  V30 14 1 13 15
M  V30 15 1 15 16
M  V30 16 1 16 17
M  V30 17 1 17 18
M  V30 18 1 17 19
M  V30 19 1 19 20
M  V30 20 1 19 21
M  V30 21 1 12 22
M  V30 22 1 22 23
M  V30 23 2 23 24
M  V30 24 1 2 25
M  V30 25 2 25 26
M  V30 26 1 26 27
M  V30 27 2 27 28
M  V30 28 1 28 29
M  V30 29 2 29 30
M  V30 30 1 24 7
M  V30 31 1 30 25
M  V30 32 2 22 9
M  V30 33 1 1 31
M  V30 34 1 1 32
M  V30 35 1 1 33
M  V30 36 1 2 34 CFG=3
M  V30 37 1 3 35
M  V30 38 1 6 36
M  V30 39 1 8 37
M  V30 40 1 10 38
M  V30 41 1 15 39
M  V30 42 1 16 40
M  V30 43 1 16 41
M  V30 44 1 17 42
M  V30 45 1 18 43
M  V30 46 1 19 44
M  V30 47 1 23 45
M  V30 48 1 26 46
M  V30 49 1 27 47
M  V30 50 1 28 48
M  V30 51 1 29 49
M  V30 52 1 30 50
M  V30 END BOND
M  V30 END CTAB
M  END
>  <Dataset>  (276) 
ChEMBL_Kinases

>  <Ligand_Instance>  (276) 
nan

>  <PDB_ID>  (276) 
nan

>  <Standardized_SMILES>  (276) 
C[C@@H](NC(=O)Nc1cc2[nH]nc(C(=O)NCC(O)C(F)F)c2cn1)c1ccccc1

>  <Name>  (276) 
nan

>  <Pocket>  (276) 
nan

>  <ATP_Site>  (276) 
nan

>  <Peripheral>  (276) 
nan

>  <Num_H_Atoms_ProtBoundConf>  (276) 
nan

>  <Num_Resolved_Atoms>  (276) 
nan

>  <Num_Not_Resolved_Atoms>  (276) 
nan

$$$$
CHEMBL3654753
     RDKit          3D

  0  0  0  0  0  0  0  0  0  0999 V3000
M  V30 BEGIN CTAB
M  V30 COUNTS 51 54 0 0 0
M  V30 BEGIN ATOM
M  V30 1 C 1.885286 -5.643183 3.423931 0
M  V30 2 C 0.861417 -5.193145 2.376335 0 CFG=1
M  V30 3 N 1.560100 -4.464355 1.364729 0
M  V30 4 C 1.361069 -3.055306 1.178445 0
M  V30 5 O 0.566367 -2.406526 1.897114 0
M  V30 6 N 2.075542 -2.342660 0.151329 0
M  V30 7 C 1.872579 -0.945433 -0.024787 0
M  V30 8 C 2.571342 -0.294826 -1.021447 0
M  V30 9 C 2.332388 1.059029 -1.142780 0
M  V30 10 N 2.761743 2.057006 -1.931792 0
M  V30 11 N 2.192528 3.223347 -1.618092 0
M  V30 12 C 1.346273 3.040859 -0.587930 0
M  V30 13 C 0.635287 4.200541 -0.110754 0
M  V30 14 O 0.847380 5.314589 -0.705735 0
M  V30 15 N -0.291802 4.482093 0.893234 0
M  V30 16 C -0.844155 5.782633 1.138639 0
M  V30 17 C -1.873329 6.179661 0.173687 0
M  V30 18 C -3.180624 5.822765 0.507191 0
M  V30 19 C -4.307213 6.102810 -0.268210 0
M  V30 20 C -4.004744 6.793312 -1.445182 0
M  V30 21 N -2.747060 7.141101 -1.774207 0
M  V30 22 N -1.712008 6.843800 -0.989324 0
M  V30 23 C 1.444989 1.701513 -0.307852 0
M  V30 24 C 0.769362 1.019553 0.671413 0
M  V30 25 N 1.010974 -0.299089 0.779332 0
M  V30 26 C 0.129488 -6.370532 1.878816 0
M  V30 27 C 0.700634 -7.244923 0.986075 0
M  V30 28 C -0.009331 -8.341485 0.536528 0
M  V30 29 C -1.283289 -8.588763 0.958410 0
M  V30 30 C -1.927187 -7.744348 1.863878 0
M  V30 31 C -1.159763 -6.658645 2.278678 0
M  V30 32 H 2.244000 -4.746914 3.947180 0
M  V30 33 H 2.690693 -6.162991 2.842353 0
M  V30 34 H 1.396016 -6.357977 4.142211 0
M  V30 35 H 0.177660 -4.519310 2.929383 0
M  V30 36 H 2.240698 -4.973862 0.736815 0
M  V30 37 H 2.739243 -2.876602 -0.451779 0
M  V30 38 H 3.275218 -0.764938 -1.694716 0
M  V30 39 H 3.455971 1.951426 -2.701374 0
M  V30 40 H -0.546322 3.647629 1.453816 0
M  V30 41 H 0.010198 6.519496 1.173080 0
M  V30 42 H -1.252507 5.771562 2.170523 0
M  V30 43 H -3.408864 5.280140 1.434399 0
M  V30 44 H -5.284929 5.802855 0.041267 0
M  V30 45 H -4.873066 7.025740 -2.072521 0
M  V30 46 H 0.076451 1.505836 1.327596 0
M  V30 47 H 1.704137 -7.071192 0.638526 0
M  V30 48 H 0.440672 -9.034621 -0.170891 0
M  V30 49 H -1.877724 -9.436897 0.632142 0
M  V30 50 H -2.925173 -7.883721 2.233368 0
M  V30 51 H -1.618911 -5.973763 2.983610 0
M  V30 END ATOM
M  V30 BEGIN BOND
M  V30 1 1 1 2
M  V30 2 1 2 3
M  V30 3 1 3 4
M  V30 4 2 4 5
M  V30 5 1 4 6
M  V30 6 1 6 7
M  V30 7 2 7 8
M  V30 8 1 8 9
M  V30 9 1 9 10
M  V30 10 1 10 11
M  V30 11 2 11 12
M  V30 12 1 12 13
M  V30 13 2 13 14
M  V30 14 1 13 15
M  V30 15 1 15 16
M  V30 16 1 16 17
M  V30 17 2 17 18
M  V30 18 1 18 19
M  V30 19 2 19 20
M  V30 20 1 20 21
M  V30 21 2 21 22
M  V30 22 1 12 23
M  V30 23 1 23 24
M  V30 24 2 24 25
M  V30 25 1 2 26
M  V30 26 2 26 27
M  V30 27 1 27 28
M  V30 28 2 28 29
M  V30 29 1 29 30
M  V30 30 2 30 31
M  V30 31 1 25 7
M  V30 32 1 31 26
M  V30 33 2 23 9
M  V30 34 1 22 17
M  V30 35 1 1 32
M  V30 36 1 1 33
M  V30 37 1 1 34
M  V30 38 1 2 35 CFG=1
M  V30 39 1 3 36
M  V30 40 1 6 37
M  V30 41 1 8 38
M  V30 42 1 10 39
M  V30 43 1 15 40
M  V30 44 1 16 41
M  V30 45 1 16 42
M  V30 46 1 18 43
M  V30 47 1 19 44
M  V30 48 1 20 45
M  V30 49 1 24 46
M  V30 50 1 27 47
M  V30 51 1 28 48
M  V30 52 1 29 49
M  V30 53 1 30 50
M  V30 54 1 31 51
M  V30 END BOND
M  V30 END CTAB
M  END
>  <Dataset>  (277) 
ChEMBL_Kinases

>  <Ligand_Instance>  (277) 
nan

>  <PDB_ID>  (277) 
nan

>  <Standardized_SMILES>  (277) 
C[C@@H](NC(=O)Nc1cc2[nH]nc(C(=O)NCc3cccnn3)c2cn1)c1ccccc1

>  <Name>  (277) 
nan

>  <Pocket>  (277) 
nan

>  <ATP_Site>  (277) 
nan

>  <Peripheral>  (277) 
nan

>  <Num_H_Atoms_ProtBoundConf>  (277) 
nan

>  <Num_Resolved_Atoms>  (277) 
nan

>  <Num_Not_Resolved_Atoms>  (277) 
nan

$$$$
CHEMBL3654752
     RDKit          3D

  0  0  0  0  0  0  0  0  0  0999 V3000
M  V30 BEGIN CTAB
M  V30 COUNTS 54 57 0 0 0
M  V30 BEGIN ATOM
M  V30 1 C -1.739504 -6.599625 0.842617 0
M  V30 2 C -0.756469 -5.801547 0.035651 0 CFG=1
M  V30 3 N 0.253908 -5.172717 0.863822 0
M  V30 4 C 0.399942 -3.772958 1.026401 0
M  V30 5 O -0.405446 -3.004195 0.407712 0
M  V30 6 N 1.387544 -3.159298 1.836098 0
M  V30 7 C 1.448461 -1.739384 1.931400 0
M  V30 8 C 2.416492 -1.155324 2.724539 0
M  V30 9 C 2.451844 0.221160 2.798434 0
M  V30 10 N 3.172687 1.176505 3.406605 0
M  V30 11 N 2.745887 2.408692 3.106458 0
M  V30 12 C 1.694810 2.311543 2.262840 0
M  V30 13 C 1.123316 3.561494 1.848285 0
M  V30 14 O 1.609539 4.651918 2.279289 0
M  V30 15 N 0.064923 3.911573 1.009202 0
M  V30 16 C -0.294968 5.290295 0.769997 0
M  V30 17 C -1.472159 5.396447 -0.173589 0
M  V30 18 C -2.694633 4.708909 0.362941 0
M  V30 19 C -3.711238 5.841116 0.487734 0
M  V30 20 O -3.286365 6.813481 -0.425008 0
M  V30 21 C -1.905123 6.849102 -0.181816 0
M  V30 22 C 1.533737 0.963493 2.089100 0
M  V30 23 C 0.580813 0.367525 1.307573 0
M  V30 24 N 0.566574 -0.975852 1.251722 0
M  V30 25 C -0.136551 -6.576239 -1.042872 0
M  V30 26 C 0.910201 -5.952095 -1.727260 0
M  V30 27 C 1.572897 -6.577853 -2.760546 0
M  V30 28 C 1.190539 -7.847975 -3.123070 0
M  V30 29 C 0.151829 -8.519950 -2.474903 0
M  V30 30 C -0.471401 -7.846811 -1.453382 0
M  V30 31 H -2.371410 -5.911300 1.457505 0
M  V30 32 H -2.459354 -7.049446 0.125077 0
M  V30 33 H -1.279110 -7.362862 1.498439 0
M  V30 34 H -1.347263 -4.951132 -0.408159 0
M  V30 35 H 0.939581 -5.758417 1.392771 0
M  V30 36 H 2.057615 -3.753296 2.352310 0
M  V30 37 H 3.150399 -1.704093 3.292936 0
M  V30 38 H 3.980191 0.969755 4.045261 0
M  V30 39 H -0.443740 3.124289 0.570632 0
M  V30 40 H -0.665785 5.686369 1.759309 0
M  V30 41 H 0.525925 5.914435 0.421763 0
M  V30 42 H -1.172171 5.083563 -1.188113 0
M  V30 43 H -2.555725 4.203184 1.330534 0
M  V30 44 H -3.110753 3.992761 -0.381522 0
M  V30 45 H -3.668140 6.325506 1.474021 0
M  V30 46 H -4.724065 5.503565 0.210201 0
M  V30 47 H -1.799286 7.310878 0.823939 0
M  V30 48 H -1.377911 7.453185 -0.936438 0
M  V30 49 H -0.141993 0.928695 0.748557 0
M  V30 50 H 1.274537 -4.947672 -1.502967 0
M  V30 51 H 2.388265 -6.142287 -3.323394 0
M  V30 52 H 1.673570 -8.387010 -3.925023 0
M  V30 53 H -0.117541 -9.503171 -2.782140 0
M  V30 54 H -1.266963 -8.320385 -0.932776 0
M  V30 END ATOM
M  V30 BEGIN BOND
M  V30 1 1 1 2
M  V30 2 1 2 3
M  V30 3 1 3 4
M  V30 4 2 4 5
M  V30 5 1 4 6
M  V30 6 1 6 7
M  V30 7 2 7 8
M  V30 8 1 8 9
M  V30 9 1 9 10
M  V30 10 1 10 11
M  V30 11 2 11 12
M  V30 12 1 12 13
M  V30 13 2 13 14
M  V30 14 1 13 15
M  V30 15 1 15 16
M  V30 16 1 16 17
M  V30 17 1 17 18
M  V30 18 1 18 19
M  V30 19 1 19 20
M  V30 20 1 20 21
M  V30 21 1 12 22
M  V30 22 1 22 23
M  V30 23 2 23 24
M  V30 24 1 2 25
M  V30 25 2 25 26
M  V30 26 1 26 27
M  V30 27 2 27 28
M  V30 28 1 28 29
M  V30 29 2 29 30
M  V30 30 1 24 7
M  V30 31 1 30 25
M  V30 32 2 22 9
M  V30 33 1 21 17
M  V30 34 1 1 31
M  V30 35 1 1 32
M  V30 36 1 1 33
M  V30 37 1 2 34 CFG=3
M  V30 38 1 3 35
M  V30 39 1 6 36
M  V30 40 1 8 37
M  V30 41 1 10 38
M  V30 42 1 15 39
M  V30 43 1 16 40
M  V30 44 1 16 41
M  V30 45 1 17 42
M  V30 46 1 18 43
M  V30 47 1 18 44
M  V30 48 1 19 45
M  V30 49 1 19 46
M  V30 50 1 21 47
M  V30 51 1 21 48
M  V30 52 1 23 49
M  V30 53 1 26 50
M  V30 54 1 27 51
M  V30 55 1 28 52
M  V30 56 1 29 53
M  V30 57 1 30 54
M  V30 END BOND
M  V30 END CTAB
M  END
>  <Dataset>  (278) 
ChEMBL_Kinases

>  <Ligand_Instance>  (278) 
nan

>  <PDB_ID>  (278) 
nan

>  <Standardized_SMILES>  (278) 
C[C@@H](NC(=O)Nc1cc2[nH]nc(C(=O)NCC3CCOC3)c2cn1)c1ccccc1

>  <Name>  (278) 
nan

>  <Pocket>  (278) 
nan

>  <ATP_Site>  (278) 
nan

>  <Peripheral>  (278) 
nan

>  <Num_H_Atoms_ProtBoundConf>  (278) 
nan

>  <Num_Resolved_Atoms>  (278) 
nan

>  <Num_Not_Resolved_Atoms>  (278) 
nan

$$$$
CHEMBL3654751
     RDKit          3D

  0  0  0  0  0  0  0  0  0  0999 V3000
M  V30 BEGIN CTAB
M  V30 COUNTS 51 54 0 0 0
M  V30 BEGIN ATOM
M  V30 1 C -0.714337 -4.956489 4.806650 0
M  V30 2 C -0.834473 -4.210087 3.525062 0 CFG=1
M  V30 3 N 0.428715 -3.710211 3.031087 0
M  V30 4 C 0.632291 -2.389905 2.532987 0
M  V30 5 O -0.355143 -1.643413 2.507847 0
M  V30 6 N 1.979557 -2.089675 2.116836 0
M  V30 7 C 2.053298 -0.754577 1.587659 0
M  V30 8 C 2.167599 0.358721 2.424358 0
M  V30 9 C 2.243411 1.532328 1.710855 0
M  V30 10 N 2.353106 2.776798 2.268344 0
M  V30 11 N 2.394809 3.679857 1.308846 0
M  V30 12 C 2.320182 3.131948 0.086692 0
M  V30 13 C 2.302099 3.489185 -1.321893 0
M  V30 14 O 3.178733 3.300275 -2.199265 0
M  V30 15 N 1.053403 4.144568 -1.643244 0
M  V30 16 C -0.151253 4.528890 -0.886957 0
M  V30 17 C -1.191557 4.014531 -1.848160 0
M  V30 18 O -2.343908 3.912398 -1.290822 0
M  V30 19 N -0.569993 3.784554 -3.135672 0
M  V30 20 C -1.361068 2.856574 -3.948376 0
M  V30 21 C 0.588747 4.644343 -2.948875 0
M  V30 22 C 2.227111 1.807331 0.365532 0
M  V30 23 C 2.107972 0.599398 -0.327677 0
M  V30 24 N 2.023913 -0.632158 0.217497 0
M  V30 25 C -1.461674 -5.022093 2.450774 0
M  V30 26 C -2.011000 -6.248081 2.724066 0
M  V30 27 C -2.620542 -7.046079 1.799149 0
M  V30 28 C -2.672455 -6.557447 0.505512 0
M  V30 29 C -2.143420 -5.317994 0.117251 0
M  V30 30 C -1.562794 -4.632642 1.157130 0
M  V30 31 H -0.240814 -4.265978 5.552913 0
M  V30 32 H -1.724640 -5.148305 5.204414 0
M  V30 33 H -0.115990 -5.881606 4.669145 0
M  V30 34 H -1.536700 -3.351871 3.671600 0
M  V30 35 H 1.224879 -4.406140 3.058805 0
M  V30 36 H 2.803819 -2.709942 2.145525 0
M  V30 37 H 2.190749 0.260924 3.492419 0
M  V30 38 H 2.407861 3.129181 3.245710 0
M  V30 39 H -0.263889 5.633789 -0.869440 0
M  V30 40 H -0.181404 4.042736 0.087210 0
M  V30 41 H -0.994491 2.956555 -5.012708 0
M  V30 42 H -1.171656 1.813504 -3.661489 0
M  V30 43 H -2.420900 3.103907 -3.973179 0
M  V30 44 H 1.352220 4.497845 -3.740724 0
M  V30 45 H 0.323153 5.688265 -2.818033 0
M  V30 46 H 2.084148 0.632107 -1.430370 0
M  V30 47 H -1.964930 -6.629473 3.740642 0
M  V30 48 H -3.074375 -8.028950 1.982207 0
M  V30 49 H -3.150953 -7.167460 -0.251301 0
M  V30 50 H -2.208094 -4.981383 -0.906190 0
M  V30 51 H -1.151620 -3.665258 0.844310 0
M  V30 END ATOM
M  V30 BEGIN BOND
M  V30 1 1 1 2
M  V30 2 1 2 3
M  V30 3 1 3 4
M  V30 4 2 4 5
M  V30 5 1 4 6
M  V30 6 1 6 7
M  V30 7 2 7 8
M  V30 8 1 8 9
M  V30 9 1 9 10
M  V30 10 1 10 11
M  V30 11 2 11 12
M  V30 12 1 12 13
M  V30 13 2 13 14
M  V30 14 1 13 15
M  V30 15 1 15 16
M  V30 16 1 16 17
M  V30 17 2 17 18
M  V30 18 1 17 19
M  V30 19 1 19 20
M  V30 20 1 19 21
M  V30 21 1 12 22
M  V30 22 1 22 23
M  V30 23 2 23 24
M  V30 24 1 2 25
M  V30 25 2 25 26
M  V30 26 1 26 27
M  V30 27 2 27 28
M  V30 28 1 28 29
M  V30 29 2 29 30
M  V30 30 1 24 7
M  V30 31 1 30 25
M  V30 32 2 22 9
M  V30 33 1 21 15
M  V30 34 1 1 31
M  V30 35 1 1 32
M  V30 36 1 1 33
M  V30 37 1 2 34 CFG=1
M  V30 38 1 3 35
M  V30 39 1 6 36
M  V30 40 1 8 37
M  V30 41 1 10 38
M  V30 42 1 16 39
M  V30 43 1 16 40
M  V30 44 1 20 41
M  V30 45 1 20 42
M  V30 46 1 20 43
M  V30 47 1 21 44
M  V30 48 1 21 45
M  V30 49 1 23 46
M  V30 50 1 26 47
M  V30 51 1 27 48
M  V30 52 1 28 49
M  V30 53 1 29 50
M  V30 54 1 30 51
M  V30 END BOND
M  V30 END CTAB
M  END
>  <Dataset>  (279) 
ChEMBL_Kinases

>  <Ligand_Instance>  (279) 
nan

>  <PDB_ID>  (279) 
nan

>  <Standardized_SMILES>  (279) 
C[C@@H](NC(=O)Nc1cc2[nH]nc(C(=O)N3CC(=O)N(C)C3)c2cn1)c1ccccc1

>  <Name>  (279) 
nan

>  <Pocket>  (279) 
nan

>  <ATP_Site>  (279) 
nan

>  <Peripheral>  (279) 
nan

>  <Num_H_Atoms_ProtBoundConf>  (279) 
nan

>  <Num_Resolved_Atoms>  (279) 
nan

>  <Num_Not_Resolved_Atoms>  (279) 
nan

$$$$
CHEMBL3654750
     RDKit          3D

  0  0  0  0  0  0  0  0  0  0999 V3000
M  V30 BEGIN CTAB
M  V30 COUNTS 61 64 0 0 0
M  V30 BEGIN ATOM
M  V30 1 C 3.764734 -6.635308 1.822815 0
M  V30 2 C 3.720182 -5.682957 0.685972 0 CFG=1
M  V30 3 N 3.924633 -4.301607 1.046492 0
M  V30 4 C 2.894519 -3.395506 0.652899 0
M  V30 5 O 1.892459 -3.759765 0.034453 0
M  V30 6 N 3.104183 -2.032879 1.024241 0
M  V30 7 C 2.089232 -1.109145 0.624464 0
M  V30 8 C 2.345213 -0.516454 -0.622706 0
M  V30 9 C 1.399779 0.382805 -1.064419 0
M  V30 10 N 1.240840 1.162768 -2.145152 0
M  V30 11 N 0.121506 1.885632 -2.099838 0
M  V30 12 C -0.524994 1.592459 -0.933136 0
M  V30 13 C -1.768019 2.291872 -0.708888 0
M  V30 14 O -2.102873 3.242162 -1.491373 0
M  V30 15 N -2.812838 2.196700 0.230972 0
M  V30 16 C -3.839994 3.195330 -0.040644 0
M  V30 17 C -4.910019 2.956529 1.030316 0
M  V30 18 N -4.373060 3.108754 2.336835 0
M  V30 19 C -3.867695 4.390667 2.686373 0
M  V30 20 C -5.121304 2.539691 3.407327 0
M  V30 21 C -6.179208 3.738251 0.748077 0
M  V30 22 C -6.906285 2.422875 0.569718 0
M  V30 23 C -5.627674 1.673102 0.743305 0
M  V30 24 C 0.278772 0.668942 -0.315234 0
M  V30 25 C 0.052828 0.082322 0.888988 0
M  V30 26 N 0.983226 -0.792807 1.307616 0
M  V30 27 C 4.749645 -6.033414 -0.338256 0
M  V30 28 C 6.080103 -5.703540 -0.246220 0
M  V30 29 C 7.039265 -6.021640 -1.182163 0
M  V30 30 C 6.578014 -6.723455 -2.273417 0
M  V30 31 C 5.275172 -7.114171 -2.484892 0
M  V30 32 C 4.380893 -6.749091 -1.488565 0
M  V30 33 H 4.760750 -7.089956 2.013290 0
M  V30 34 H 3.353837 -6.173633 2.766515 0
M  V30 35 H 3.081753 -7.480960 1.600152 0
M  V30 36 H 2.737932 -5.779141 0.170915 0
M  V30 37 H 4.795074 -4.058698 1.561869 0
M  V30 38 H 3.981468 -1.742752 1.561718 0
M  V30 39 H 3.218628 -0.725690 -1.228802 0
M  V30 40 H 1.906088 1.216670 -2.950779 0
M  V30 41 H -2.669462 1.443608 0.934772 0
M  V30 42 H -4.272238 3.063805 -1.051821 0
M  V30 43 H -3.409897 4.202651 0.110959 0
M  V30 44 H -4.643103 5.168626 2.877634 0
M  V30 45 H -3.063529 4.782350 2.028552 0
M  V30 46 H -3.348116 4.255272 3.683516 0
M  V30 47 H -4.912420 3.135023 4.334925 0
M  V30 48 H -6.225052 2.506615 3.251364 0
M  V30 49 H -4.819175 1.500854 3.662120 0
M  V30 50 H -6.063647 4.357742 -0.163719 0
M  V30 51 H -6.581075 4.330872 1.600659 0
M  V30 52 H -7.336754 2.387871 -0.465429 0
M  V30 53 H -7.671122 2.274447 1.348452 0
M  V30 54 H -5.598399 0.896656 1.536845 0
M  V30 55 H -5.337271 1.185824 -0.226330 0
M  V30 56 H -0.813082 0.301427 1.483281 0
M  V30 57 H 6.410921 -5.151451 0.622928 0
M  V30 58 H 8.078468 -5.740482 -1.067404 0
M  V30 59 H 7.275353 -7.021631 -3.073563 0
M  V30 60 H 4.933935 -7.656044 -3.336846 0
M  V30 61 H 3.321081 -7.009614 -1.556303 0
M  V30 END ATOM
M  V30 BEGIN BOND
M  V30 1 1 1 2
M  V30 2 1 2 3
M  V30 3 1 3 4
M  V30 4 2 4 5
M  V30 5 1 4 6
M  V30 6 1 6 7
M  V30 7 2 7 8
M  V30 8 1 8 9
M  V30 9 1 9 10
M  V30 10 1 10 11
M  V30 11 2 11 12
M  V30 12 1 12 13
M  V30 13 2 13 14
M  V30 14 1 13 15
M  V30 15 1 15 16
M  V30 16 1 16 17
M  V30 17 1 17 18
M  V30 18 1 18 19
M  V30 19 1 18 20
M  V30 20 1 17 21
M  V30 21 1 21 22
M  V30 22 1 22 23
M  V30 23 1 12 24
M  V30 24 1 24 25
M  V30 25 2 25 26
M  V30 26 1 2 27
M  V30 27 2 27 28
M  V30 28 1 28 29
M  V30 29 2 29 30
M  V30 30 1 30 31
M  V30 31 2 31 32
M  V30 32 1 26 7
M  V30 33 1 32 27
M  V30 34 2 24 9
M  V30 35 1 23 17
M  V30 36 1 1 33
M  V30 37 1 1 34
M  V30 38 1 1 35
M  V30 39 1 2 36 CFG=3
M  V30 40 1 3 37
M  V30 41 1 6 38
M  V30 42 1 8 39
M  V30 43 1 10 40
M  V30 44 1 15 41
M  V30 45 1 16 42
M  V30 46 1 16 43
M  V30 47 1 19 44
M  V30 48 1 19 45
M  V30 49 1 19 46
M  V30 50 1 20 47
M  V30 51 1 20 48
M  V30 52 1 20 49
M  V30 53 1 21 50
M  V30 54 1 21 51
M  V30 55 1 22 52
M  V30 56 1 22 53
M  V30 57 1 23 54
M  V30 58 1 23 55
M  V30 59 1 25 56
M  V30 60 1 28 57
M  V30 61 1 29 58
M  V30 62 1 30 59
M  V30 63 1 31 60
M  V30 64 1 32 61
M  V30 END BOND
M  V30 END CTAB
M  END
>  <Dataset>  (280) 
ChEMBL_Kinases

>  <Ligand_Instance>  (280) 
nan

>  <PDB_ID>  (280) 
nan

>  <Standardized_SMILES>  (280) 
C[C@@H](NC(=O)Nc1cc2[nH]nc(C(=O)NCC3(N(C)C)CCC3)c2cn1)c1ccccc1

>  <Name>  (280) 
nan

>  <Pocket>  (280) 
nan

>  <ATP_Site>  (280) 
nan

>  <Peripheral>  (280) 
nan

>  <Num_H_Atoms_ProtBoundConf>  (280) 
nan

>  <Num_Resolved_Atoms>  (280) 
nan

>  <Num_Not_Resolved_Atoms>  (280) 
nan

$$$$
CHEMBL3654749
     RDKit          3D

  0  0  0  0  0  0  0  0  0  0999 V3000
M  V30 BEGIN CTAB
M  V30 COUNTS 51 54 0 0 0
M  V30 BEGIN ATOM
M  V30 1 C 2.977309 -3.505728 5.319766 0
M  V30 2 S 4.440857 -3.833981 4.291735 0
M  V30 3 C 4.093934 -3.489611 2.563869 0
M  V30 4 C 5.241900 -3.740256 1.614709 0
M  V30 5 N 4.972404 -2.504443 0.948516 0
M  V30 6 C 5.168978 -1.882445 -0.321083 0
M  V30 7 O 5.780439 -2.743874 -1.044617 0
M  V30 8 C 4.695941 -0.523747 -0.562821 0
M  V30 9 N 5.332849 0.650418 -0.728352 0
M  V30 10 N 4.439537 1.621776 -0.924993 0
M  V30 11 C 3.208578 1.069378 -0.886506 0
M  V30 12 C 1.938187 1.597488 -1.025985 0
M  V30 13 C 0.780024 0.852928 -0.953111 0
M  V30 14 N -0.535797 1.379426 -1.084868 0
M  V30 15 C -1.694257 0.562873 -1.011971 0
M  V30 16 O -1.449554 -0.673488 -0.833370 0
M  V30 17 N -3.008831 1.091599 -1.128211 0
M  V30 18 C -4.087356 0.100993 -1.031210 0 CFG=2
M  V30 19 C -4.982061 0.233369 -2.221615 0
M  V30 20 C -4.834023 0.271821 0.249734 0
M  V30 21 C -5.248174 1.506015 0.740745 0
M  V30 22 C -5.938322 1.595379 1.940140 0
M  V30 23 C -6.247066 0.476687 2.701717 0
M  V30 24 C -5.855279 -0.767559 2.250989 0
M  V30 25 C -5.174350 -0.798681 1.056220 0
M  V30 26 N 0.941388 -0.481717 -0.728636 0
M  V30 27 C 2.163861 -1.025567 -0.587704 0
M  V30 28 C 3.321957 -0.284447 -0.659619 0
M  V30 29 C 4.344722 -2.054845 2.205318 0
M  V30 30 H 3.183233 -2.639623 5.990829 0
M  V30 31 H 2.121773 -3.205694 4.677371 0
M  V30 32 H 2.723735 -4.429751 5.866106 0
M  V30 33 H 3.094083 -3.797617 2.195215 0
M  V30 34 H 6.194839 -3.754485 2.177398 0
M  V30 35 H 5.032385 -4.664572 1.009907 0
M  V30 36 H 4.618933 2.635335 -1.081156 0
M  V30 37 H 1.804758 2.650614 -1.204319 0
M  V30 38 H -0.687160 2.402022 -1.233646 0
M  V30 39 H -3.174097 2.107860 -1.269896 0
M  V30 40 H -3.654415 -0.920391 -0.981999 0
M  V30 41 H -4.540789 -0.260060 -3.117049 0
M  V30 42 H -5.158054 1.312781 -2.504348 0
M  V30 43 H -5.969172 -0.260450 -1.999666 0
M  V30 44 H -5.007812 2.390427 0.149078 0
M  V30 45 H -6.248963 2.590459 2.286011 0
M  V30 46 H -6.780951 0.551350 3.632462 0
M  V30 47 H -6.075229 -1.664122 2.810319 0
M  V30 48 H -4.874131 -1.801029 0.721189 0
M  V30 49 H 2.276985 -2.088348 -0.410551 0
M  V30 50 H 3.495583 -1.417070 1.965039 0
M  V30 51 H 5.084372 -1.564111 2.897580 0
M  V30 END ATOM
M  V30 BEGIN BOND
M  V30 1 1 1 2
M  V30 2 1 2 3
M  V30 3 1 3 4
M  V30 4 1 4 5
M  V30 5 1 5 6
M  V30 6 2 6 7
M  V30 7 1 6 8
M  V30 8 2 8 9
M  V30 9 1 9 10
M  V30 10 1 10 11
M  V30 11 2 11 12
M  V30 12 1 12 13
M  V30 13 1 13 14
M  V30 14 1 14 15
M  V30 15 2 15 16
M  V30 16 1 15 17
M  V30 17 1 17 18
M  V30 18 1 18 19
M  V30 19 1 18 20
M  V30 20 2 20 21
M  V30 21 1 21 22
M  V30 22 2 22 23
M  V30 23 1 23 24
M  V30 24 2 24 25
M  V30 25 2 13 26
M  V30 26 1 26 27
M  V30 27 2 27 28
M  V30 28 1 5 29
M  V30 29 1 29 3
M  V30 30 1 28 8
M  V30 31 1 28 11
M  V30 32 1 25 20
M  V30 33 1 1 30
M  V30 34 1 1 31
M  V30 35 1 1 32
M  V30 36 1 3 33
M  V30 37 1 4 34
M  V30 38 1 4 35
M  V30 39 1 10 36
M  V30 40 1 12 37
M  V30 41 1 14 38
M  V30 42 1 17 39
M  V30 43 1 18 40 CFG=1
M  V30 44 1 19 41
M  V30 45 1 19 42
M  V30 46 1 19 43
M  V30 47 1 21 44
M  V30 48 1 22 45
M  V30 49 1 23 46
M  V30 50 1 24 47
M  V30 51 1 25 48
M  V30 52 1 27 49
M  V30 53 1 29 50
M  V30 54 1 29 51
M  V30 END BOND
M  V30 END CTAB
M  END
>  <Dataset>  (281) 
ChEMBL_Kinases

>  <Ligand_Instance>  (281) 
nan

>  <PDB_ID>  (281) 
nan

>  <Standardized_SMILES>  (281) 
CSC1CN(C(=O)c2n[nH]c3cc(NC(=O)N[C@H](C)c4ccccc4)ncc23)C1

>  <Name>  (281) 
nan

>  <Pocket>  (281) 
nan

>  <ATP_Site>  (281) 
nan

>  <Peripheral>  (281) 
nan

>  <Num_H_Atoms_ProtBoundConf>  (281) 
nan

>  <Num_Resolved_Atoms>  (281) 
nan

>  <Num_Not_Resolved_Atoms>  (281) 
nan

$$$$
CHEMBL3654748
     RDKit          3D

  0  0  0  0  0  0  0  0  0  0999 V3000
M  V30 BEGIN CTAB
M  V30 COUNTS 55 59 0 0 0
M  V30 BEGIN ATOM
M  V30 1 C 3.625623 0.139985 6.474208 0
M  V30 2 C 2.291029 0.078828 5.768628 0 CFG=1
M  V30 3 N 2.398762 -0.915525 4.721727 0
M  V30 4 C 2.231180 -0.576780 3.368609 0
M  V30 5 O 1.979286 0.588841 2.951030 0
M  V30 6 N 2.327493 -1.521586 2.299421 0
M  V30 7 C 2.160119 -1.190504 0.918786 0
M  V30 8 C 3.265431 -0.809483 0.161154 0
M  V30 9 C 3.090873 -0.492813 -1.167000 0
M  V30 10 N 3.825213 -0.096935 -2.216720 0
M  V30 11 N 3.092734 0.070172 -3.325137 0
M  V30 12 C 1.804485 -0.218756 -3.039512 0
M  V30 13 C 0.891262 -0.084602 -4.137157 0
M  V30 14 O 1.312794 0.285629 -5.273753 0
M  V30 15 N -0.485303 -0.280188 -4.278914 0
M  V30 16 C -1.165707 -0.064397 -5.537419 0
M  V30 17 C -2.616170 -0.340543 -5.423377 0
M  V30 18 N -3.672907 0.428476 -5.104718 0
M  V30 19 C -4.789272 -0.337315 -5.150340 0
M  V30 20 C -6.132733 -0.070083 -4.917417 0
M  V30 21 C -7.055271 -1.106189 -5.053005 0
M  V30 22 N -6.669316 -2.366559 -5.406717 0
M  V30 23 C -5.361897 -2.636150 -5.635696 0
M  V30 24 C -4.400560 -1.629218 -5.512044 0
M  V30 25 N -3.061289 -1.604526 -5.673799 0
M  V30 26 C 1.829604 -0.560181 -1.713871 0
M  V30 27 C 0.740031 -0.935253 -0.969099 0
M  V30 28 N 0.940715 -1.238496 0.324222 0
M  V30 29 C 1.212589 -0.221588 6.741146 0
M  V30 30 C 1.098460 -1.504329 7.211261 0
M  V30 31 C 0.100400 -1.828543 8.126361 0
M  V30 32 C -0.781567 -0.849129 8.563528 0
M  V30 33 C -0.667731 0.442771 8.090958 0
M  V30 34 C 0.335482 0.752377 7.175956 0
M  V30 35 H 4.336017 0.723408 5.859694 0
M  V30 36 H 4.013742 -0.900345 6.512094 0
M  V30 37 H 3.532612 0.538441 7.501010 0
M  V30 38 H 2.068515 1.073804 5.326450 0
M  V30 39 H 2.603694 -1.899579 4.969637 0
M  V30 40 H 2.531092 -2.517440 2.508074 0
M  V30 41 H 4.248687 -0.748548 0.554915 0
M  V30 42 H 4.863380 0.061460 -2.161273 0
M  V30 43 H -0.989782 -0.588884 -3.430807 0
M  V30 44 H -1.078224 1.036701 -5.741504 0
M  V30 45 H -0.681071 -0.616776 -6.342685 0
M  V30 46 H -6.443589 0.913622 -4.640584 0
M  V30 47 H -8.111159 -0.958267 -4.885080 0
M  V30 48 H -5.061126 -3.649920 -5.919041 0
M  V30 49 H -2.552538 -2.473263 -5.948091 0
M  V30 50 H -0.245807 -0.993758 -1.374581 0
M  V30 51 H 1.765240 -2.298556 6.896410 0
M  V30 52 H -0.055300 -2.832511 8.548744 0
M  V30 53 H -1.569501 -1.106662 9.286425 0
M  V30 54 H -1.349207 1.207825 8.426252 0
M  V30 55 H 0.425564 1.780903 6.799885 0
M  V30 END ATOM
M  V30 BEGIN BOND
M  V30 1 1 1 2
M  V30 2 1 2 3
M  V30 3 1 3 4
M  V30 4 2 4 5
M  V30 5 1 4 6
M  V30 6 1 6 7
M  V30 7 2 7 8
M  V30 8 1 8 9
M  V30 9 1 9 10
M  V30 10 1 10 11
M  V30 11 2 11 12
M  V30 12 1 12 13
M  V30 13 2 13 14
M  V30 14 1 13 15
M  V30 15 1 15 16
M  V30 16 1 16 17
M  V30 17 2 17 18
M  V30 18 1 18 19
M  V30 19 2 19 20
M  V30 20 1 20 21
M  V30 21 2 21 22
M  V30 22 1 22 23
M  V30 23 2 23 24
M  V30 24 1 24 25
M  V30 25 1 12 26
M  V30 26 1 26 27
M  V30 27 2 27 28
M  V30 28 1 2 29
M  V30 29 2 29 30
M  V30 30 1 30 31
M  V30 31 2 31 32
M  V30 32 1 32 33
M  V30 33 2 33 34
M  V30 34 1 28 7
M  V30 35 1 34 29
M  V30 36 2 26 9
M  V30 37 1 25 17
M  V30 38 1 24 19
M  V30 39 1 1 35
M  V30 40 1 1 36
M  V30 41 1 1 37
M  V30 42 1 2 38 CFG=3
M  V30 43 1 3 39
M  V30 44 1 6 40
M  V30 45 1 8 41
M  V30 46 1 10 42
M  V30 47 1 15 43
M  V30 48 1 16 44
M  V30 49 1 16 45
M  V30 50 1 20 46
M  V30 51 1 21 47
M  V30 52 1 23 48
M  V30 53 1 25 49
M  V30 54 1 27 50
M  V30 55 1 30 51
M  V30 56 1 31 52
M  V30 57 1 32 53
M  V30 58 1 33 54
M  V30 59 1 34 55
M  V30 END BOND
M  V30 END CTAB
M  END
>  <Dataset>  (282) 
ChEMBL_Kinases

>  <Ligand_Instance>  (282) 
nan

>  <PDB_ID>  (282) 
nan

>  <Standardized_SMILES>  (282) 
C[C@@H](NC(=O)Nc1cc2[nH]nc(C(=O)NCc3nc4ccncc4[nH]3)c2cn1)c1ccccc1

>  <Name>  (282) 
nan

>  <Pocket>  (282) 
nan

>  <ATP_Site>  (282) 
nan

>  <Peripheral>  (282) 
nan

>  <Num_H_Atoms_ProtBoundConf>  (282) 
nan

>  <Num_Resolved_Atoms>  (282) 
nan

>  <Num_Not_Resolved_Atoms>  (282) 
nan

$$$$
CHEMBL3654747
     RDKit          3D

  0  0  0  0  0  0  0  0  0  0999 V3000
M  V30 BEGIN CTAB
M  V30 COUNTS 50 52 0 0 0
M  V30 BEGIN ATOM
M  V30 1 C 5.680083 -5.540962 -1.220469 0
M  V30 2 O 6.247975 -4.282682 -1.203389 0
M  V30 3 C 5.953488 -3.626590 -2.388068 0
M  V30 4 C 6.573847 -2.260586 -2.361987 0
M  V30 5 N 6.027100 -1.528573 -1.237101 0
M  V30 6 C 4.639584 -1.262266 -1.120942 0
M  V30 7 O 3.787468 -1.630909 -1.966834 0
M  V30 8 C 4.216252 -0.510397 0.070320 0
M  V30 9 N 4.953901 -0.023547 1.091329 0
M  V30 10 N 4.174669 0.592934 1.961458 0
M  V30 11 C 2.879095 0.545135 1.559415 0
M  V30 12 C 1.678197 1.006916 2.058897 0
M  V30 13 C 0.479234 0.792714 1.393925 0
M  V30 14 N -0.758361 1.269425 1.910059 0
M  V30 15 C -1.973200 1.041824 1.218017 0
M  V30 16 O -2.021173 0.418665 0.132283 0
M  V30 17 N -3.227592 1.498099 1.694741 0
M  V30 18 C -4.464333 1.274948 1.004924 0 CFG=2
M  V30 19 C -5.075963 2.619137 0.672919 0
M  V30 20 C -5.471767 0.526947 1.802996 0
M  V30 21 C -6.188889 -0.519023 1.208529 0
M  V30 22 C -7.136545 -1.222910 1.958677 0
M  V30 23 C -7.346954 -0.867605 3.283450 0
M  V30 24 C -6.638885 0.163692 3.867086 0
M  V30 25 C -5.690199 0.872025 3.124456 0
M  V30 26 N 0.527847 0.114976 0.237967 0
M  V30 27 C 1.696957 -0.338630 -0.255270 0
M  V30 28 C 2.911717 -0.152023 0.366039 0
M  V30 29 H 5.929484 -6.044587 -0.264025 0
M  V30 30 H 6.088210 -6.113562 -2.083690 0
M  V30 31 H 4.586063 -5.429711 -1.364581 0
M  V30 32 H 6.408053 -4.228107 -3.212641 0
M  V30 33 H 4.869353 -3.598359 -2.574768 0
M  V30 34 H 7.673512 -2.287733 -2.338164 0
M  V30 35 H 6.210508 -1.714422 -3.269412 0
M  V30 36 H 6.699609 -1.193563 -0.494771 0
M  V30 37 H 4.462980 1.070034 2.854789 0
M  V30 38 H 1.681197 1.546116 2.988853 0
M  V30 39 H -0.751332 1.792155 2.812631 0
M  V30 40 H -3.274135 2.033774 2.606410 0
M  V30 41 H -4.217157 0.700858 0.076768 0
M  V30 42 H -5.863544 2.914457 1.421308 0
M  V30 43 H -5.605169 2.551615 -0.302190 0
M  V30 44 H -4.335021 3.446712 0.720038 0
M  V30 45 H -5.965955 -0.733457 0.171699 0
M  V30 46 H -7.665756 -2.030231 1.439778 0
M  V30 47 H -8.100657 -1.472749 3.777461 0
M  V30 48 H -6.864473 0.376001 4.905677 0
M  V30 49 H -5.154620 1.678567 3.625860 0
M  V30 50 H 1.656819 -0.875983 -1.191191 0
M  V30 END ATOM
M  V30 BEGIN BOND
M  V30 1 1 1 2
M  V30 2 1 2 3
M  V30 3 1 3 4
M  V30 4 1 4 5
M  V30 5 1 5 6
M  V30 6 2 6 7
M  V30 7 1 6 8
M  V30 8 2 8 9
M  V30 9 1 9 10
M  V30 10 1 10 11
M  V30 11 2 11 12
M  V30 12 1 12 13
M  V30 13 1 13 14
M  V30 14 1 14 15
M  V30 15 2 15 16
M  V30 16 1 15 17
M  V30 17 1 17 18
M  V30 18 1 18 19
M  V30 19 1 18 20
M  V30 20 2 20 21
M  V30 21 1 21 22
M  V30 22 2 22 23
M  V30 23 1 23 24
M  V30 24 2 24 25
M  V30 25 2 13 26
M  V30 26 1 26 27
M  V30 27 2 27 28
M  V30 28 1 28 8
M  V30 29 1 28 11
M  V30 30 1 25 20
M  V30 31 1 1 29
M  V30 32 1 1 30
M  V30 33 1 1 31
M  V30 34 1 3 32
M  V30 35 1 3 33
M  V30 36 1 4 34
M  V30 37 1 4 35
M  V30 38 1 5 36
M  V30 39 1 10 37
M  V30 40 1 12 38
M  V30 41 1 14 39
M  V30 42 1 17 40
M  V30 43 1 18 41 CFG=3
M  V30 44 1 19 42
M  V30 45 1 19 43
M  V30 46 1 19 44
M  V30 47 1 21 45
M  V30 48 1 22 46
M  V30 49 1 23 47
M  V30 50 1 24 48
M  V30 51 1 25 49
M  V30 52 1 27 50
M  V30 END BOND
M  V30 END CTAB
M  END
>  <Dataset>  (283) 
ChEMBL_Kinases

>  <Ligand_Instance>  (283) 
nan

>  <PDB_ID>  (283) 
nan

>  <Standardized_SMILES>  (283) 
COCCNC(=O)c1n[nH]c2cc(NC(=O)N[C@H](C)c3ccccc3)ncc12

>  <Name>  (283) 
nan

>  <Pocket>  (283) 
nan

>  <ATP_Site>  (283) 
nan

>  <Peripheral>  (283) 
nan

>  <Num_H_Atoms_ProtBoundConf>  (283) 
nan

>  <Num_Resolved_Atoms>  (283) 
nan

>  <Num_Not_Resolved_Atoms>  (283) 
nan

$$$$
CHEMBL3654746
     RDKit          3D

  0  0  0  0  0  0  0  0  0  0999 V3000
M  V30 BEGIN CTAB
M  V30 COUNTS 48 51 0 0 0
M  V30 BEGIN ATOM
M  V30 1 C -2.176929 -2.631056 -5.698762 0
M  V30 2 C -1.569842 -3.644186 -4.826148 0
M  V30 3 C -1.235411 -3.324778 -3.527745 0
M  V30 4 C -0.667784 -4.215167 -2.655812 0
M  V30 5 C -0.263744 -4.053541 -1.289176 0
M  V30 6 N -0.506240 -4.918537 -0.287715 0
M  V30 7 N 0.019681 -4.445387 0.856040 0
M  V30 8 C 0.595537 -3.267718 0.545473 0
M  V30 9 C 1.265240 -2.386851 1.342696 0
M  V30 10 F 1.514767 -2.493066 2.658601 0
M  V30 11 C 1.728828 -1.267292 0.691041 0
M  V30 12 N 2.469645 -0.223129 1.407903 0
M  V30 13 C 1.294173 0.580281 1.794422 0
M  V30 14 O 0.045588 0.409152 1.570247 0
M  V30 15 N 1.136648 1.801638 2.538932 0
M  V30 16 C -0.065138 2.555118 2.926349 0 CFG=2
M  V30 17 C -0.064512 3.832526 2.120713 0
M  V30 18 C -0.033517 2.905715 4.352645 0
M  V30 19 C 1.128228 3.496448 4.843963 0
M  V30 20 C 1.250717 3.853646 6.193681 0
M  V30 21 C 0.153170 3.575160 6.966516 0
M  V30 22 C -1.039767 2.999514 6.597511 0
M  V30 23 C -1.083221 2.676091 5.250675 0
M  V30 24 N 1.567862 -0.996876 -0.640631 0
M  V30 25 C 0.909831 -1.855862 -1.439606 0
M  V30 26 C 0.445621 -2.975287 -0.789451 0
M  V30 27 C -0.438808 -5.503664 -3.169154 0
M  V30 28 C -0.783320 -5.811030 -4.486583 0
M  V30 29 N -1.332867 -4.872898 -5.258746 0
M  V30 30 H -1.636327 -1.676925 -5.518669 0
M  V30 31 H -1.993555 -2.884575 -6.774448 0
M  V30 32 H -3.267021 -2.508701 -5.593066 0
M  V30 33 H -1.391655 -2.344040 -3.082429 0
M  V30 34 H 0.009115 -4.868020 1.812580 0
M  V30 35 H 3.058071 0.425740 1.871131 0
M  V30 36 H 2.052790 2.230654 2.866223 0
M  V30 37 H -0.989415 1.994346 2.653555 0
M  V30 38 H 0.890614 3.931772 1.568381 0
M  V30 39 H -0.147773 4.724067 2.812147 0
M  V30 40 H -0.877375 3.852076 1.365101 0
M  V30 41 H 2.011869 3.727973 4.242209 0
M  V30 42 H 2.137939 4.313061 6.606726 0
M  V30 43 H 0.219335 3.841709 8.036795 0
M  V30 44 H -1.886382 2.786196 7.201468 0
M  V30 45 H -1.928236 2.215481 4.749215 0
M  V30 46 H 0.811183 -1.607448 -2.462291 0
M  V30 47 H 0.008722 -6.312219 -2.568515 0
M  V30 48 H -0.602309 -6.807321 -4.879264 0
M  V30 END ATOM
M  V30 BEGIN BOND
M  V30 1 1 1 2
M  V30 2 2 2 3
M  V30 3 1 3 4
M  V30 4 1 4 5
M  V30 5 2 5 6
M  V30 6 1 6 7
M  V30 7 1 7 8
M  V30 8 2 8 9
M  V30 9 1 9 10
M  V30 10 1 9 11
M  V30 11 1 11 12
M  V30 12 1 12 13
M  V30 13 2 13 14
M  V30 14 1 13 15
M  V30 15 1 15 16
M  V30 16 1 16 17
M  V30 17 1 16 18
M  V30 18 2 18 19
M  V30 19 1 19 20
M  V30 20 2 20 21
M  V30 21 1 21 22
M  V30 22 2 22 23
M  V30 23 2 11 24
M  V30 24 1 24 25
M  V30 25 2 25 26
M  V30 26 2 4 27
M  V30 27 1 27 28
M  V30 28 2 28 29
M  V30 29 1 29 2
M  V30 30 1 26 5
M  V30 31 1 26 8
M  V30 32 1 23 18
M  V30 33 1 1 30
M  V30 34 1 1 31
M  V30 35 1 1 32
M  V30 36 1 3 33
M  V30 37 1 7 34
M  V30 38 1 12 35
M  V30 39 1 15 36
M  V30 40 1 16 37 CFG=1
M  V30 41 1 17 38
M  V30 42 1 17 39
M  V30 43 1 17 40
M  V30 44 1 19 41
M  V30 45 1 20 42
M  V30 46 1 21 43
M  V30 47 1 22 44
M  V30 48 1 23 45
M  V30 49 1 25 46
M  V30 50 1 27 47
M  V30 51 1 28 48
M  V30 END BOND
M  V30 END CTAB
M  END
>  <Dataset>  (284) 
ChEMBL_Kinases

>  <Ligand_Instance>  (284) 
nan

>  <PDB_ID>  (284) 
nan

>  <Standardized_SMILES>  (284) 
Cc1cc(-c2n[nH]c3c(F)c(NC(=O)N[C@H](C)c4ccccc4)ncc23)ccn1

>  <Name>  (284) 
nan

>  <Pocket>  (284) 
nan

>  <ATP_Site>  (284) 
nan

>  <Peripheral>  (284) 
nan

>  <Num_H_Atoms_ProtBoundConf>  (284) 
nan

>  <Num_Resolved_Atoms>  (284) 
nan

>  <Num_Not_Resolved_Atoms>  (284) 
nan

$$$$
CHEMBL3654728
     RDKit          3D

  0  0  0  0  0  0  0  0  0  0999 V3000
M  V30 BEGIN CTAB
M  V30 COUNTS 56 60 0 0 0
M  V30 BEGIN ATOM
M  V30 1 C 8.996812 -3.470315 -0.411337 0
M  V30 2 C 7.578092 -3.206962 -0.789672 0
M  V30 3 C 6.568215 -3.148686 0.173095 0
M  V30 4 C 5.251086 -2.900873 -0.209825 0
M  V30 5 C 4.176700 -2.833502 0.763231 0
M  V30 6 N 3.968637 -3.701088 1.795284 0
M  V30 7 N 2.894496 -3.329765 2.476901 0
M  V30 8 C 2.350378 -2.221310 1.940508 0
M  V30 9 C 1.254596 -1.437320 2.247687 0
M  V30 10 C 0.969356 -0.329107 1.461505 0
M  V30 11 N -0.176202 0.426642 1.843793 0
M  V30 12 C -1.441612 0.096355 1.300271 0
M  V30 13 O -1.481501 -0.859312 0.499617 0
M  V30 14 N -2.658467 0.746455 1.579720 0
M  V30 15 C -4.011898 0.524076 1.094745 0
M  V30 16 C -4.057942 0.962067 -0.322039 0
M  V30 17 C -3.716661 0.210211 -1.423212 0
M  V30 18 C -3.748527 0.654393 -2.722780 0
M  V30 19 C -4.141584 1.929554 -2.998004 0
M  V30 20 Cl -4.191458 2.521101 -4.643733 0
M  V30 21 C -4.502850 2.758145 -1.963717 0
M  V30 22 C -4.451019 2.258833 -0.681698 0
M  V30 23 C -4.886478 1.548204 1.841496 0
M  V30 24 C -5.308646 1.001609 3.181857 0
M  V30 25 O -6.114708 -0.135018 3.045250 0
M  V30 26 C -6.014159 -0.699013 1.765040 0
M  V30 27 C -4.560289 -0.823006 1.362749 0
M  V30 28 N 1.756003 -0.015014 0.400923 0
M  V30 29 C 2.838033 -0.786868 0.095398 0
M  V30 30 C 3.157205 -1.896223 0.849907 0
M  V30 31 C 5.015115 -2.722031 -1.560706 0
M  V30 32 C 6.017184 -2.779140 -2.522856 0
M  V30 33 N 7.260510 -3.022178 -2.074488 0
M  V30 34 H 9.039782 -3.559334 0.702850 0
M  V30 35 H 9.591342 -2.567974 -0.675906 0
M  V30 36 H 9.377173 -4.395210 -0.867272 0
M  V30 37 H 6.809304 -3.296854 1.223743 0
M  V30 38 H 2.519290 -3.831975 3.320343 0
M  V30 39 H 0.662166 -1.720552 3.091154 0
M  V30 40 H -0.125944 1.223415 2.514963 0
M  V30 41 H -2.471048 1.532526 2.282028 0
M  V30 42 H -3.414115 -0.799427 -1.306314 0
M  V30 43 H -3.470926 0.027372 -3.553513 0
M  V30 44 H -4.813741 3.766482 -2.183859 0
M  V30 45 H -4.749570 2.976969 0.073174 0
M  V30 46 H -4.346778 2.481208 1.999319 0
M  V30 47 H -5.808573 1.726932 1.258912 0
M  V30 48 H -4.471313 0.851086 3.874200 0
M  V30 49 H -5.959842 1.772299 3.634054 0
M  V30 50 H -6.579563 -0.141814 0.997390 0
M  V30 51 H -6.480735 -1.712188 1.851828 0
M  V30 52 H -4.033050 -1.255273 2.241422 0
M  V30 53 H -4.496008 -1.528511 0.511311 0
M  V30 54 H 3.449762 -0.517282 -0.753629 0
M  V30 55 H 4.022956 -2.526004 -1.938327 0
M  V30 56 H 5.784521 -2.632668 -3.569936 0
M  V30 END ATOM
M  V30 BEGIN BOND
M  V30 1 1 1 2
M  V30 2 2 2 3
M  V30 3 1 3 4
M  V30 4 1 4 5
M  V30 5 2 5 6
M  V30 6 1 6 7
M  V30 7 1 7 8
M  V30 8 2 8 9
M  V30 9 1 9 10
M  V30 10 1 10 11
M  V30 11 1 11 12
M  V30 12 2 12 13
M  V30 13 1 12 14
M  V30 14 1 14 15
M  V30 15 1 15 16
M  V30 16 2 16 17
M  V30 17 1 17 18
M  V30 18 2 18 19
M  V30 19 1 19 20
M  V30 20 1 19 21
M  V30 21 2 21 22
M  V30 22 1 15 23
M  V30 23 1 23 24
M  V30 24 1 24 25
M  V30 25 1 25 26
M  V30 26 1 26 27
M  V30 27 2 10 28
M  V30 28 1 28 29
M  V30 29 2 29 30
M  V30 30 2 4 31
M  V30 31 1 31 32
M  V30 32 2 32 33
M  V30 33 1 33 2
M  V30 34 1 30 5
M  V30 35 1 30 8
M  V30 36 1 27 15
M  V30 37 1 22 16
M  V30 38 1 1 34
M  V30 39 1 1 35
M  V30 40 1 1 36
M  V30 41 1 3 37
M  V30 42 1 7 38
M  V30 43 1 9 39
M  V30 44 1 11 40
M  V30 45 1 14 41
M  V30 46 1 17 42
M  V30 47 1 18 43
M  V30 48 1 21 44
M  V30 49 1 22 45
M  V30 50 1 23 46
M  V30 51 1 23 47
M  V30 52 1 24 48
M  V30 53 1 24 49
M  V30 54 1 26 50
M  V30 55 1 26 51
M  V30 56 1 27 52
M  V30 57 1 27 53
M  V30 58 1 29 54
M  V30 59 1 31 55
M  V30 60 1 32 56
M  V30 END BOND
M  V30 END CTAB
M  END
>  <Dataset>  (285) 
ChEMBL_Kinases

>  <Ligand_Instance>  (285) 
nan

>  <PDB_ID>  (285) 
nan

>  <Standardized_SMILES>  (285) 
Cc1cc(-c2n[nH]c3cc(NC(=O)NC4(c5ccc(Cl)cc5)CCOCC4)ncc23)ccn1

>  <Name>  (285) 
nan

>  <Pocket>  (285) 
nan

>  <ATP_Site>  (285) 
nan

>  <Peripheral>  (285) 
nan

>  <Num_H_Atoms_ProtBoundConf>  (285) 
nan

>  <Num_Resolved_Atoms>  (285) 
nan

>  <Num_Not_Resolved_Atoms>  (285) 
nan

$$$$
CHEMBL3654729
     RDKit          3D

  0  0  0  0  0  0  0  0  0  0999 V3000
M  V30 BEGIN CTAB
M  V30 COUNTS 49 53 0 0 0
M  V30 BEGIN ATOM
M  V30 1 C 0.643175 -2.384248 -7.117323 0
M  V30 2 C 0.644430 -3.426472 -6.062969 0
M  V30 3 C 0.295755 -3.088232 -4.787427 0
M  V30 4 C 0.294909 -4.051197 -3.799401 0
M  V30 5 C -0.044477 -3.884739 -2.393616 0
M  V30 6 N -0.834097 -4.726644 -1.681604 0
M  V30 7 N -0.931552 -4.276587 -0.440177 0
M  V30 8 C -0.225967 -3.141365 -0.279343 0
M  V30 9 C 0.046208 -2.247046 0.732235 0
M  V30 10 C 0.848718 -1.135203 0.541108 0
M  V30 11 N 0.981562 -0.365372 1.729768 0
M  V30 12 C 0.166556 0.700463 2.173526 0
M  V30 13 O -0.751739 0.915517 1.354026 0
M  V30 14 N 0.416260 1.373950 3.376730 0
M  V30 15 C -0.495287 2.444980 3.714699 0
M  V30 16 C 0.313211 3.725416 3.764179 0
M  V30 17 C 0.896234 3.655008 5.167788 0
M  V30 18 C -0.214607 3.031828 5.926748 0
M  V30 19 C -0.582168 3.020875 7.272972 0
M  V30 20 C -1.712259 2.326147 7.703167 0
M  V30 21 C -2.504402 1.628208 6.821440 0
M  V30 22 C -2.166266 1.617248 5.464957 0
M  V30 23 C -1.040556 2.317324 5.081478 0
M  V30 24 N 1.370626 -0.937257 -0.675980 0
M  V30 25 C 1.137635 -1.778709 -1.699757 0
M  V30 26 C 0.336464 -2.896851 -1.525924 0
M  V30 27 C 0.659078 -5.337982 -4.177784 0
M  V30 28 C 1.005007 -5.642522 -5.475329 0
M  V30 29 N 0.994269 -4.670161 -6.419052 0
M  V30 30 H 0.508927 -1.392146 -6.674095 0
M  V30 31 H 1.641887 -2.444157 -7.612683 0
M  V30 32 H -0.135091 -2.557860 -7.871797 0
M  V30 33 H 0.009541 -2.106498 -4.460358 0
M  V30 34 H -1.478606 -4.720822 0.342947 0
M  V30 35 H -0.446948 -2.534525 1.672663 0
M  V30 36 H 1.786250 -0.615388 2.365277 0
M  V30 37 H 1.213546 1.125942 4.004421 0
M  V30 38 H -1.260663 2.560159 2.947428 0
M  V30 39 H -0.313193 4.635735 3.705118 0
M  V30 40 H 1.119058 3.696778 3.011846 0
M  V30 41 H 1.836047 3.078152 5.180958 0
M  V30 42 H 1.077037 4.665333 5.562380 0
M  V30 43 H 0.009604 3.555300 8.004909 0
M  V30 44 H -1.941995 2.360718 8.777225 0
M  V30 45 H -3.374798 1.095665 7.167536 0
M  V30 46 H -2.775758 1.074803 4.754559 0
M  V30 47 H 1.591095 -1.556115 -2.651932 0
M  V30 48 H 0.685812 -6.154251 -3.467527 0
M  V30 49 H 1.294423 -6.640652 -5.802411 0
M  V30 END ATOM
M  V30 BEGIN BOND
M  V30 1 1 1 2
M  V30 2 2 2 3
M  V30 3 1 3 4
M  V30 4 1 4 5
M  V30 5 2 5 6
M  V30 6 1 6 7
M  V30 7 1 7 8
M  V30 8 2 8 9
M  V30 9 1 9 10
M  V30 10 1 10 11
M  V30 11 1 11 12
M  V30 12 2 12 13
M  V30 13 1 12 14
M  V30 14 1 14 15
M  V30 15 1 15 16
M  V30 16 1 16 17
M  V30 17 1 17 18
M  V30 18 2 18 19
M  V30 19 1 19 20
M  V30 20 2 20 21
M  V30 21 1 21 22
M  V30 22 2 22 23
M  V30 23 2 10 24
M  V30 24 1 24 25
M  V30 25 2 25 26
M  V30 26 2 4 27
M  V30 27 1 27 28
M  V30 28 2 28 29
M  V30 29 1 29 2
M  V30 30 1 26 5
M  V30 31 1 26 8
M  V30 32 1 23 15
M  V30 33 1 23 18
M  V30 34 1 1 30
M  V30 35 1 1 31
M  V30 36 1 1 32
M  V30 37 1 3 33
M  V30 38 1 7 34
M  V30 39 1 9 35
M  V30 40 1 11 36
M  V30 41 1 14 37
M  V30 42 1 15 38
M  V30 43 1 16 39
M  V30 44 1 16 40
M  V30 45 1 17 41
M  V30 46 1 17 42
M  V30 47 1 19 43
M  V30 48 1 20 44
M  V30 49 1 21 45
M  V30 50 1 22 46
M  V30 51 1 25 47
M  V30 52 1 27 48
M  V30 53 1 28 49
M  V30 END BOND
M  V30 END CTAB
M  END
>  <Dataset>  (286) 
ChEMBL_Kinases

>  <Ligand_Instance>  (286) 
nan

>  <PDB_ID>  (286) 
nan

>  <Standardized_SMILES>  (286) 
Cc1cc(-c2n[nH]c3cc(NC(=O)NC4CCc5ccccc54)ncc23)ccn1

>  <Name>  (286) 
nan

>  <Pocket>  (286) 
nan

>  <ATP_Site>  (286) 
nan

>  <Peripheral>  (286) 
nan

>  <Num_H_Atoms_ProtBoundConf>  (286) 
nan

>  <Num_Resolved_Atoms>  (286) 
nan

>  <Num_Not_Resolved_Atoms>  (286) 
nan

$$$$
CHEMBL3654730
     RDKit          3D

  0  0  0  0  0  0  0  0  0  0999 V3000
M  V30 BEGIN CTAB
M  V30 COUNTS 48 51 0 0 0
M  V30 BEGIN ATOM
M  V30 1 C -0.456614 -5.902965 -5.393517 0
M  V30 2 C -1.282100 -5.665035 -4.183185 0
M  V30 3 C -0.689369 -5.046860 -3.104114 0
M  V30 4 C -1.466718 -4.829052 -1.976336 0
M  V30 5 C -1.033955 -4.199368 -0.744693 0
M  V30 6 N -1.343847 -4.724883 0.477674 0
M  V30 7 N -0.828065 -3.957464 1.422109 0
M  V30 8 C -0.171147 -2.917430 0.897861 0
M  V30 9 C 0.551737 -1.809944 1.339466 0
M  V30 10 Br 0.700752 -1.647673 3.236779 0
M  V30 11 C 1.109761 -0.910498 0.455213 0
M  V30 12 N 1.810215 0.151746 1.090960 0
M  V30 13 C 0.967512 1.279139 1.377240 0
M  V30 14 O -0.259133 1.351409 1.108243 0
M  V30 15 N 1.484276 2.438394 2.011255 0
M  V30 16 C 0.619721 3.571893 2.297584 0 CFG=2
M  V30 17 C 1.174504 4.752762 1.529509 0
M  V30 18 C 0.675456 3.850132 3.778102 0
M  V30 19 C 1.900615 3.864394 4.411059 0
M  V30 20 C 1.884253 4.122077 5.764221 0
M  V30 21 C 0.739223 4.360035 6.499017 0
M  V30 22 C -0.488156 4.343196 5.850984 0
M  V30 23 C -0.505630 4.086281 4.486858 0
M  V30 24 N 0.957046 -1.098941 -0.887883 0
M  V30 25 C 0.255657 -2.172814 -1.347233 0
M  V30 26 C -0.298253 -3.065858 -0.471916 0
M  V30 27 C -2.768998 -5.256721 -2.046528 0
M  V30 28 C -3.332921 -5.875855 -3.149789 0
M  V30 29 N -2.556163 -6.084221 -4.253852 0
M  V30 30 H -0.932289 -5.532571 -6.317659 0
M  V30 31 H 0.545883 -5.445270 -5.298285 0
M  V30 32 H -0.258254 -6.999314 -5.555137 0
M  V30 33 H 0.333605 -4.714978 -3.057313 0
M  V30 34 H -0.874196 -4.066757 2.461715 0
M  V30 35 H 2.803052 0.268754 1.385346 0
M  V30 36 H 2.486591 2.512353 2.287323 0
M  V30 37 H -0.412578 3.406134 1.965673 0
M  V30 38 H 2.256356 4.608974 1.393600 0
M  V30 39 H 0.932243 5.718628 2.027270 0
M  V30 40 H 0.739985 4.725841 0.507379 0
M  V30 41 H 2.842008 3.688862 3.910241 0
M  V30 42 H 2.774224 4.161819 6.379444 0
M  V30 43 H 0.708621 4.563327 7.560591 0
M  V30 44 H -1.464804 4.509214 6.282343 0
M  V30 45 H -1.411171 4.052050 3.891540 0
M  V30 46 H 0.152436 -2.294996 -2.416236 0
M  V30 47 H -3.461876 -5.134721 -1.218744 0
M  V30 48 H -4.365467 -6.200437 -3.169453 0
M  V30 END ATOM
M  V30 BEGIN BOND
M  V30 1 1 1 2
M  V30 2 2 2 3
M  V30 3 1 3 4
M  V30 4 1 4 5
M  V30 5 2 5 6
M  V30 6 1 6 7
M  V30 7 1 7 8
M  V30 8 2 8 9
M  V30 9 1 9 10
M  V30 10 1 9 11
M  V30 11 1 11 12
M  V30 12 1 12 13
M  V30 13 2 13 14
M  V30 14 1 13 15
M  V30 15 1 15 16
M  V30 16 1 16 17
M  V30 17 1 16 18
M  V30 18 2 18 19
M  V30 19 1 19 20
M  V30 20 2 20 21
M  V30 21 1 21 22
M  V30 22 2 22 23
M  V30 23 2 11 24
M  V30 24 1 24 25
M  V30 25 2 25 26
M  V30 26 2 4 27
M  V30 27 1 27 28
M  V30 28 2 28 29
M  V30 29 1 29 2
M  V30 30 1 26 5
M  V30 31 1 26 8
M  V30 32 1 23 18
M  V30 33 1 1 30
M  V30 34 1 1 31
M  V30 35 1 1 32
M  V30 36 1 3 33
M  V30 37 1 7 34
M  V30 38 1 12 35
M  V30 39 1 15 36
M  V30 40 1 16 37 CFG=3
M  V30 41 1 17 38
M  V30 42 1 17 39
M  V30 43 1 17 40
M  V30 44 1 19 41
M  V30 45 1 20 42
M  V30 46 1 21 43
M  V30 47 1 22 44
M  V30 48 1 23 45
M  V30 49 1 25 46
M  V30 50 1 27 47
M  V30 51 1 28 48
M  V30 END BOND
M  V30 END CTAB
M  END
>  <Dataset>  (287) 
ChEMBL_Kinases

>  <Ligand_Instance>  (287) 
nan

>  <PDB_ID>  (287) 
nan

>  <Standardized_SMILES>  (287) 
Cc1cc(-c2n[nH]c3c(Br)c(NC(=O)N[C@H](C)c4ccccc4)ncc23)ccn1

>  <Name>  (287) 
nan

>  <Pocket>  (287) 
nan

>  <ATP_Site>  (287) 
nan

>  <Peripheral>  (287) 
nan

>  <Num_H_Atoms_ProtBoundConf>  (287) 
nan

>  <Num_Resolved_Atoms>  (287) 
nan

>  <Num_Not_Resolved_Atoms>  (287) 
nan

$$$$
CHEMBL3654731
     RDKit          3D

  0  0  0  0  0  0  0  0  0  0999 V3000
M  V30 BEGIN CTAB
M  V30 COUNTS 46 49 0 0 0
M  V30 BEGIN ATOM
M  V30 1 C -3.076461 -3.757082 -2.190138 0
M  V30 2 C -1.907214 -3.679939 -1.240084 0 CFG=1
M  V30 3 N -2.159671 -2.781698 -0.123643 0
M  V30 4 C -1.212157 -1.746240 0.062592 0
M  V30 5 O -0.197964 -1.568480 -0.662239 0
M  V30 6 N -1.398254 -0.823570 1.144319 0
M  V30 7 C -0.463664 0.242062 1.372004 0
M  V30 8 C -0.870957 1.369813 0.651099 0
M  V30 9 C -0.124639 2.547777 0.705229 0
M  V30 10 N -0.221036 3.780571 0.157461 0
M  V30 11 N 0.789296 4.521999 0.563902 0
M  V30 12 C 1.600997 3.837648 1.390243 0
M  V30 13 C 2.821946 4.291215 2.054154 0
M  V30 14 C 3.156181 4.074199 3.376580 0
M  V30 15 N 4.324353 4.552294 3.864208 0
M  V30 16 C 5.175809 5.248403 3.057361 0
M  V30 17 N 6.418135 5.755356 3.580917 0
M  V30 18 N 4.837684 5.454171 1.765597 0
M  V30 19 C 3.689586 5.003288 1.222838 0
M  V30 20 C 1.011620 2.591591 1.470810 0
M  V30 21 C 1.338921 1.434725 2.147982 0
M  V30 22 N 0.640529 0.284574 2.116006 0
M  V30 23 C -1.739324 -5.050320 -0.681696 0
M  V30 24 C -0.722561 -5.929212 -1.071391 0
M  V30 25 C -0.621662 -7.190955 -0.513106 0
M  V30 26 C -1.534908 -7.609083 0.450651 0
M  V30 27 F -1.405653 -8.863354 0.981814 0
M  V30 28 C -2.534661 -6.739999 0.831338 0
M  V30 29 Cl -3.634572 -7.363238 2.052896 0
M  V30 30 C -2.636196 -5.491295 0.280203 0
M  V30 31 H -3.016551 -2.985379 -2.988690 0
M  V30 32 H -3.025858 -4.742713 -2.697703 0
M  V30 33 H -4.006391 -3.720287 -1.615631 0
M  V30 34 H -0.996492 -3.417886 -1.789238 0
M  V30 35 H -2.992653 -2.937051 0.462388 0
M  V30 36 H -2.232297 -0.925684 1.784168 0
M  V30 37 H -1.740839 1.478319 0.009531 0
M  V30 38 H -0.994855 4.072901 -0.489712 0
M  V30 39 H 2.438172 3.518436 3.952503 0
M  V30 40 H 6.861525 6.567431 3.074442 0
M  V30 41 H 6.821972 5.298318 4.434214 0
M  V30 42 H 3.510794 5.220705 0.176662 0
M  V30 43 H 2.236421 1.404470 2.778020 0
M  V30 44 H -0.053130 -5.526725 -1.826635 0
M  V30 45 H 0.191928 -7.833055 -0.856015 0
M  V30 46 H -3.456951 -4.913485 0.661686 0
M  V30 END ATOM
M  V30 BEGIN BOND
M  V30 1 1 1 2
M  V30 2 1 2 3
M  V30 3 1 3 4
M  V30 4 2 4 5
M  V30 5 1 4 6
M  V30 6 1 6 7
M  V30 7 2 7 8
M  V30 8 1 8 9
M  V30 9 1 9 10
M  V30 10 1 10 11
M  V30 11 2 11 12
M  V30 12 1 12 13
M  V30 13 2 13 14
M  V30 14 1 14 15
M  V30 15 2 15 16
M  V30 16 1 16 17
M  V30 17 1 16 18
M  V30 18 2 18 19
M  V30 19 1 12 20
M  V30 20 1 20 21
M  V30 21 2 21 22
M  V30 22 1 2 23
M  V30 23 2 23 24
M  V30 24 1 24 25
M  V30 25 2 25 26
M  V30 26 1 26 27
M  V30 27 1 26 28
M  V30 28 1 28 29
M  V30 29 2 28 30
M  V30 30 1 22 7
M  V30 31 1 30 23
M  V30 32 2 20 9
M  V30 33 1 19 13
M  V30 34 1 1 31
M  V30 35 1 1 32
M  V30 36 1 1 33
M  V30 37 1 2 34 CFG=3
M  V30 38 1 3 35
M  V30 39 1 6 36
M  V30 40 1 8 37
M  V30 41 1 10 38
M  V30 42 1 14 39
M  V30 43 1 17 40
M  V30 44 1 17 41
M  V30 45 1 19 42
M  V30 46 1 21 43
M  V30 47 1 24 44
M  V30 48 1 25 45
M  V30 49 1 30 46
M  V30 END BOND
M  V30 END CTAB
M  END
>  <Dataset>  (288) 
ChEMBL_Kinases

>  <Ligand_Instance>  (288) 
nan

>  <PDB_ID>  (288) 
nan

>  <Standardized_SMILES>  (288) 
C[C@@H](NC(=O)Nc1cc2[nH]nc(-c3cnc(N)nc3)c2cn1)c1ccc(F)c(Cl)c1

>  <Name>  (288) 
nan

>  <Pocket>  (288) 
nan

>  <ATP_Site>  (288) 
nan

>  <Peripheral>  (288) 
nan

>  <Num_H_Atoms_ProtBoundConf>  (288) 
nan

>  <Num_Resolved_Atoms>  (288) 
nan

>  <Num_Not_Resolved_Atoms>  (288) 
nan

$$$$
CHEMBL3654732
     RDKit          3D

  0  0  0  0  0  0  0  0  0  0999 V3000
M  V30 BEGIN CTAB
M  V30 COUNTS 45 48 0 0 0
M  V30 BEGIN ATOM
M  V30 1 C -1.571993 -3.425685 4.674247 0
M  V30 2 C -1.579384 -3.208952 3.199405 0 CFG=1
M  V30 3 N -0.263914 -2.859161 2.652135 0
M  V30 4 C 0.061754 -1.649289 1.976968 0
M  V30 5 O -0.922731 -0.879771 1.891041 0
M  V30 6 N 1.393254 -1.464665 1.504443 0
M  V30 7 C 1.612632 -0.220265 0.843270 0
M  V30 8 C 1.380511 -0.254339 -0.533355 0
M  V30 9 C 1.570930 0.912661 -1.247960 0
M  V30 10 N 1.436452 1.213536 -2.564665 0
M  V30 11 N 1.742441 2.485132 -2.735834 0
M  V30 12 C 2.085760 3.063787 -1.554787 0
M  V30 13 C 2.481853 4.456061 -1.365729 0
M  V30 14 C 2.012155 5.272630 -0.343481 0
M  V30 15 C 2.436231 6.589693 -0.228674 0
M  V30 16 N 3.320974 7.070460 -1.134355 0
M  V30 17 C 3.779819 6.266542 -2.136125 0
M  V30 18 F 4.675045 6.800668 -3.028460 0
M  V30 19 C 3.395719 4.958572 -2.298232 0
M  V30 20 C 1.978608 2.068662 -0.604644 0
M  V30 21 C 2.200780 2.063089 0.774798 0
M  V30 22 N 2.012886 0.920789 1.464993 0
M  V30 23 C -2.140568 -4.365589 2.427446 0
M  V30 24 C -1.397334 -5.497194 2.083013 0
M  V30 25 C -1.938723 -6.530760 1.380523 0
M  V30 26 C -3.254465 -6.489573 0.983398 0
M  V30 27 F -3.902812 -7.466832 0.275814 0
M  V30 28 C -4.057266 -5.387082 1.293953 0
M  V30 29 Cl -5.747940 -5.240032 0.831981 0
M  V30 30 C -3.454784 -4.370379 2.007212 0
M  V30 31 H -2.349245 -4.207631 4.919670 0
M  V30 32 H -0.596780 -3.688644 5.100288 0
M  V30 33 H -1.949202 -2.517026 5.229574 0
M  V30 34 H -2.246073 -2.340589 2.974565 0
M  V30 35 H 0.413356 -3.644722 2.834328 0
M  V30 36 H 2.095677 -2.196520 1.653588 0
M  V30 37 H 1.063725 -1.144908 -1.045677 0
M  V30 38 H 1.135777 0.540701 -3.330152 0
M  V30 39 H 1.305054 4.829135 0.350417 0
M  V30 40 H 2.039100 7.198200 0.594264 0
M  V30 41 H 3.814477 4.396083 -3.125998 0
M  V30 42 H 2.519345 2.966081 1.277970 0
M  V30 43 H -0.350605 -5.512637 2.407829 0
M  V30 44 H -1.371374 -7.401543 1.114025 0
M  V30 45 H -4.040290 -3.481700 2.277118 0
M  V30 END ATOM
M  V30 BEGIN BOND
M  V30 1 1 1 2
M  V30 2 1 2 3
M  V30 3 1 3 4
M  V30 4 2 4 5
M  V30 5 1 4 6
M  V30 6 1 6 7
M  V30 7 2 7 8
M  V30 8 1 8 9
M  V30 9 1 9 10
M  V30 10 1 10 11
M  V30 11 2 11 12
M  V30 12 1 12 13
M  V30 13 2 13 14
M  V30 14 1 14 15
M  V30 15 2 15 16
M  V30 16 1 16 17
M  V30 17 1 17 18
M  V30 18 2 17 19
M  V30 19 1 12 20
M  V30 20 1 20 21
M  V30 21 2 21 22
M  V30 22 1 2 23
M  V30 23 2 23 24
M  V30 24 1 24 25
M  V30 25 2 25 26
M  V30 26 1 26 27
M  V30 27 1 26 28
M  V30 28 1 28 29
M  V30 29 2 28 30
M  V30 30 1 22 7
M  V30 31 1 30 23
M  V30 32 2 20 9
M  V30 33 1 19 13
M  V30 34 1 1 31
M  V30 35 1 1 32
M  V30 36 1 1 33
M  V30 37 1 2 34 CFG=1
M  V30 38 1 3 35
M  V30 39 1 6 36
M  V30 40 1 8 37
M  V30 41 1 10 38
M  V30 42 1 14 39
M  V30 43 1 15 40
M  V30 44 1 19 41
M  V30 45 1 21 42
M  V30 46 1 24 43
M  V30 47 1 25 44
M  V30 48 1 30 45
M  V30 END BOND
M  V30 END CTAB
M  END
>  <Dataset>  (289) 
ChEMBL_Kinases

>  <Ligand_Instance>  (289) 
nan

>  <PDB_ID>  (289) 
nan

>  <Standardized_SMILES>  (289) 
C[C@@H](NC(=O)Nc1cc2[nH]nc(-c3ccnc(F)c3)c2cn1)c1ccc(F)c(Cl)c1

>  <Name>  (289) 
nan

>  <Pocket>  (289) 
nan

>  <ATP_Site>  (289) 
nan

>  <Peripheral>  (289) 
nan

>  <Num_H_Atoms_ProtBoundConf>  (289) 
nan

>  <Num_Resolved_Atoms>  (289) 
nan

>  <Num_Not_Resolved_Atoms>  (289) 
nan

$$$$
CHEMBL3654733
     RDKit          3D

  0  0  0  0  0  0  0  0  0  0999 V3000
M  V30 BEGIN CTAB
M  V30 COUNTS 43 46 0 0 0
M  V30 BEGIN ATOM
M  V30 1 C 1.439029 -5.064066 0.022941 0
M  V30 2 C 0.379799 -4.104791 0.471365 0 CFG=1
M  V30 3 N 0.284655 -2.940398 -0.389298 0
M  V30 4 C 0.581938 -1.583895 -0.058257 0
M  V30 5 O 0.966480 -1.460869 1.140268 0
M  V30 6 N 0.438420 -0.553370 -1.013764 0
M  V30 7 C 0.797248 0.725696 -0.445188 0
M  V30 8 C 2.127889 1.140490 -0.543225 0
M  V30 9 C 2.514122 2.356820 -0.012648 0
M  V30 10 N 3.617837 3.117153 0.112908 0
M  V30 11 N 3.329841 4.251350 0.755921 0
M  V30 12 C 2.003659 4.276185 1.081300 0
M  V30 13 C 1.535456 5.469480 1.822361 0
M  V30 14 C 1.931490 5.492238 3.300535 0
M  V30 15 C 0.484411 5.287988 2.913929 0
M  V30 16 C 1.512060 3.085803 0.592644 0
M  V30 17 C 0.193831 2.703758 0.703975 0
M  V30 18 N -0.140472 1.506486 0.171090 0
M  V30 19 C -0.928199 -4.709402 0.727259 0
M  V30 20 C -1.154228 -6.054116 0.668936 0
M  V30 21 C -2.434012 -6.469642 0.933975 0
M  V30 22 C -3.466947 -5.611915 1.246549 0
M  V30 23 F -4.693679 -6.130162 1.490731 0
M  V30 24 C -3.213898 -4.253023 1.299713 0
M  V30 25 Cl -4.578042 -3.245329 1.702076 0
M  V30 26 C -1.925988 -3.775235 1.037931 0
M  V30 27 H 1.169721 -5.740878 -0.791023 0
M  V30 28 H 1.819242 -5.679101 0.864284 0
M  V30 29 H 2.312659 -4.480754 -0.333495 0
M  V30 30 H 0.737536 -3.720370 1.462063 0
M  V30 31 H -0.047754 -3.144750 -1.379026 0
M  V30 32 H 0.111020 -0.777978 -1.977573 0
M  V30 33 H 2.902738 0.561083 -1.019087 0
M  V30 34 H 4.534295 2.795646 -0.266061 0
M  V30 35 H 1.525132 6.449160 1.293611 0
M  V30 36 H 2.526035 4.626336 3.688462 0
M  V30 37 H 2.166560 6.459933 3.762750 0
M  V30 38 H -0.207132 6.152031 3.095105 0
M  V30 39 H 0.118091 4.280934 3.175490 0
M  V30 40 H -0.577513 3.292149 1.175158 0
M  V30 41 H -0.313864 -6.656185 0.422562 0
M  V30 42 H -2.625946 -7.545107 0.889942 0
M  V30 43 H -1.778555 -2.708767 1.091602 0
M  V30 END ATOM
M  V30 BEGIN BOND
M  V30 1 1 1 2
M  V30 2 1 2 3
M  V30 3 1 3 4
M  V30 4 2 4 5
M  V30 5 1 4 6
M  V30 6 1 6 7
M  V30 7 2 7 8
M  V30 8 1 8 9
M  V30 9 1 9 10
M  V30 10 1 10 11
M  V30 11 2 11 12
M  V30 12 1 12 13
M  V30 13 1 13 14
M  V30 14 1 14 15
M  V30 15 1 12 16
M  V30 16 1 16 17
M  V30 17 2 17 18
M  V30 18 1 2 19
M  V30 19 2 19 20
M  V30 20 1 20 21
M  V30 21 2 21 22
M  V30 22 1 22 23
M  V30 23 1 22 24
M  V30 24 1 24 25
M  V30 25 2 24 26
M  V30 26 1 18 7
M  V30 27 1 26 19
M  V30 28 2 16 9
M  V30 29 1 15 13
M  V30 30 1 1 27
M  V30 31 1 1 28
M  V30 32 1 1 29
M  V30 33 1 2 30 CFG=1
M  V30 34 1 3 31
M  V30 35 1 6 32
M  V30 36 1 8 33
M  V30 37 1 10 34
M  V30 38 1 13 35
M  V30 39 1 14 36
M  V30 40 1 14 37
M  V30 41 1 15 38
M  V30 42 1 15 39
M  V30 43 1 17 40
M  V30 44 1 20 41
M  V30 45 1 21 42
M  V30 46 1 26 43
M  V30 END BOND
M  V30 END CTAB
M  END
>  <Dataset>  (290) 
ChEMBL_Kinases

>  <Ligand_Instance>  (290) 
nan

>  <PDB_ID>  (290) 
nan

>  <Standardized_SMILES>  (290) 
C[C@@H](NC(=O)Nc1cc2[nH]nc(C3CC3)c2cn1)c1ccc(F)c(Cl)c1

>  <Name>  (290) 
nan

>  <Pocket>  (290) 
nan

>  <ATP_Site>  (290) 
nan

>  <Peripheral>  (290) 
nan

>  <Num_H_Atoms_ProtBoundConf>  (290) 
nan

>  <Num_Resolved_Atoms>  (290) 
nan

>  <Num_Not_Resolved_Atoms>  (290) 
nan

$$$$
CHEMBL3654734
     RDKit          3D

  0  0  0  0  0  0  0  0  0  0999 V3000
M  V30 BEGIN CTAB
M  V30 COUNTS 47 50 0 0 0
M  V30 BEGIN ATOM
M  V30 1 C -3.537175 -4.093385 -0.305735 0
M  V30 2 C -2.381206 -3.959101 0.658589 0 CFG=1
M  V30 3 N -2.425697 -2.716400 1.371550 0
M  V30 4 C -1.408669 -1.741374 1.258136 0
M  V30 5 O -0.455743 -2.066284 0.469666 0
M  V30 6 N -1.404575 -0.478701 1.951055 0
M  V30 7 C -0.276665 0.345455 1.683597 0
M  V30 8 C 0.923022 0.370642 2.362003 0
M  V30 9 C 1.900697 1.250295 1.943279 0
M  V30 10 N 3.138350 1.462689 2.432345 0
M  V30 11 N 3.730103 2.409241 1.710570 0
M  V30 12 C 2.905563 2.847827 0.728731 0
M  V30 13 C 3.131016 3.865942 -0.289799 0
M  V30 14 C 3.714300 5.092018 0.050779 0
M  V30 15 C 3.923991 6.058659 -0.938357 0
M  V30 16 C 3.573533 5.845144 -2.248846 0
M  V30 17 C 3.769067 6.806176 -3.297258 0
M  V30 18 N 3.924335 7.571238 -4.145250 0
M  V30 19 C 2.999591 4.641197 -2.589242 0
M  V30 20 C 2.786441 3.677219 -1.623114 0
M  V30 21 C 1.748214 2.112487 0.878385 0
M  V30 22 C 0.526075 2.043018 0.236830 0
M  V30 23 N -0.443233 1.193148 0.626800 0
M  V30 24 C -2.421188 -5.061873 1.653746 0
M  V30 25 C -3.191440 -6.209962 1.594938 0
M  V30 26 C -3.123533 -7.152906 2.599258 0
M  V30 27 C -2.296487 -6.995953 3.691807 0
M  V30 28 F -2.206797 -7.895955 4.687750 0
M  V30 29 C -1.509912 -5.864568 3.791131 0
M  V30 30 C -1.597552 -4.941989 2.776645 0
M  V30 31 H -4.451623 -4.421159 0.220998 0
M  V30 32 H -3.742771 -3.073741 -0.732942 0
M  V30 33 H -3.331318 -4.840419 -1.098544 0
M  V30 34 H -1.448608 -3.995543 0.042100 0
M  V30 35 H -3.226901 -2.517917 1.993319 0
M  V30 36 H -2.228997 -0.306067 2.573456 0
M  V30 37 H 1.002303 -0.311056 3.179655 0
M  V30 38 H 3.597936 0.979272 3.249842 0
M  V30 39 H 4.014089 5.316027 1.084322 0
M  V30 40 H 4.375465 7.025212 -0.711801 0
M  V30 41 H 2.707690 4.435646 -3.622181 0
M  V30 42 H 2.338798 2.762228 -1.939394 0
M  V30 43 H 0.347549 2.691495 -0.601698 0
M  V30 44 H -3.822700 -6.294895 0.727658 0
M  V30 45 H -3.736705 -8.046074 2.532554 0
M  V30 46 H -0.851780 -5.710809 4.632922 0
M  V30 47 H -0.966764 -4.050416 2.871339 0
M  V30 END ATOM
M  V30 BEGIN BOND
M  V30 1 1 1 2
M  V30 2 1 2 3
M  V30 3 1 3 4
M  V30 4 2 4 5
M  V30 5 1 4 6
M  V30 6 1 6 7
M  V30 7 2 7 8
M  V30 8 1 8 9
M  V30 9 1 9 10
M  V30 10 1 10 11
M  V30 11 2 11 12
M  V30 12 1 12 13
M  V30 13 2 13 14
M  V30 14 1 14 15
M  V30 15 2 15 16
M  V30 16 1 16 17
M  V30 17 3 17 18
M  V30 18 1 16 19
M  V30 19 2 19 20
M  V30 20 1 12 21
M  V30 21 1 21 22
M  V30 22 2 22 23
M  V30 23 1 2 24
M  V30 24 2 24 25
M  V30 25 1 25 26
M  V30 26 2 26 27
M  V30 27 1 27 28
M  V30 28 1 27 29
M  V30 29 2 29 30
M  V30 30 1 23 7
M  V30 31 1 30 24
M  V30 32 2 21 9
M  V30 33 1 20 13
M  V30 34 1 1 31
M  V30 35 1 1 32
M  V30 36 1 1 33
M  V30 37 1 2 34 CFG=3
M  V30 38 1 3 35
M  V30 39 1 6 36
M  V30 40 1 8 37
M  V30 41 1 10 38
M  V30 42 1 14 39
M  V30 43 1 15 40
M  V30 44 1 19 41
M  V30 45 1 20 42
M  V30 46 1 22 43
M  V30 47 1 25 44
M  V30 48 1 26 45
M  V30 49 1 29 46
M  V30 50 1 30 47
M  V30 END BOND
M  V30 END CTAB
M  END
>  <Dataset>  (291) 
ChEMBL_Kinases

>  <Ligand_Instance>  (291) 
nan

>  <PDB_ID>  (291) 
nan

>  <Standardized_SMILES>  (291) 
C[C@@H](NC(=O)Nc1cc2[nH]nc(-c3ccc(C#N)cc3)c2cn1)c1ccc(F)cc1

>  <Name>  (291) 
nan

>  <Pocket>  (291) 
nan

>  <ATP_Site>  (291) 
nan

>  <Peripheral>  (291) 
nan

>  <Num_H_Atoms_ProtBoundConf>  (291) 
nan

>  <Num_Resolved_Atoms>  (291) 
nan

>  <Num_Not_Resolved_Atoms>  (291) 
nan

$$$$
CHEMBL3654735
     RDKit          3D

  0  0  0  0  0  0  0  0  0  0999 V3000
M  V30 BEGIN CTAB
M  V30 COUNTS 47 50 0 0 0
M  V30 BEGIN ATOM
M  V30 1 C -3.200550 -4.352838 -0.277424 0
M  V30 2 C -2.083515 -4.095274 0.711419 0 CFG=1
M  V30 3 N -2.247920 -2.821500 1.353987 0
M  V30 4 C -1.296132 -1.801308 1.198275 0
M  V30 5 O -0.310356 -2.103853 0.459895 0
M  V30 6 N -1.448211 -0.525191 1.834210 0
M  V30 7 C -0.377356 0.387702 1.559262 0
M  V30 8 C 0.754634 0.479179 2.331932 0
M  V30 9 C 1.657988 1.422503 1.889115 0
M  V30 10 N 2.870077 1.775693 2.405759 0
M  V30 11 N 3.426655 2.732285 1.675977 0
M  V30 12 C 2.568680 3.007374 0.671083 0
M  V30 13 C 2.845316 4.017669 -0.342688 0
M  V30 14 C 3.339098 5.224970 0.109058 0
M  V30 15 C 3.620921 6.223693 -0.808055 0
M  V30 16 C 3.401337 5.987747 -2.150788 0
M  V30 17 C 3.707811 7.057610 -3.086515 0
M  V30 18 N 3.952598 7.933504 -3.826019 0
M  V30 19 C 2.903519 4.782975 -2.653264 0
M  V30 20 C 2.644740 3.833602 -1.688538 0
M  V30 21 C 1.462364 2.210358 0.777303 0
M  V30 22 C 0.305118 2.071742 0.042291 0
M  V30 23 N -0.595411 1.146163 0.465714 0
M  V30 24 C -2.121445 -5.194250 1.711839 0
M  V30 25 C -2.842695 -6.355474 1.527858 0
M  V30 26 C -2.866202 -7.366985 2.469428 0
M  V30 27 C -2.133062 -7.205616 3.648123 0
M  V30 28 C -1.393789 -6.047784 3.868241 0
M  V30 29 Cl -0.505271 -5.908750 5.351756 0
M  V30 30 C -1.402831 -5.066732 2.897011 0
M  V30 31 H -4.138829 -4.603194 0.259973 0
M  V30 32 H -3.394559 -3.388469 -0.787435 0
M  V30 33 H -2.978727 -5.179690 -0.955838 0
M  V30 34 H -1.139596 -4.142186 0.107537 0
M  V30 35 H -3.091228 -2.705966 1.924816 0
M  V30 36 H -2.316758 -0.402555 2.423670 0
M  V30 37 H 0.869156 -0.145801 3.182139 0
M  V30 38 H 3.291198 1.340457 3.264432 0
M  V30 39 H 3.516913 5.427737 1.152004 0
M  V30 40 H 4.006607 7.170913 -0.471216 0
M  V30 41 H 2.742915 4.626876 -3.697831 0
M  V30 42 H 2.250727 2.854750 -1.990229 0
M  V30 43 H 0.156306 2.692565 -0.829634 0
M  V30 44 H -3.418886 -6.487662 0.606725 0
M  V30 45 H -3.447369 -8.256439 2.276184 0
M  V30 46 H -2.150124 -8.007918 4.397831 0
M  V30 47 H -0.803768 -4.186904 3.132222 0
M  V30 END ATOM
M  V30 BEGIN BOND
M  V30 1 1 1 2
M  V30 2 1 2 3
M  V30 3 1 3 4
M  V30 4 2 4 5
M  V30 5 1 4 6
M  V30 6 1 6 7
M  V30 7 2 7 8
M  V30 8 1 8 9
M  V30 9 1 9 10
M  V30 10 1 10 11
M  V30 11 2 11 12
M  V30 12 1 12 13
M  V30 13 2 13 14
M  V30 14 1 14 15
M  V30 15 2 15 16
M  V30 16 1 16 17
M  V30 17 3 17 18
M  V30 18 1 16 19
M  V30 19 2 19 20
M  V30 20 1 12 21
M  V30 21 1 21 22
M  V30 22 2 22 23
M  V30 23 1 2 24
M  V30 24 2 24 25
M  V30 25 1 25 26
M  V30 26 2 26 27
M  V30 27 1 27 28
M  V30 28 1 28 29
M  V30 29 2 28 30
M  V30 30 1 23 7
M  V30 31 1 30 24
M  V30 32 2 21 9
M  V30 33 1 20 13
M  V30 34 1 1 31
M  V30 35 1 1 32
M  V30 36 1 1 33
M  V30 37 1 2 34 CFG=3
M  V30 38 1 3 35
M  V30 39 1 6 36
M  V30 40 1 8 37
M  V30 41 1 10 38
M  V30 42 1 14 39
M  V30 43 1 15 40
M  V30 44 1 19 41
M  V30 45 1 20 42
M  V30 46 1 22 43
M  V30 47 1 25 44
M  V30 48 1 26 45
M  V30 49 1 27 46
M  V30 50 1 30 47
M  V30 END BOND
M  V30 END CTAB
M  END
>  <Dataset>  (292) 
ChEMBL_Kinases

>  <Ligand_Instance>  (292) 
nan

>  <PDB_ID>  (292) 
nan

>  <Standardized_SMILES>  (292) 
C[C@@H](NC(=O)Nc1cc2[nH]nc(-c3ccc(C#N)cc3)c2cn1)c1cccc(Cl)c1

>  <Name>  (292) 
nan

>  <Pocket>  (292) 
nan

>  <ATP_Site>  (292) 
nan

>  <Peripheral>  (292) 
nan

>  <Num_H_Atoms_ProtBoundConf>  (292) 
nan

>  <Num_Resolved_Atoms>  (292) 
nan

>  <Num_Not_Resolved_Atoms>  (292) 
nan

$$$$
CHEMBL3654745
     RDKit          3D

  0  0  0  0  0  0  0  0  0  0999 V3000
M  V30 BEGIN CTAB
M  V30 COUNTS 45 48 0 0 0
M  V30 BEGIN ATOM
M  V30 1 C -2.286437 -6.056900 -0.885432 0
M  V30 2 C -2.517499 -4.666807 -1.370359 0
M  V30 3 C -1.389689 -3.836241 -1.414637 0
M  V30 4 C -1.535956 -2.527789 -1.857683 0
M  V30 5 C -0.305979 -1.723273 -1.873124 0
M  V30 6 N 0.894180 -2.092493 -2.322097 0
M  V30 7 N 1.778695 -1.093128 -2.173919 0
M  V30 8 C 1.091541 -0.084532 -1.616667 0
M  V30 9 C 1.464716 1.192834 -1.231776 0
M  V30 10 C 0.622859 2.150364 -0.653438 0
M  V30 11 N 1.078015 3.464995 -0.252168 0
M  V30 12 C 1.458222 3.222552 1.090393 0
M  V30 13 S 1.837599 4.810159 1.086579 0
M  V30 14 N 1.464650 2.098450 1.938176 0
M  V30 15 C 1.999820 2.661990 3.160937 0
M  V30 16 C 2.043225 1.523774 4.136175 0
M  V30 17 C 0.930081 1.281172 4.946905 0
M  V30 18 C 0.986713 0.221603 5.850853 0
M  V30 19 C 2.119635 -0.573003 5.944062 0
M  V30 20 C 3.228407 -0.345455 5.148709 0
M  V30 21 C 3.181840 0.714701 4.238888 0
M  V30 22 N -0.660612 1.721400 -0.484205 0
M  V30 23 C -1.086840 0.492968 -0.837063 0
M  V30 24 C -0.228701 -0.424648 -1.404023 0
M  V30 25 C -2.776711 -2.066900 -2.244531 0
M  V30 26 C -3.853633 -2.928756 -2.180495 0
M  V30 27 N -3.706803 -4.176334 -1.756546 0
M  V30 28 H -1.629319 -6.601081 -1.566782 0
M  V30 29 H -3.268130 -6.551536 -0.813223 0
M  V30 30 H -1.851753 -6.059503 0.140549 0
M  V30 31 H -0.416734 -4.221662 -1.103664 0
M  V30 32 H 2.784961 -1.030466 -2.409986 0
M  V30 33 H 2.496680 1.513227 -1.377270 0
M  V30 34 H 0.840069 3.755646 -1.194117 0
M  V30 35 H 1.094945 1.287457 1.405078 0
M  V30 36 H 3.053444 2.983363 3.039954 0
M  V30 37 H 1.333412 3.414937 3.604232 0
M  V30 38 H 0.059473 1.906417 4.862211 0
M  V30 39 H 0.090869 0.075036 6.460133 0
M  V30 40 H 2.142129 -1.381109 6.645304 0
M  V30 41 H 4.114748 -0.945315 5.202985 0
M  V30 42 H 3.983301 0.976041 3.577751 0
M  V30 43 H -2.118042 0.208056 -0.678590 0
M  V30 44 H -2.861166 -1.057609 -2.580913 0
M  V30 45 H -4.851396 -2.605603 -2.477021 0
M  V30 END ATOM
M  V30 BEGIN BOND
M  V30 1 1 1 2
M  V30 2 2 2 3
M  V30 3 1 3 4
M  V30 4 1 4 5
M  V30 5 2 5 6
M  V30 6 1 6 7
M  V30 7 1 7 8
M  V30 8 2 8 9
M  V30 9 1 9 10
M  V30 10 1 10 11
M  V30 11 1 11 12
M  V30 12 2 12 13
M  V30 13 1 12 14
M  V30 14 1 14 15
M  V30 15 1 15 16
M  V30 16 2 16 17
M  V30 17 1 17 18
M  V30 18 2 18 19
M  V30 19 1 19 20
M  V30 20 2 20 21
M  V30 21 2 10 22
M  V30 22 1 22 23
M  V30 23 2 23 24
M  V30 24 2 4 25
M  V30 25 1 25 26
M  V30 26 2 26 27
M  V30 27 1 27 2
M  V30 28 1 24 5
M  V30 29 1 24 8
M  V30 30 1 21 16
M  V30 31 1 1 28
M  V30 32 1 1 29
M  V30 33 1 1 30
M  V30 34 1 3 31
M  V30 35 1 7 32
M  V30 36 1 9 33
M  V30 37 1 11 34
M  V30 38 1 14 35
M  V30 39 1 15 36
M  V30 40 1 15 37
M  V30 41 1 17 38
M  V30 42 1 18 39
M  V30 43 1 19 40
M  V30 44 1 20 41
M  V30 45 1 21 42
M  V30 46 1 23 43
M  V30 47 1 25 44
M  V30 48 1 26 45
M  V30 END BOND
M  V30 END CTAB
M  END
>  <Dataset>  (293) 
ChEMBL_Kinases

>  <Ligand_Instance>  (293) 
nan

>  <PDB_ID>  (293) 
nan

>  <Standardized_SMILES>  (293) 
Cc1cc(-c2n[nH]c3cc(NC(=S)NCc4ccccc4)ncc23)ccn1

>  <Name>  (293) 
nan

>  <Pocket>  (293) 
nan

>  <ATP_Site>  (293) 
nan

>  <Peripheral>  (293) 
nan

>  <Num_H_Atoms_ProtBoundConf>  (293) 
nan

>  <Num_Resolved_Atoms>  (293) 
nan

>  <Num_Not_Resolved_Atoms>  (293) 
nan

$$$$
CHEMBL3654737
     RDKit          3D

  0  0  0  0  0  0  0  0  0  0999 V3000
M  V30 BEGIN CTAB
M  V30 COUNTS 48 51 0 0 0
M  V30 BEGIN ATOM
M  V30 1 C 0.186093 -8.342443 -2.370800 0
M  V30 2 C 1.164763 -7.413146 -1.750514 0
M  V30 3 C 0.745610 -6.393887 -0.925465 0
M  V30 4 C 1.616478 -5.508118 -0.327133 0
M  V30 5 C 1.003575 -4.481723 0.522986 0
M  V30 6 N 0.028222 -4.811073 1.415690 0
M  V30 7 N -0.365497 -3.721461 2.061355 0
M  V30 8 C 0.320821 -2.644436 1.630243 0
M  V30 9 C 0.377210 -1.282455 1.891344 0
M  V30 10 Br -0.818831 -0.639414 3.228761 0
M  V30 11 C 1.270512 -0.484495 1.188883 0
M  V30 12 N 1.195083 0.880324 1.583088 0
M  V30 13 C 0.272731 1.715028 0.880631 0
M  V30 14 O -0.428448 1.221346 -0.047904 0
M  V30 15 N 0.203615 3.073641 1.281395 0
M  V30 16 C -0.712275 4.007177 0.621429 0 CFG=2
M  V30 17 C 0.063362 5.161294 0.021924 0
M  V30 18 C -1.679426 4.559568 1.634529 0
M  V30 19 C -1.263183 4.995836 2.873018 0
M  V30 20 C -2.217304 5.495967 3.765127 0
M  V30 21 C -3.564908 5.569153 3.450020 0
M  V30 22 Cl -4.751395 6.194695 4.568506 0
M  V30 23 C -3.948873 5.122194 2.196754 0
M  V30 24 C -3.025118 4.622713 1.295286 0
M  V30 25 N 2.089708 -1.003204 0.253583 0
M  V30 26 C 2.072644 -2.334567 -0.039457 0
M  V30 27 C 1.184863 -3.121008 0.660174 0
M  V30 28 C 2.968073 -5.645646 -0.562789 0
M  V30 29 C 3.329585 -6.685785 -1.398305 0
M  V30 30 N 2.481673 -7.543543 -1.977414 0
M  V30 31 H 0.466834 -9.414554 -2.256726 0
M  V30 32 H 0.170763 -8.130988 -3.458626 0
M  V30 33 H -0.823084 -8.232907 -1.914734 0
M  V30 34 H -0.334702 -6.327201 -0.770747 0
M  V30 35 H -1.095327 -3.612599 2.812370 0
M  V30 36 H 1.822119 1.162776 2.357586 0
M  V30 37 H 0.817587 3.428069 2.066238 0
M  V30 38 H -1.253175 3.446390 -0.153787 0
M  V30 39 H -0.606942 6.014157 -0.131712 0
M  V30 40 H 0.927666 5.412171 0.688403 0
M  V30 41 H 0.529765 4.798027 -0.938997 0
M  V30 42 H -0.211416 4.937972 3.117120 0
M  V30 43 H -1.883718 5.836812 4.736941 0
M  V30 44 H -4.993737 5.143964 1.865533 0
M  V30 45 H -3.354000 4.279635 0.322540 0
M  V30 46 H 2.741252 -2.723434 -0.794585 0
M  V30 47 H 3.621640 -4.952375 -0.091266 0
M  V30 48 H 4.403137 -6.795657 -1.585767 0
M  V30 END ATOM
M  V30 BEGIN BOND
M  V30 1 1 1 2
M  V30 2 2 2 3
M  V30 3 1 3 4
M  V30 4 1 4 5
M  V30 5 2 5 6
M  V30 6 1 6 7
M  V30 7 1 7 8
M  V30 8 2 8 9
M  V30 9 1 9 10
M  V30 10 1 9 11
M  V30 11 1 11 12
M  V30 12 1 12 13
M  V30 13 2 13 14
M  V30 14 1 13 15
M  V30 15 1 15 16
M  V30 16 1 16 17
M  V30 17 1 16 18
M  V30 18 2 18 19
M  V30 19 1 19 20
M  V30 20 2 20 21
M  V30 21 1 21 22
M  V30 22 1 21 23
M  V30 23 2 23 24
M  V30 24 2 11 25
M  V30 25 1 25 26
M  V30 26 2 26 27
M  V30 27 2 4 28
M  V30 28 1 28 29
M  V30 29 2 29 30
M  V30 30 1 30 2
M  V30 31 1 27 5
M  V30 32 1 27 8
M  V30 33 1 24 18
M  V30 34 1 1 31
M  V30 35 1 1 32
M  V30 36 1 1 33
M  V30 37 1 3 34
M  V30 38 1 7 35
M  V30 39 1 12 36
M  V30 40 1 15 37
M  V30 41 1 16 38 CFG=3
M  V30 42 1 17 39
M  V30 43 1 17 40
M  V30 44 1 17 41
M  V30 45 1 19 42
M  V30 46 1 20 43
M  V30 47 1 23 44
M  V30 48 1 24 45
M  V30 49 1 26 46
M  V30 50 1 28 47
M  V30 51 1 29 48
M  V30 END BOND
M  V30 END CTAB
M  END
>  <Dataset>  (294) 
ChEMBL_Kinases

>  <Ligand_Instance>  (294) 
nan

>  <PDB_ID>  (294) 
nan

>  <Standardized_SMILES>  (294) 
Cc1cc(-c2n[nH]c3c(Br)c(NC(=O)N[C@H](C)c4ccc(Cl)cc4)ncc23)ccn1

>  <Name>  (294) 
nan

>  <Pocket>  (294) 
nan

>  <ATP_Site>  (294) 
nan

>  <Peripheral>  (294) 
nan

>  <Num_H_Atoms_ProtBoundConf>  (294) 
nan

>  <Num_Resolved_Atoms>  (294) 
nan

>  <Num_Not_Resolved_Atoms>  (294) 
nan

$$$$
CHEMBL3654738
     RDKit          3D

  0  0  0  0  0  0  0  0  0  0999 V3000
M  V30 BEGIN CTAB
M  V30 COUNTS 51 55 0 0 0
M  V30 BEGIN ATOM
M  V30 1 C 7.112110 -2.227801 7.371972 0
M  V30 2 C 6.612009 -1.786525 6.041559 0
M  V30 3 N 6.936426 -1.833476 4.910211 0
M  V30 4 C 6.291281 -1.344662 3.866853 0
M  V30 5 C 6.661238 -1.393380 2.538009 0
M  V30 6 C 5.842525 -0.818130 1.591038 0
M  V30 7 C 4.649565 -0.176627 1.846935 0
M  V30 8 C 3.780472 0.433426 0.847862 0
M  V30 9 N 4.249184 1.216903 -0.148905 0
M  V30 10 N 3.278417 1.653146 -0.926175 0
M  V30 11 C 2.094389 1.159733 -0.458874 0
M  V30 12 C 0.765738 1.264097 -0.842520 0
M  V30 13 C -0.188313 0.587235 -0.080174 0
M  V30 14 N -1.557756 0.683736 -0.460566 0
M  V30 15 C -2.290558 -0.142984 -1.336704 0
M  V30 16 O -1.625325 -1.087524 -1.839383 0
M  V30 17 N -3.666900 0.138873 -1.577356 0
M  V30 18 C -4.402910 -0.709980 -2.471256 0 CFG=2
M  V30 19 C -4.857132 0.124602 -3.657964 0
M  V30 20 C -5.630288 -1.273777 -1.843496 0
M  V30 21 C -6.873792 -1.329441 -2.441055 0
M  V30 22 C -7.899581 -1.889591 -1.704185 0
M  V30 23 C -7.735331 -2.383891 -0.425516 0
M  V30 24 C -6.471225 -2.323595 0.173161 0
M  V30 25 C -5.421979 -1.763462 -0.549946 0
M  V30 26 N 0.156635 -0.147835 0.996694 0
M  V30 27 C 1.459001 -0.266479 1.395192 0
M  V30 28 C 2.414481 0.397383 0.651113 0
M  V30 29 C 4.259812 -0.116202 3.170486 0
M  V30 30 C 5.062202 -0.683541 4.127791 0
M  V30 31 S 4.943138 -0.833506 5.934835 0
M  V30 32 H 6.255885 -2.304081 8.094273 0
M  V30 33 H 7.834157 -1.497890 7.825265 0
M  V30 34 H 7.501970 -3.236530 7.252202 0
M  V30 35 H 7.571532 -1.861394 2.164109 0
M  V30 36 H 6.125198 -0.850771 0.538249 0
M  V30 37 H 3.372046 2.270241 -1.761097 0
M  V30 38 H 0.517449 1.860991 -1.711016 0
M  V30 39 H -1.988466 1.516723 0.034338 0
M  V30 40 H -4.135686 0.944180 -1.116466 0
M  V30 41 H -3.723193 -1.492028 -2.841635 0
M  V30 42 H -5.158265 -0.538769 -4.517222 0
M  V30 43 H -4.058819 0.805578 -4.033821 0
M  V30 44 H -5.711680 0.776424 -3.365960 0
M  V30 45 H -6.964426 -0.935151 -3.436965 0
M  V30 46 H -8.876411 -1.944957 -2.145249 0
M  V30 47 H -8.550668 -2.811184 0.117459 0
M  V30 48 H -6.319442 -2.705151 1.174672 0
M  V30 49 H -4.465607 -1.737815 -0.049274 0
M  V30 50 H 1.720264 -0.861445 2.263724 0
M  V30 51 H 3.354336 0.349596 3.539439 0
M  V30 END ATOM
M  V30 BEGIN BOND
M  V30 1 1 1 2
M  V30 2 2 2 3
M  V30 3 1 3 4
M  V30 4 2 4 5
M  V30 5 1 5 6
M  V30 6 2 6 7
M  V30 7 1 7 8
M  V30 8 2 8 9
M  V30 9 1 9 10
M  V30 10 1 10 11
M  V30 11 2 11 12
M  V30 12 1 12 13
M  V30 13 1 13 14
M  V30 14 1 14 15
M  V30 15 2 15 16
M  V30 16 1 15 17
M  V30 17 1 17 18
M  V30 18 1 18 19
M  V30 19 1 18 20
M  V30 20 2 20 21
M  V30 21 1 21 22
M  V30 22 2 22 23
M  V30 23 1 23 24
M  V30 24 2 24 25
M  V30 25 2 13 26
M  V30 26 1 26 27
M  V30 27 2 27 28
M  V30 28 1 7 29
M  V30 29 2 29 30
M  V30 30 1 30 31
M  V30 31 1 31 2
M  V30 32 1 30 4
M  V30 33 1 28 8
M  V30 34 1 28 11
M  V30 35 1 25 20
M  V30 36 1 1 32
M  V30 37 1 1 33
M  V30 38 1 1 34
M  V30 39 1 5 35
M  V30 40 1 6 36
M  V30 41 1 10 37
M  V30 42 1 12 38
M  V30 43 1 14 39
M  V30 44 1 17 40
M  V30 45 1 18 41 CFG=3
M  V30 46 1 19 42
M  V30 47 1 19 43
M  V30 48 1 19 44
M  V30 49 1 21 45
M  V30 50 1 22 46
M  V30 51 1 23 47
M  V30 52 1 24 48
M  V30 53 1 25 49
M  V30 54 1 27 50
M  V30 55 1 29 51
M  V30 END BOND
M  V30 END CTAB
M  END
>  <Dataset>  (295) 
ChEMBL_Kinases

>  <Ligand_Instance>  (295) 
nan

>  <PDB_ID>  (295) 
nan

>  <Standardized_SMILES>  (295) 
Cc1nc2ccc(-c3n[nH]c4cc(NC(=O)N[C@H](C)c5ccccc5)ncc34)cc2s1

>  <Name>  (295) 
nan

>  <Pocket>  (295) 
nan

>  <ATP_Site>  (295) 
nan

>  <Peripheral>  (295) 
nan

>  <Num_H_Atoms_ProtBoundConf>  (295) 
nan

>  <Num_Resolved_Atoms>  (295) 
nan

>  <Num_Not_Resolved_Atoms>  (295) 
nan

$$$$
CHEMBL3654739
     RDKit          3D

  0  0  0  0  0  0  0  0  0  0999 V3000
M  V30 BEGIN CTAB
M  V30 COUNTS 52 56 0 0 0
M  V30 BEGIN ATOM
M  V30 1 C 1.826090 -6.176760 1.943078 0
M  V30 2 C 1.461679 -5.299980 0.738716 0 CFG=1
M  V30 3 N 2.385676 -4.176935 0.628432 0
M  V30 4 C 1.885794 -2.852020 0.748000 0
M  V30 5 O 0.642030 -2.677618 0.949188 0
M  V30 6 N 2.659933 -1.678895 0.662371 0
M  V30 7 C 2.068037 -0.375293 0.796858 0
M  V30 8 C 2.870382 0.742861 0.702527 0
M  V30 9 C 2.233021 1.977783 0.842825 0
M  V30 10 N 2.635583 3.282106 0.818632 0
M  V30 11 N 1.596346 4.070565 1.009687 0
M  V30 12 C 0.455955 3.340552 1.169991 0
M  V30 13 C -0.857099 3.941324 1.399829 0
M  V30 14 C -1.079640 4.967079 2.295890 0
M  V30 15 C -2.360574 5.504731 2.473924 0
M  V30 16 C -3.397286 4.959777 1.708686 0
M  V30 17 C -3.154025 3.925421 0.809803 0
M  V30 18 C -1.885741 3.409821 0.649016 0
M  V30 19 O -4.356799 3.585335 0.193132 0
M  V30 20 C -5.573945 3.624305 0.951310 0
M  V30 21 C -5.805833 5.041593 1.391434 0
M  V30 22 O -4.615184 5.555878 1.956965 0
M  V30 23 C 0.871234 2.028484 1.062851 0
M  V30 24 C 0.108985 0.895077 1.150324 0
M  V30 25 N 0.738225 -0.296882 1.012662 0
M  V30 26 C 1.465008 -6.134481 -0.479508 0
M  V30 27 C 2.716804 -6.450157 -1.012877 0
M  V30 28 C 2.810914 -7.227273 -2.150631 0
M  V30 29 C 1.677130 -7.710362 -2.788050 0
M  V30 30 C 0.414124 -7.404758 -2.268829 0
M  V30 31 C 0.378845 -6.626327 -1.132485 0
M  V30 32 H 1.606780 -7.230451 1.753072 0
M  V30 33 H 2.858910 -5.972440 2.267142 0
M  V30 34 H 1.171886 -5.852546 2.798244 0
M  V30 35 H 0.444748 -4.877145 0.902489 0
M  V30 36 H 3.408008 -4.302565 0.463919 0
M  V30 37 H 3.686046 -1.774726 0.497697 0
M  V30 38 H 3.920972 0.716774 0.533419 0
M  V30 39 H 3.627337 3.570288 0.668460 0
M  V30 40 H -0.228116 5.345374 2.859924 0
M  V30 41 H -2.491787 6.309388 3.187364 0
M  V30 42 H -1.863231 2.618391 -0.080993 0
M  V30 43 H -6.385717 3.354834 0.214932 0
M  V30 44 H -5.574877 2.908989 1.772593 0
M  V30 45 H -6.217315 5.677331 0.592381 0
M  V30 46 H -6.525680 4.984618 2.260060 0
M  V30 47 H -0.954993 0.902851 1.321795 0
M  V30 48 H 3.644449 -6.101048 -0.558616 0
M  V30 49 H 3.783352 -7.482857 -2.579947 0
M  V30 50 H 1.700680 -8.320670 -3.678327 0
M  V30 51 H -0.480609 -7.755577 -2.727622 0
M  V30 52 H -0.582168 -6.380303 -0.718048 0
M  V30 END ATOM
M  V30 BEGIN BOND
M  V30 1 1 1 2
M  V30 2 1 2 3
M  V30 3 1 3 4
M  V30 4 2 4 5
M  V30 5 1 4 6
M  V30 6 1 6 7
M  V30 7 2 7 8
M  V30 8 1 8 9
M  V30 9 1 9 10
M  V30 10 1 10 11
M  V30 11 2 11 12
M  V30 12 1 12 13
M  V30 13 2 13 14
M  V30 14 1 14 15
M  V30 15 2 15 16
M  V30 16 1 16 17
M  V30 17 2 17 18
M  V30 18 1 17 19
M  V30 19 1 19 20
M  V30 20 1 20 21
M  V30 21 1 21 22
M  V30 22 1 12 23
M  V30 23 1 23 24
M  V30 24 2 24 25
M  V30 25 1 2 26
M  V30 26 2 26 27
M  V30 27 1 27 28
M  V30 28 2 28 29
M  V30 29 1 29 30
M  V30 30 2 30 31
M  V30 31 1 25 7
M  V30 32 1 31 26
M  V30 33 2 23 9
M  V30 34 1 18 13
M  V30 35 1 22 16
M  V30 36 1 1 32
M  V30 37 1 1 33
M  V30 38 1 1 34
M  V30 39 1 2 35 CFG=1
M  V30 40 1 3 36
M  V30 41 1 6 37
M  V30 42 1 8 38
M  V30 43 1 10 39
M  V30 44 1 14 40
M  V30 45 1 15 41
M  V30 46 1 18 42
M  V30 47 1 20 43
M  V30 48 1 20 44
M  V30 49 1 21 45
M  V30 50 1 21 46
M  V30 51 1 24 47
M  V30 52 1 27 48
M  V30 53 1 28 49
M  V30 54 1 29 50
M  V30 55 1 30 51
M  V30 56 1 31 52
M  V30 END BOND
M  V30 END CTAB
M  END
>  <Dataset>  (296) 
ChEMBL_Kinases

>  <Ligand_Instance>  (296) 
nan

>  <PDB_ID>  (296) 
nan

>  <Standardized_SMILES>  (296) 
C[C@@H](NC(=O)Nc1cc2[nH]nc(-c3ccc4c(c3)OCCO4)c2cn1)c1ccccc1

>  <Name>  (296) 
nan

>  <Pocket>  (296) 
nan

>  <ATP_Site>  (296) 
nan

>  <Peripheral>  (296) 
nan

>  <Num_H_Atoms_ProtBoundConf>  (296) 
nan

>  <Num_Resolved_Atoms>  (296) 
nan

>  <Num_Not_Resolved_Atoms>  (296) 
nan

$$$$
CHEMBL3654740
     RDKit          3D

  0  0  0  0  0  0  0  0  0  0999 V3000
M  V30 BEGIN CTAB
M  V30 COUNTS 52 55 0 0 0
M  V30 BEGIN ATOM
M  V30 1 C 2.279779 -6.281113 0.928114 0
M  V30 2 C 2.088780 -5.164916 -0.105881 0 CFG=1
M  V30 3 N 2.759915 -4.004991 0.405628 0
M  V30 4 C 1.971379 -2.853224 0.614552 0
M  V30 5 O 0.757555 -2.843795 0.368164 0
M  V30 6 N 2.527664 -1.648951 1.116737 0
M  V30 7 C 1.745490 -0.479367 1.332746 0
M  V30 8 C 2.359844 0.655001 1.824167 0
M  V30 9 C 1.656657 1.820859 2.055210 0
M  V30 10 N 1.859402 3.072769 2.499954 0
M  V30 11 N 0.714454 3.762306 2.486906 0
M  V30 12 C -0.290398 2.962153 2.022942 0
M  V30 13 C -1.668660 3.428937 1.890266 0
M  V30 14 C -2.206343 4.150666 2.936723 0
M  V30 15 C -3.510611 4.572338 2.770509 0
M  V30 16 C -4.286720 4.324894 1.657431 0
M  V30 17 S -5.935069 4.887965 1.508715 0
M  V30 18 C -7.052961 3.642563 2.164986 0
M  V30 19 O -6.118825 6.099775 2.348476 0
M  V30 20 O -6.313957 5.155795 0.078346 0
M  V30 21 C -3.659421 3.586853 0.648153 0
M  V30 22 C -2.360912 3.127898 0.733970 0
M  V30 23 C 0.293333 1.739374 1.749054 0
M  V30 24 C -0.288863 0.585777 1.258047 0
M  V30 25 N 0.430714 -0.535901 1.044595 0
M  V30 26 C 2.620053 -5.625940 -1.405316 0
M  V30 27 C 3.995367 -5.723758 -1.648361 0
M  V30 28 C 4.464138 -6.162997 -2.887448 0
M  V30 29 C 3.594762 -6.513757 -3.909140 0
M  V30 30 C 2.236300 -6.424765 -3.690799 0
M  V30 31 C 1.785773 -5.988988 -2.461093 0
M  V30 32 H 1.599723 -7.131645 0.704886 0
M  V30 33 H 3.343761 -6.593393 0.913124 0
M  V30 34 H 2.056702 -5.909114 1.949459 0
M  V30 35 H 1.020145 -4.948842 -0.255930 0
M  V30 36 H 3.784704 -4.019707 0.611476 0
M  V30 37 H 3.552378 -1.666943 1.321504 0
M  V30 38 H 3.418927 0.692665 2.053749 0
M  V30 39 H 2.811860 3.382256 2.795166 0
M  V30 40 H -1.636416 4.370477 3.831642 0
M  V30 41 H -3.957487 5.147156 3.589298 0
M  V30 42 H -8.086716 3.992814 2.121031 0
M  V30 43 H -6.777788 3.372015 3.189688 0
M  V30 44 H -6.985171 2.710303 1.564660 0
M  V30 45 H -4.277389 3.392372 -0.232936 0
M  V30 46 H -1.961217 2.566538 -0.094500 0
M  V30 47 H -1.342894 0.536002 1.025600 0
M  V30 48 H 4.709291 -5.454724 -0.863512 0
M  V30 49 H 5.533474 -6.226414 -3.040408 0
M  V30 50 H 3.925959 -6.856289 -4.876297 0
M  V30 51 H 1.469632 -6.678322 -4.432971 0
M  V30 52 H 0.714244 -5.897211 -2.227393 0
M  V30 END ATOM
M  V30 BEGIN BOND
M  V30 1 1 1 2
M  V30 2 1 2 3
M  V30 3 1 3 4
M  V30 4 2 4 5
M  V30 5 1 4 6
M  V30 6 1 6 7
M  V30 7 2 7 8
M  V30 8 1 8 9
M  V30 9 1 9 10
M  V30 10 1 10 11
M  V30 11 2 11 12
M  V30 12 1 12 13
M  V30 13 2 13 14
M  V30 14 1 14 15
M  V30 15 2 15 16
M  V30 16 1 16 17
M  V30 17 1 17 18
M  V30 18 2 17 19
M  V30 19 2 17 20
M  V30 20 1 16 21
M  V30 21 2 21 22
M  V30 22 1 12 23
M  V30 23 1 23 24
M  V30 24 2 24 25
M  V30 25 1 2 26
M  V30 26 2 26 27
M  V30 27 1 27 28
M  V30 28 2 28 29
M  V30 29 1 29 30
M  V30 30 2 30 31
M  V30 31 1 25 7
M  V30 32 1 31 26
M  V30 33 2 23 9
M  V30 34 1 22 13
M  V30 35 1 1 32
M  V30 36 1 1 33
M  V30 37 1 1 34
M  V30 38 1 2 35 CFG=3
M  V30 39 1 3 36
M  V30 40 1 6 37
M  V30 41 1 8 38
M  V30 42 1 10 39
M  V30 43 1 14 40
M  V30 44 1 15 41
M  V30 45 1 18 42
M  V30 46 1 18 43
M  V30 47 1 18 44
M  V30 48 1 21 45
M  V30 49 1 22 46
M  V30 50 1 24 47
M  V30 51 1 27 48
M  V30 52 1 28 49
M  V30 53 1 29 50
M  V30 54 1 30 51
M  V30 55 1 31 52
M  V30 END BOND
M  V30 END CTAB
M  END
>  <Dataset>  (297) 
ChEMBL_Kinases

>  <Ligand_Instance>  (297) 
nan

>  <PDB_ID>  (297) 
nan

>  <Standardized_SMILES>  (297) 
C[C@@H](NC(=O)Nc1cc2[nH]nc(-c3ccc(S(C)(=O)=O)cc3)c2cn1)c1ccccc1

>  <Name>  (297) 
nan

>  <Pocket>  (297) 
nan

>  <ATP_Site>  (297) 
nan

>  <Peripheral>  (297) 
nan

>  <Num_H_Atoms_ProtBoundConf>  (297) 
nan

>  <Num_Resolved_Atoms>  (297) 
nan

>  <Num_Not_Resolved_Atoms>  (297) 
nan

$$$$
CHEMBL3654741
     RDKit          3D

  0  0  0  0  0  0  0  0  0  0999 V3000
M  V30 BEGIN CTAB
M  V30 COUNTS 46 49 0 0 0
M  V30 BEGIN ATOM
M  V30 1 C -0.645718 -5.511496 2.411395 0
M  V30 2 C -0.490424 -4.862084 1.051089 0 CFG=1
M  V30 3 N 0.426304 -3.762467 1.162558 0
M  V30 4 C -0.081924 -2.467626 0.898678 0
M  V30 5 O -1.203779 -2.035342 0.574567 0
M  V30 6 N 0.816165 -1.370833 1.004225 0
M  V30 7 C 0.703849 0.035469 0.827219 0
M  V30 8 C 0.926593 0.649285 -0.407156 0
M  V30 9 C 0.810360 2.027366 -0.551067 0
M  V30 10 N 0.965142 2.863098 -1.598771 0
M  V30 11 N 0.734821 4.118986 -1.199123 0
M  V30 12 C 0.425057 4.116546 0.122988 0
M  V30 13 C 0.103147 5.265777 0.965782 0
M  V30 14 C 0.065387 6.573723 0.527786 0
M  V30 15 C -0.271243 7.418704 1.574822 0
M  V30 16 N -0.430450 6.583625 2.635044 0
M  V30 17 C -0.795391 7.002127 3.996873 0
M  V30 18 N -0.208280 5.320472 2.266825 0
M  V30 19 C 0.464301 2.796751 0.567509 0
M  V30 20 C 0.248489 2.152010 1.786635 0
M  V30 21 N 0.372798 0.815714 1.876936 0
M  V30 22 C -0.069375 -5.847164 0.023167 0
M  V30 23 C 1.279254 -6.185603 0.063133 0
M  V30 24 C 1.849277 -7.088739 -0.819022 0
M  V30 25 C 1.061304 -7.693996 -1.792106 0
M  V30 26 C -0.270660 -7.339337 -1.807555 0
M  V30 27 C -0.856546 -6.443588 -0.939265 0
M  V30 28 H -1.615860 -6.021480 2.468000 0
M  V30 29 H -0.558387 -4.704379 3.169662 0
M  V30 30 H 0.230884 -6.201264 2.556741 0
M  V30 31 H -1.486141 -4.479493 0.754703 0
M  V30 32 H 1.429091 -3.876011 1.423900 0
M  V30 33 H 1.844839 -1.441588 1.266561 0
M  V30 34 H 1.196496 0.037430 -1.274734 0
M  V30 35 H 1.227968 2.564093 -2.581299 0
M  V30 36 H 0.255349 6.981576 -0.467522 0
M  V30 37 H -0.406499 8.484773 1.663232 0
M  V30 38 H -0.322834 7.953938 4.245718 0
M  V30 39 H -0.484199 6.197881 4.700863 0
M  V30 40 H -1.904085 7.000376 4.026367 0
M  V30 41 H -0.020321 2.761534 2.649404 0
M  V30 42 H 1.962934 -5.753850 0.797247 0
M  V30 43 H 2.909389 -7.323076 -0.750092 0
M  V30 44 H 1.480330 -8.402052 -2.492755 0
M  V30 45 H -0.889534 -7.803252 -2.558226 0
M  V30 46 H -1.889582 -6.153003 -0.933035 0
M  V30 END ATOM
M  V30 BEGIN BOND
M  V30 1 1 1 2
M  V30 2 1 2 3
M  V30 3 1 3 4
M  V30 4 2 4 5
M  V30 5 1 4 6
M  V30 6 1 6 7
M  V30 7 2 7 8
M  V30 8 1 8 9
M  V30 9 1 9 10
M  V30 10 1 10 11
M  V30 11 2 11 12
M  V30 12 1 12 13
M  V30 13 1 13 14
M  V30 14 2 14 15
M  V30 15 1 15 16
M  V30 16 1 16 17
M  V30 17 1 16 18
M  V30 18 1 12 19
M  V30 19 1 19 20
M  V30 20 2 20 21
M  V30 21 1 2 22
M  V30 22 2 22 23
M  V30 23 1 23 24
M  V30 24 2 24 25
M  V30 25 1 25 26
M  V30 26 2 26 27
M  V30 27 1 21 7
M  V30 28 1 27 22
M  V30 29 2 19 9
M  V30 30 2 18 13
M  V30 31 1 1 28
M  V30 32 1 1 29
M  V30 33 1 1 30
M  V30 34 1 2 31 CFG=3
M  V30 35 1 3 32
M  V30 36 1 6 33
M  V30 37 1 8 34
M  V30 38 1 10 35
M  V30 39 1 14 36
M  V30 40 1 15 37
M  V30 41 1 17 38
M  V30 42 1 17 39
M  V30 43 1 17 40
M  V30 44 1 20 41
M  V30 45 1 23 42
M  V30 46 1 24 43
M  V30 47 1 25 44
M  V30 48 1 26 45
M  V30 49 1 27 46
M  V30 END BOND
M  V30 END CTAB
M  END
>  <Dataset>  (298) 
ChEMBL_Kinases

>  <Ligand_Instance>  (298) 
nan

>  <PDB_ID>  (298) 
nan

>  <Standardized_SMILES>  (298) 
C[C@@H](NC(=O)Nc1cc2[nH]nc(-c3ccn(C)n3)c2cn1)c1ccccc1

>  <Name>  (298) 
nan

>  <Pocket>  (298) 
nan

>  <ATP_Site>  (298) 
nan

>  <Peripheral>  (298) 
nan

>  <Num_H_Atoms_ProtBoundConf>  (298) 
nan

>  <Num_Resolved_Atoms>  (298) 
nan

>  <Num_Not_Resolved_Atoms>  (298) 
nan

$$$$
CHEMBL3654742
     RDKit          3D

  0  0  0  0  0  0  0  0  0  0999 V3000
M  V30 BEGIN CTAB
M  V30 COUNTS 47 50 0 0 0
M  V30 BEGIN ATOM
M  V30 1 C -4.669960 -5.663086 1.384857 0
M  V30 2 C -3.836809 -5.765368 0.157010 0
M  V30 3 C -3.091268 -4.669257 -0.268036 0
M  V30 4 C -2.347924 -4.839768 -1.408471 0
M  V30 5 C -1.519176 -3.776703 -1.969054 0
M  V30 6 N -1.428826 -3.408904 -3.254050 0
M  V30 7 N -0.583998 -2.406962 -3.428405 0
M  V30 8 C -0.098345 -2.106538 -2.189877 0
M  V30 9 C 0.815239 -1.136085 -1.829259 0
M  V30 10 C 1.139657 -1.042007 -0.483989 0
M  V30 11 N 2.054026 -0.116380 0.098696 0
M  V30 12 C 1.524837 1.131165 0.533778 0
M  V30 13 O 0.283494 1.377600 0.393688 0
M  V30 14 N 2.319245 2.157499 1.136223 0
M  V30 15 C 1.709161 3.406494 1.555828 0 CFG=2
M  V30 16 C 2.399949 4.530195 0.807926 0
M  V30 17 C 1.964171 3.576033 3.025735 0
M  V30 18 C 3.203102 3.336585 3.555316 0
M  V30 19 C 3.428876 3.493347 4.898182 0
M  V30 20 C 2.399935 3.897154 5.732997 0
M  V30 21 C 1.154816 4.138553 5.205461 0
M  V30 22 C 0.904814 3.985172 3.844140 0
M  V30 23 N 0.574933 -1.873257 0.417233 0
M  V30 24 C -0.321110 -2.830241 0.088627 0
M  V30 25 C -0.660622 -2.943821 -1.245759 0
M  V30 26 C -2.359190 -6.060820 -2.085277 0
M  V30 27 N -3.091193 -7.091743 -1.642262 0
M  V30 28 N -3.813344 -6.925728 -0.534136 0
M  V30 29 H -4.176009 -6.181092 2.257462 0
M  V30 30 H -4.946013 -4.623138 1.630555 0
M  V30 31 H -5.642311 -6.218181 1.281565 0
M  V30 32 H -3.093053 -3.746499 0.257889 0
M  V30 33 H -0.319462 -1.921466 -4.317495 0
M  V30 34 H 1.300625 -0.447236 -2.479374 0
M  V30 35 H 3.087310 -0.244257 0.248765 0
M  V30 36 H 3.339093 1.982577 1.263254 0
M  V30 37 H 0.643892 3.375466 1.330568 0
M  V30 38 H 1.948046 4.667572 -0.190318 0
M  V30 39 H 3.502131 4.355637 0.777614 0
M  V30 40 H 2.257057 5.452385 1.422446 0
M  V30 41 H 3.986070 3.025956 2.899198 0
M  V30 42 H 4.394200 3.315351 5.364131 0
M  V30 43 H 2.568285 4.026536 6.812014 0
M  V30 44 H 0.319577 4.455706 5.817011 0
M  V30 45 H -0.061430 4.171455 3.428232 0
M  V30 46 H -0.770981 -3.492889 0.808753 0
M  V30 47 H -1.801429 -6.271282 -2.987796 0
M  V30 END ATOM
M  V30 BEGIN BOND
M  V30 1 1 1 2
M  V30 2 2 2 3
M  V30 3 1 3 4
M  V30 4 1 4 5
M  V30 5 2 5 6
M  V30 6 1 6 7
M  V30 7 1 7 8
M  V30 8 2 8 9
M  V30 9 1 9 10
M  V30 10 1 10 11
M  V30 11 1 11 12
M  V30 12 2 12 13
M  V30 13 1 12 14
M  V30 14 1 14 15
M  V30 15 1 15 16
M  V30 16 1 15 17
M  V30 17 2 17 18
M  V30 18 1 18 19
M  V30 19 2 19 20
M  V30 20 1 20 21
M  V30 21 2 21 22
M  V30 22 2 10 23
M  V30 23 1 23 24
M  V30 24 2 24 25
M  V30 25 2 4 26
M  V30 26 1 26 27
M  V30 27 2 27 28
M  V30 28 1 28 2
M  V30 29 1 25 5
M  V30 30 1 25 8
M  V30 31 1 22 17
M  V30 32 1 1 29
M  V30 33 1 1 30
M  V30 34 1 1 31
M  V30 35 1 3 32
M  V30 36 1 7 33
M  V30 37 1 9 34
M  V30 38 1 11 35
M  V30 39 1 14 36
M  V30 40 1 15 37 CFG=1
M  V30 41 1 16 38
M  V30 42 1 16 39
M  V30 43 1 16 40
M  V30 44 1 18 41
M  V30 45 1 19 42
M  V30 46 1 20 43
M  V30 47 1 21 44
M  V30 48 1 22 45
M  V30 49 1 24 46
M  V30 50 1 26 47
M  V30 END BOND
M  V30 END CTAB
M  END
>  <Dataset>  (299) 
ChEMBL_Kinases

>  <Ligand_Instance>  (299) 
nan

>  <PDB_ID>  (299) 
nan

>  <Standardized_SMILES>  (299) 
Cc1cc(-c2n[nH]c3cc(NC(=O)N[C@H](C)c4ccccc4)ncc23)cnn1

>  <Name>  (299) 
nan

>  <Pocket>  (299) 
nan

>  <ATP_Site>  (299) 
nan

>  <Peripheral>  (299) 
nan

>  <Num_H_Atoms_ProtBoundConf>  (299) 
nan

>  <Num_Resolved_Atoms>  (299) 
nan

>  <Num_Not_Resolved_Atoms>  (299) 
nan

$$$$
CHEMBL3654743
     RDKit          3D

  0  0  0  0  0  0  0  0  0  0999 V3000
M  V30 BEGIN CTAB
M  V30 COUNTS 45 48 0 0 0
M  V30 BEGIN ATOM
M  V30 1 C -2.986329 -5.372511 0.564694 0
M  V30 2 C -2.266568 -5.195601 -0.731601 0
M  V30 3 C -1.164414 -4.372808 -0.879450 0
M  V30 4 C -0.507059 -4.221910 -2.098137 0
M  V30 5 C 0.634435 -3.318091 -2.097835 0
M  V30 6 N 1.870637 -3.514533 -2.634273 0
M  V30 7 N 2.639549 -2.452994 -2.431824 0
M  V30 8 C 1.892416 -1.560034 -1.757174 0
M  V30 9 C 2.274226 -0.304656 -1.327699 0
M  V30 10 Cl 3.830941 0.451840 -1.547485 0
M  V30 11 C 1.363558 0.476008 -0.646176 0
M  V30 12 N 1.503900 1.787387 -0.103243 0
M  V30 13 C 1.955685 1.972596 1.246507 0
M  V30 14 O 2.232179 0.975867 1.956248 0
M  V30 15 N 2.067994 3.280424 1.718166 0
M  V30 16 C 2.501943 3.677287 3.066189 0
M  V30 17 C 1.348158 3.438281 3.968859 0
M  V30 18 C 1.051540 2.303895 4.687360 0
M  V30 19 C -0.068164 2.218681 5.488348 0
M  V30 20 C -0.942805 3.295357 5.593779 0
M  V30 21 C -0.663399 4.449881 4.878066 0
M  V30 22 C 0.470376 4.522522 4.072995 0
M  V30 23 N 0.119912 -0.032169 -0.426681 0
M  V30 24 C -0.264115 -1.256086 -0.841025 0
M  V30 25 C 0.626429 -2.057632 -1.524508 0
M  V30 26 C -1.016874 -4.941816 -3.157102 0
M  V30 27 C -2.114147 -5.757316 -2.997894 0
M  V30 28 N -2.726215 -5.879400 -1.802723 0
M  V30 29 H -3.308259 -6.424365 0.711240 0
M  V30 30 H -2.358510 -5.064208 1.424166 0
M  V30 31 H -3.907743 -4.768075 0.528592 0
M  V30 32 H -0.892779 -3.886058 0.041875 0
M  V30 33 H 3.629720 -2.353566 -2.745411 0
M  V30 34 H 1.254803 2.574198 -0.755849 0
M  V30 35 H 1.828414 4.085657 1.078870 0
M  V30 36 H 3.335492 3.009344 3.408333 0
M  V30 37 H 2.840601 4.721136 3.091488 0
M  V30 38 H 1.736514 1.503713 4.590269 0
M  V30 39 H -0.262568 1.306015 6.036306 0
M  V30 40 H -1.832807 3.272286 6.209777 0
M  V30 41 H -1.316057 5.320818 4.925524 0
M  V30 42 H 0.632555 5.457383 3.537164 0
M  V30 43 H -1.256574 -1.640671 -0.660524 0
M  V30 44 H -0.475104 -4.797634 -4.097836 0
M  V30 45 H -2.482655 -6.301450 -3.840217 0
M  V30 END ATOM
M  V30 BEGIN BOND
M  V30 1 1 1 2
M  V30 2 2 2 3
M  V30 3 1 3 4
M  V30 4 1 4 5
M  V30 5 2 5 6
M  V30 6 1 6 7
M  V30 7 1 7 8
M  V30 8 2 8 9
M  V30 9 1 9 10
M  V30 10 1 9 11
M  V30 11 1 11 12
M  V30 12 1 12 13
M  V30 13 2 13 14
M  V30 14 1 13 15
M  V30 15 1 15 16
M  V30 16 1 16 17
M  V30 17 2 17 18
M  V30 18 1 18 19
M  V30 19 2 19 20
M  V30 20 1 20 21
M  V30 21 2 21 22
M  V30 22 2 11 23
M  V30 23 1 23 24
M  V30 24 2 24 25
M  V30 25 2 4 26
M  V30 26 1 26 27
M  V30 27 2 27 28
M  V30 28 1 28 2
M  V30 29 1 25 5
M  V30 30 1 25 8
M  V30 31 1 22 17
M  V30 32 1 1 29
M  V30 33 1 1 30
M  V30 34 1 1 31
M  V30 35 1 3 32
M  V30 36 1 7 33
M  V30 37 1 12 34
M  V30 38 1 15 35
M  V30 39 1 16 36
M  V30 40 1 16 37
M  V30 41 1 18 38
M  V30 42 1 19 39
M  V30 43 1 20 40
M  V30 44 1 21 41
M  V30 45 1 22 42
M  V30 46 1 24 43
M  V30 47 1 26 44
M  V30 48 1 27 45
M  V30 END BOND
M  V30 END CTAB
M  END
>  <Dataset>  (300) 
ChEMBL_Kinases

>  <Ligand_Instance>  (300) 
nan

>  <PDB_ID>  (300) 
nan

>  <Standardized_SMILES>  (300) 
Cc1cc(-c2n[nH]c3c(Cl)c(NC(=O)NCc4ccccc4)ncc23)ccn1

>  <Name>  (300) 
nan

>  <Pocket>  (300) 
nan

>  <ATP_Site>  (300) 
nan

>  <Peripheral>  (300) 
nan

>  <Num_H_Atoms_ProtBoundConf>  (300) 
nan

>  <Num_Resolved_Atoms>  (300) 
nan

>  <Num_Not_Resolved_Atoms>  (300) 
nan

$$$$
CHEMBL3654744
     RDKit          3D

  0  0  0  0  0  0  0  0  0  0999 V3000
M  V30 BEGIN CTAB
M  V30 COUNTS 46 49 0 0 0
M  V30 BEGIN ATOM
M  V30 1 C -0.399177 -4.625185 3.956287 0
M  V30 2 C -0.730852 -4.170417 2.557954 0 CFG=1
M  V30 3 N 0.466897 -3.578048 1.952495 0
M  V30 4 C 0.542776 -2.213490 1.591719 0
M  V30 5 O -0.442031 -1.443896 1.784209 0
M  V30 6 N 1.693541 -1.634297 1.007585 0
M  V30 7 C 1.724080 -0.251269 0.659810 0
M  V30 8 C 2.857990 0.293912 0.090472 0
M  V30 9 C 2.818655 1.640548 -0.221529 0
M  V30 10 N 3.688322 2.534373 -0.773763 0
M  V30 11 N 3.128896 3.733007 -0.849426 0
M  V30 12 C 1.863020 3.695031 -0.352460 0
M  V30 13 C 0.913751 4.816283 -0.259148 0
M  V30 14 C 0.145888 5.096503 0.856477 0
M  V30 15 C -0.713686 6.198575 0.796841 0
M  V30 16 N -0.804340 6.972324 -0.300759 0 CHG=1 VAL=4
M  V30 17 O -1.652135 8.042682 -0.332022 0 CHG=-1 VAL=1
M  V30 18 C -0.039690 6.662672 -1.360917 0
M  V30 19 C 0.852161 5.588473 -1.413988 0
M  V30 20 C 1.683620 2.382706 0.035491 0
M  V30 21 C 0.566040 1.817436 0.603416 0
M  V30 22 N 0.633540 0.505540 0.896126 0
M  V30 23 C -1.257730 -5.272454 1.715019 0
M  V30 24 C -1.276982 -4.890790 0.375797 0
M  V30 25 C -1.734986 -5.765739 -0.614442 0
M  V30 26 C -2.170963 -7.024927 -0.235055 0
M  V30 27 C -2.146030 -7.388858 1.095112 0
M  V30 28 C -1.695217 -6.529846 2.076632 0
M  V30 29 H 0.445264 -5.353331 3.960084 0
M  V30 30 H -0.007436 -3.736953 4.495425 0
M  V30 31 H -1.291037 -4.997285 4.467396 0
M  V30 32 H -1.476543 -3.348009 2.645477 0
M  V30 33 H 1.280446 -4.219801 1.794938 0
M  V30 34 H 2.530057 -2.233330 0.830796 0
M  V30 35 H 3.737119 -0.267401 -0.111880 0
M  V30 36 H 4.647988 2.266018 -1.078325 0
M  V30 37 H 0.249663 4.453014 1.710887 0
M  V30 38 H -1.314185 6.415566 1.672846 0
M  V30 39 H -0.124108 7.299996 -2.244909 0
M  V30 40 H 1.431758 5.404365 -2.301586 0
M  V30 41 H -0.370125 2.301621 0.846474 0
M  V30 42 H -0.964246 -3.938879 -0.047302 0
M  V30 43 H -1.770081 -5.517850 -1.666852 0
M  V30 44 H -2.525219 -7.703719 -0.994686 0
M  V30 45 H -2.476526 -8.361028 1.437426 0
M  V30 46 H -1.629852 -6.700310 3.133758 0
M  V30 END ATOM
M  V30 BEGIN BOND
M  V30 1 1 1 2
M  V30 2 1 2 3
M  V30 3 1 3 4
M  V30 4 2 4 5
M  V30 5 1 4 6
M  V30 6 1 6 7
M  V30 7 2 7 8
M  V30 8 1 8 9
M  V30 9 1 9 10
M  V30 10 1 10 11
M  V30 11 2 11 12
M  V30 12 1 12 13
M  V30 13 2 13 14
M  V30 14 1 14 15
M  V30 15 2 15 16
M  V30 16 1 16 17
M  V30 17 1 16 18
M  V30 18 2 18 19
M  V30 19 1 12 20
M  V30 20 1 20 21
M  V30 21 2 21 22
M  V30 22 1 2 23
M  V30 23 2 23 24
M  V30 24 1 24 25
M  V30 25 2 25 26
M  V30 26 1 26 27
M  V30 27 2 27 28
M  V30 28 1 22 7
M  V30 29 1 28 23
M  V30 30 2 20 9
M  V30 31 1 19 13
M  V30 32 1 1 29
M  V30 33 1 1 30
M  V30 34 1 1 31
M  V30 35 1 2 32 CFG=1
M  V30 36 1 3 33
M  V30 37 1 6 34
M  V30 38 1 8 35
M  V30 39 1 10 36
M  V30 40 1 14 37
M  V30 41 1 15 38
M  V30 42 1 18 39
M  V30 43 1 19 40
M  V30 44 1 21 41
M  V30 45 1 24 42
M  V30 46 1 25 43
M  V30 47 1 26 44
M  V30 48 1 27 45
M  V30 49 1 28 46
M  V30 END BOND
M  V30 END CTAB
M  END
>  <Dataset>  (301) 
ChEMBL_Kinases

>  <Ligand_Instance>  (301) 
nan

>  <PDB_ID>  (301) 
nan

>  <Standardized_SMILES>  (301) 
C[C@@H](NC(=O)Nc1cc2[nH]nc(-c3cc[n+]([O-])cc3)c2cn1)c1ccccc1

>  <Name>  (301) 
nan

>  <Pocket>  (301) 
nan

>  <ATP_Site>  (301) 
nan

>  <Peripheral>  (301) 
nan

>  <Num_H_Atoms_ProtBoundConf>  (301) 
nan

>  <Num_Resolved_Atoms>  (301) 
nan

>  <Num_Not_Resolved_Atoms>  (301) 
nan

$$$$
CHEMBL3654736
     RDKit          3D

  0  0  0  0  0  0  0  0  0  0999 V3000
M  V30 BEGIN CTAB
M  V30 COUNTS 49 53 0 0 0
M  V30 BEGIN ATOM
M  V30 1 C -0.907029 -6.950656 -3.301111 0
M  V30 2 C -0.237061 -6.622861 -2.033088 0
M  V30 3 C 0.345245 -5.381960 -1.880162 0
M  V30 4 C 0.959092 -5.101666 -0.698458 0
M  V30 5 C 1.630067 -3.848145 -0.347167 0
M  V30 6 N 2.837931 -3.766272 0.262940 0
M  V30 7 N 3.172458 -2.490888 0.444744 0
M  V30 8 C 2.172992 -1.750948 -0.051828 0
M  V30 9 C 2.028068 -0.382210 -0.110917 0
M  V30 10 C 0.869412 0.100328 -0.690427 0
M  V30 11 N 0.683517 1.530491 -0.769556 0
M  V30 12 C 0.012910 2.018286 0.403323 0
M  V30 13 O -0.418906 1.443526 1.436035 0
M  V30 14 N -0.245485 3.434558 0.471804 0
M  V30 15 C -0.922566 4.082112 1.607582 0
M  V30 16 C -0.892574 3.285690 2.864010 0
M  V30 17 C 0.330117 3.116575 3.517954 0
M  V30 18 C 0.413373 2.386717 4.687132 0
M  V30 19 C -0.697025 1.798477 5.254655 0
M  V30 20 Cl -0.687402 0.856249 6.732880 0
M  V30 21 C -1.910253 1.960673 4.614553 0
M  V30 22 C -1.991268 2.690155 3.446678 0
M  V30 23 C -1.148267 5.536856 1.599520 0
M  V30 24 C -2.277584 4.671938 1.200334 0
M  V30 25 N -0.091294 -0.712962 -1.183354 0
M  V30 26 C 0.011869 -2.055893 -1.145065 0
M  V30 27 C 1.166764 -2.567344 -0.567749 0
M  V30 28 C 0.985709 -6.054519 0.310910 0
M  V30 29 C 0.393632 -7.301592 0.140871 0
M  V30 30 N -0.209348 -7.543517 -1.053079 0
M  V30 31 H -1.019940 -6.077303 -3.964246 0
M  V30 32 H -0.399425 -7.765601 -3.874406 0
M  V30 33 H -1.942590 -7.353289 -3.127533 0
M  V30 34 H 0.352154 -4.605798 -2.634375 0
M  V30 35 H 4.056092 -2.127034 0.894194 0
M  V30 36 H 2.754631 0.348363 0.263056 0
M  V30 37 H 0.957520 2.193701 -1.518037 0
M  V30 38 H 0.046037 4.092290 -0.309571 0
M  V30 39 H 1.272856 3.544103 3.148669 0
M  V30 40 H 1.345076 2.226769 5.234112 0
M  V30 41 H -2.828374 1.523453 5.006841 0
M  V30 42 H -2.933995 2.802667 2.970466 0
M  V30 43 H -1.261022 6.038730 2.572092 0
M  V30 44 H -0.612212 6.139501 0.824400 0
M  V30 45 H -3.141846 4.489110 1.841697 0
M  V30 46 H -2.536295 4.728527 0.121724 0
M  V30 47 H -0.744210 -2.734953 -1.533395 0
M  V30 48 H 1.461571 -5.885031 1.274432 0
M  V30 49 H 0.389776 -8.066853 0.891515 0
M  V30 END ATOM
M  V30 BEGIN BOND
M  V30 1 1 1 2
M  V30 2 2 2 3
M  V30 3 1 3 4
M  V30 4 1 4 5
M  V30 5 2 5 6
M  V30 6 1 6 7
M  V30 7 1 7 8
M  V30 8 2 8 9
M  V30 9 1 9 10
M  V30 10 1 10 11
M  V30 11 1 11 12
M  V30 12 2 12 13
M  V30 13 1 12 14
M  V30 14 1 14 15
M  V30 15 1 15 16
M  V30 16 2 16 17
M  V30 17 1 17 18
M  V30 18 2 18 19
M  V30 19 1 19 20
M  V30 20 1 19 21
M  V30 21 2 21 22
M  V30 22 1 15 23
M  V30 23 1 23 24
M  V30 24 2 10 25
M  V30 25 1 25 26
M  V30 26 2 26 27
M  V30 27 2 4 28
M  V30 28 1 28 29
M  V30 29 2 29 30
M  V30 30 1 30 2
M  V30 31 1 27 5
M  V30 32 1 27 8
M  V30 33 1 24 15
M  V30 34 1 22 16
M  V30 35 1 1 31
M  V30 36 1 1 32
M  V30 37 1 1 33
M  V30 38 1 3 34
M  V30 39 1 7 35
M  V30 40 1 9 36
M  V30 41 1 11 37
M  V30 42 1 14 38
M  V30 43 1 17 39
M  V30 44 1 18 40
M  V30 45 1 21 41
M  V30 46 1 22 42
M  V30 47 1 23 43
M  V30 48 1 23 44
M  V30 49 1 24 45
M  V30 50 1 24 46
M  V30 51 1 26 47
M  V30 52 1 28 48
M  V30 53 1 29 49
M  V30 END BOND
M  V30 END CTAB
M  END
>  <Dataset>  (302) 
ChEMBL_Kinases

>  <Ligand_Instance>  (302) 
nan

>  <PDB_ID>  (302) 
nan

>  <Standardized_SMILES>  (302) 
Cc1cc(-c2n[nH]c3cc(NC(=O)NC4(c5ccc(Cl)cc5)CC4)ncc23)ccn1

>  <Name>  (302) 
nan

>  <Pocket>  (302) 
nan

>  <ATP_Site>  (302) 
nan

>  <Peripheral>  (302) 
nan

>  <Num_H_Atoms_ProtBoundConf>  (302) 
nan

>  <Num_Resolved_Atoms>  (302) 
nan

>  <Num_Not_Resolved_Atoms>  (302) 
nan

$$$$
CHEMBL3658416
     RDKit          3D

  0  0  0  0  0  0  0  0  0  0999 V3000
M  V30 BEGIN CTAB
M  V30 COUNTS 77 83 0 0 0
M  V30 BEGIN ATOM
M  V30 1 C 3.034073 -5.690195 -0.865810 0
M  V30 2 O 3.249733 -4.310578 -0.921710 0
M  V30 3 C 4.323153 -3.697798 -0.307957 0
M  V30 4 C 5.213206 -4.479007 0.380404 0
M  V30 5 C 6.278704 -3.886724 0.984267 0
M  V30 6 C 6.424823 -2.528231 0.883143 0
M  V30 7 C 5.482738 -1.821427 0.172677 0
M  V30 8 F 5.749732 -0.472485 0.151447 0
M  V30 9 C 4.345310 -2.340003 -0.487643 0
M  V30 10 C 3.513209 -1.350003 -1.131296 0
M  V30 11 N 2.392744 -0.859965 -0.410698 0
M  V30 12 C 1.936799 0.413858 -1.016613 0
M  V30 13 C 1.049401 0.266431 -2.183643 0 CFG=2
M  V30 14 N -0.197730 1.035986 -1.986480 0
M  V30 15 C -0.524905 2.130579 -2.830710 0
M  V30 16 O 0.202317 2.508396 -3.775530 0
M  V30 17 C -1.757542 2.881151 -2.625236 0
M  V30 18 C -2.027672 3.963252 -3.469999 0
M  V30 19 C -3.192300 4.712709 -3.313796 0
M  V30 20 C -4.114007 4.412445 -2.323876 0
M  V30 21 N -5.306799 4.949390 -1.939464 0
M  V30 22 N -5.777988 4.244110 -0.898090 0
M  V30 23 C -4.911808 3.260627 -0.601825 0
M  V30 24 C -5.105706 2.303369 0.472661 0
M  V30 25 C -6.312098 1.656852 0.722597 0
M  V30 26 C -6.550845 0.742182 1.722337 0
M  V30 27 C -5.498906 0.410814 2.585766 0
M  V30 28 N -5.554052 -0.438081 3.586272 0
M  V30 29 C -4.724502 -0.742552 4.318324 0
M  V30 30 C -4.376478 -1.615481 5.523721 0
M  V30 31 S -3.325777 0.342332 3.623500 0
M  V30 32 C -4.327600 1.021466 2.363692 0
M  V30 33 C -4.086414 1.948836 1.349757 0
M  V30 34 C -3.854166 3.343128 -1.484102 0
M  V30 35 C -2.705945 2.625732 -1.658821 0
M  V30 36 C 0.697898 -1.095772 -2.647739 0
M  V30 37 C 0.655333 -2.162068 -1.576924 0
M  V30 38 C 1.232254 -1.693971 -0.287205 0 CFG=1
M  V30 39 C 1.241496 -2.626496 0.824116 0
M  V30 40 O 0.262392 -3.434763 0.634284 0
M  V30 41 N 2.089941 -2.742763 1.957261 0
M  V30 42 C 3.249466 -2.192600 2.683070 0
M  V30 43 C 2.492012 -2.577687 3.955428 0
M  V30 44 F 1.467136 -1.745710 4.292669 0
M  V30 45 F 3.343142 -2.963288 4.973725 0
M  V30 46 C 2.037616 -3.729980 3.048528 0
M  V30 47 H 2.747126 -6.006676 0.162145 0
M  V30 48 H 2.190929 -5.940780 -1.557815 0
M  V30 49 H 3.927808 -6.263687 -1.225058 0
M  V30 50 H 5.037041 -5.543279 0.419867 0
M  V30 51 H 6.963024 -4.523268 1.518747 0
M  V30 52 H 7.273814 -2.084712 1.367562 0
M  V30 53 H 3.213648 -1.670434 -2.185210 0
M  V30 54 H 4.145538 -0.437005 -1.365784 0
M  V30 55 H 1.363387 0.892038 -0.183532 0
M  V30 56 H 2.803856 1.039965 -1.225893 0
M  V30 57 H 1.510408 0.784772 -3.087930 0
M  V30 58 H -0.804622 0.721910 -1.199135 0
M  V30 59 H -1.372143 4.278918 -4.272741 0
M  V30 60 H -3.448607 5.560896 -3.941963 0
M  V30 61 H -5.758461 5.759408 -2.382529 0
M  V30 62 H -7.102635 1.956024 0.013733 0
M  V30 63 H -7.562270 0.359613 1.739330 0
M  V30 64 H -3.381490 -2.087438 5.344458 0
M  V30 65 H -5.121698 -2.408994 5.486287 0
M  V30 66 H -4.378346 -1.004549 6.456506 0
M  V30 67 H -3.106313 2.387004 1.252283 0
M  V30 68 H -2.521163 1.797719 -0.996217 0
M  V30 69 H 1.290396 -1.427488 -3.554303 0
M  V30 70 H -0.352011 -1.050423 -3.073659 0
M  V30 71 H 1.217756 -3.016845 -1.968205 0
M  V30 72 H -0.406056 -2.507812 -1.379731 0
M  V30 73 H 0.422292 -0.907053 0.060980 0
M  V30 74 H 3.403837 -1.115508 2.536899 0
M  V30 75 H 4.119282 -2.851732 2.604744 0
M  V30 76 H 1.011373 -4.069315 3.284877 0
M  V30 77 H 2.804655 -4.510278 2.992477 0
M  V30 END ATOM
M  V30 BEGIN BOND
M  V30 1 1 1 2
M  V30 2 1 2 3
M  V30 3 2 3 4
M  V30 4 1 4 5
M  V30 5 2 5 6
M  V30 6 1 6 7
M  V30 7 1 7 8
M  V30 8 2 7 9
M  V30 9 1 9 10
M  V30 10 1 10 11
M  V30 11 1 11 12
M  V30 12 1 12 13
M  V30 13 1 13 14
M  V30 14 1 14 15
M  V30 15 2 15 16
M  V30 16 1 15 17
M  V30 17 2 17 18
M  V30 18 1 18 19
M  V30 19 2 19 20
M  V30 20 1 20 21
M  V30 21 1 21 22
M  V30 22 2 22 23
M  V30 23 1 23 24
M  V30 24 2 24 25
M  V30 25 1 25 26
M  V30 26 2 26 27
M  V30 27 1 27 28
M  V30 28 2 28 29
M  V30 29 1 29 30
M  V30 30 1 29 31
M  V30 31 1 31 32
M  V30 32 2 32 33
M  V30 33 1 23 34
M  V30 34 2 34 35
M  V30 35 1 13 36
M  V30 36 1 36 37
M  V30 37 1 37 38
M  V30 38 1 38 39
M  V30 39 2 39 40
M  V30 40 1 39 41
M  V30 41 1 41 42
M  V30 42 1 42 43
M  V30 43 1 43 44
M  V30 44 1 43 45
M  V30 45 1 43 46
M  V30 46 1 9 3
M  V30 47 1 38 11
M  V30 48 1 46 41
M  V30 49 1 35 17
M  V30 50 1 34 20
M  V30 51 1 33 24
M  V30 52 1 32 27
M  V30 53 1 1 47
M  V30 54 1 1 48
M  V30 55 1 1 49
M  V30 56 1 4 50
M  V30 57 1 5 51
M  V30 58 1 6 52
M  V30 59 1 10 53
M  V30 60 1 10 54
M  V30 61 1 12 55
M  V30 62 1 12 56
M  V30 63 1 13 57 CFG=3
M  V30 64 1 14 58
M  V30 65 1 18 59
M  V30 66 1 19 60
M  V30 67 1 21 61
M  V30 68 1 25 62
M  V30 69 1 26 63
M  V30 70 1 30 64
M  V30 71 1 30 65
M  V30 72 1 30 66
M  V30 73 1 33 67
M  V30 74 1 35 68
M  V30 75 1 36 69
M  V30 76 1 36 70
M  V30 77 1 37 71
M  V30 78 1 37 72
M  V30 79 1 38 73 CFG=1
M  V30 80 1 42 74
M  V30 81 1 42 75
M  V30 82 1 46 76
M  V30 83 1 46 77
M  V30 END BOND
M  V30 END CTAB
M  END
>  <Dataset>  (303) 
ChEMBL_Kinases

>  <Ligand_Instance>  (303) 
nan

>  <PDB_ID>  (303) 
nan

>  <Standardized_SMILES>  (303) 
COc1cccc(F)c1CN1C[C@H](NC(=O)c2ccc3[nH]nc(-c4ccc5nc(C)sc5c4)c3c2)CC[C@H]1C(=O)N1CC(F)(F)C1

>  <Name>  (303) 
nan

>  <Pocket>  (303) 
nan

>  <ATP_Site>  (303) 
nan

>  <Peripheral>  (303) 
nan

>  <Num_H_Atoms_ProtBoundConf>  (303) 
nan

>  <Num_Resolved_Atoms>  (303) 
nan

>  <Num_Not_Resolved_Atoms>  (303) 
nan

$$$$
CHEMBL365832
     RDKit          3D

  0  0  0  0  0  0  0  0  0  0999 V3000
M  V30 BEGIN CTAB
M  V30 COUNTS 27 29 0 0 0
M  V30 BEGIN ATOM
M  V30 1 C -1.589260 -1.924467 1.125138 0
M  V30 2 C -0.519834 -1.125592 1.819422 0
M  V30 3 N 0.136090 -0.249915 0.907568 0
M  V30 4 C 1.196095 -0.569070 0.170380 0
M  V30 5 C 2.033511 -1.711361 -0.114686 0
M  V30 6 N 3.110891 -1.677690 -0.909371 0
M  V30 7 O 3.692683 -2.814048 -0.969641 0
M  V30 8 N 3.042241 -3.683668 -0.219126 0
M  V30 9 C 1.998438 -3.000518 0.321143 0
M  V30 10 N 1.130677 -3.707840 1.140557 0
M  V30 11 N 1.478882 0.600804 -0.454101 0
M  V30 12 C 0.635381 1.575001 -0.117561 0
M  V30 13 C 0.659448 2.865273 -0.586375 0
M  V30 14 N -0.296963 3.708379 -0.124994 0
M  V30 15 C -1.230774 3.264983 0.766417 0
M  V30 16 C -1.172757 1.952556 1.178197 0
M  V30 17 Br -2.482933 1.304186 2.392330 0
M  V30 18 C -0.248316 1.018444 0.775568 0
M  V30 19 H -1.620574 -2.985711 1.508809 0
M  V30 20 H -2.605863 -1.551415 1.230051 0
M  V30 21 H -1.312787 -2.054609 0.037560 0
M  V30 22 H -0.964617 -0.552162 2.698978 0
M  V30 23 H 0.156919 -1.808821 2.348075 0
M  V30 24 H 0.915945 -4.065564 2.095865 0
M  V30 25 H 0.317052 -4.050208 0.582622 0
M  V30 26 H 1.397688 3.197657 -1.285392 0
M  V30 27 H -2.011603 3.901015 1.160802 0
M  V30 END ATOM
M  V30 BEGIN BOND
M  V30 1 1 1 2
M  V30 2 1 2 3
M  V30 3 1 3 4
M  V30 4 1 4 5
M  V30 5 2 5 6
M  V30 6 1 6 7
M  V30 7 1 7 8
M  V30 8 2 8 9
M  V30 9 1 9 10
M  V30 10 2 4 11
M  V30 11 1 11 12
M  V30 12 2 12 13
M  V30 13 1 13 14
M  V30 14 2 14 15
M  V30 15 1 15 16
M  V30 16 1 16 17
M  V30 17 2 16 18
M  V30 18 1 18 3
M  V30 19 1 9 5
M  V30 20 1 18 12
M  V30 21 1 1 19
M  V30 22 1 1 20
M  V30 23 1 1 21
M  V30 24 1 2 22
M  V30 25 1 2 23
M  V30 26 1 10 24
M  V30 27 1 10 25
M  V30 28 1 13 26
M  V30 29 1 15 27
M  V30 END BOND
M  V30 END CTAB
M  END
>  <Dataset>  (304) 
ChEMBL_Kinases

>  <Ligand_Instance>  (304) 
nan

>  <PDB_ID>  (304) 
nan

>  <Standardized_SMILES>  (304) 
CCn1c(-c2nonc2N)nc2cncc(Br)c21

>  <Name>  (304) 
nan

>  <Pocket>  (304) 
nan

>  <ATP_Site>  (304) 
nan

>  <Peripheral>  (304) 
nan

>  <Num_H_Atoms_ProtBoundConf>  (304) 
nan

>  <Num_Resolved_Atoms>  (304) 
nan

>  <Num_Not_Resolved_Atoms>  (304) 
nan

$$$$
CHEMBL365830
     RDKit          3D

  0  0  0  0  0  0  0  0  0  0999 V3000
M  V30 BEGIN CTAB
M  V30 COUNTS 58 61 0 0 0
M  V30 BEGIN ATOM
M  V30 1 C 1.939167 -5.169852 1.907543 0
M  V30 2 O 2.001889 -4.276784 0.787085 0
M  V30 3 C 2.386031 -2.950067 0.984733 0
M  V30 4 C 2.702081 -2.513484 2.265314 0
M  V30 5 C 3.073815 -1.173008 2.363391 0
M  V30 6 N 3.375221 -0.746242 3.600175 0
M  V30 7 C 3.740814 0.535941 3.790314 0
M  V30 8 N 3.818367 1.419680 2.781298 0
M  V30 9 C 3.523189 1.031951 1.518367 0
M  V30 10 N 3.532573 1.788555 0.318524 0
M  V30 11 C 2.327230 2.372648 -0.154126 0
M  V30 12 C 2.252597 3.125851 -1.318756 0
M  V30 13 C 1.111391 3.697687 -1.819493 0
M  V30 14 C -0.065495 3.514227 -1.112829 0
M  V30 15 C -0.021224 2.767048 0.053335 0
M  V30 16 N -1.171819 2.480766 0.881034 0
M  V30 17 C -1.599772 1.223087 0.321858 0
M  V30 18 O -0.808494 0.925582 -0.620378 0
M  V30 19 C -2.767764 0.442215 0.794486 0
M  V30 20 C -3.684943 0.744567 1.774275 0
M  V30 21 C -4.684097 -0.154326 2.039101 0
M  V30 22 C -4.780700 -1.343522 1.344257 0
M  V30 23 C -3.872111 -1.666470 0.358647 0
M  V30 24 N -4.022029 -2.907896 -0.318081 0
M  V30 25 C -5.132088 -3.756325 0.071764 0
M  V30 26 C -3.174081 -3.418477 -1.360228 0
M  V30 27 C -2.874610 -0.756675 0.102263 0
M  V30 28 C 1.146018 2.212916 0.517144 0
M  V30 29 C 3.143342 -0.293479 1.309059 0
M  V30 30 C 2.812977 -0.815692 0.080939 0
M  V30 31 C 2.434196 -2.126732 -0.110238 0
M  V30 32 O 2.104944 -2.628369 -1.357813 0
M  V30 33 C 2.114608 -1.889192 -2.547688 0
M  V30 34 H 1.205035 -4.820889 2.658580 0
M  V30 35 H 2.946953 -5.170765 2.365813 0
M  V30 36 H 1.684129 -6.179358 1.528488 0
M  V30 37 H 2.665384 -3.161980 3.128342 0
M  V30 38 H 3.993025 0.918564 4.774611 0
M  V30 39 H 4.403532 1.919895 -0.215387 0
M  V30 40 H 3.168247 3.270707 -1.872790 0
M  V30 41 H 1.124613 4.265338 -2.721291 0
M  V30 42 H -1.009809 3.917374 -1.416971 0
M  V30 43 H -1.750275 2.857792 1.690664 0
M  V30 44 H -3.481897 1.705501 2.230343 0
M  V30 45 H -5.373525 0.150959 2.827065 0
M  V30 46 H -5.616859 -1.945092 1.663633 0
M  V30 47 H -5.174579 -3.870313 1.192264 0
M  V30 48 H -6.066285 -3.235030 -0.234994 0
M  V30 49 H -5.106507 -4.749963 -0.372545 0
M  V30 50 H -2.991586 -4.506541 -1.112438 0
M  V30 51 H -2.180031 -2.971844 -1.407505 0
M  V30 52 H -3.691431 -3.419067 -2.346996 0
M  V30 53 H -2.192304 -1.082026 -0.694750 0
M  V30 54 H 1.197692 1.628951 1.425961 0
M  V30 55 H 2.849346 -0.164936 -0.788471 0
M  V30 56 H 2.101906 -2.621429 -3.396637 0
M  V30 57 H 2.967490 -1.199945 -2.632878 0
M  V30 58 H 1.191122 -1.269883 -2.630125 0
M  V30 END ATOM
M  V30 BEGIN BOND
M  V30 1 1 1 2
M  V30 2 1 2 3
M  V30 3 2 3 4
M  V30 4 1 4 5
M  V30 5 2 5 6
M  V30 6 1 6 7
M  V30 7 2 7 8
M  V30 8 1 8 9
M  V30 9 1 9 10
M  V30 10 1 10 11
M  V30 11 2 11 12
M  V30 12 1 12 13
M  V30 13 2 13 14
M  V30 14 1 14 15
M  V30 15 1 15 16
M  V30 16 1 16 17
M  V30 17 2 17 18
M  V30 18 1 17 19
M  V30 19 2 19 20
M  V30 20 1 20 21
M  V30 21 2 21 22
M  V30 22 1 22 23
M  V30 23 1 23 24
M  V30 24 1 24 25
M  V30 25 1 24 26
M  V30 26 2 23 27
M  V30 27 2 15 28
M  V30 28 2 9 29
M  V30 29 1 29 30
M  V30 30 2 30 31
M  V30 31 1 31 32
M  V30 32 1 32 33
M  V30 33 1 31 3
M  V30 34 1 29 5
M  V30 35 1 28 11
M  V30 36 1 27 19
M  V30 37 1 1 34
M  V30 38 1 1 35
M  V30 39 1 1 36
M  V30 40 1 4 37
M  V30 41 1 7 38
M  V30 42 1 10 39
M  V30 43 1 12 40
M  V30 44 1 13 41
M  V30 45 1 14 42
M  V30 46 1 16 43
M  V30 47 1 20 44
M  V30 48 1 21 45
M  V30 49 1 22 46
M  V30 50 1 25 47
M  V30 51 1 25 48
M  V30 52 1 25 49
M  V30 53 1 26 50
M  V30 54 1 26 51
M  V30 55 1 26 52
M  V30 56 1 27 53
M  V30 57 1 28 54
M  V30 58 1 30 55
M  V30 59 1 33 56
M  V30 60 1 33 57
M  V30 61 1 33 58
M  V30 END BOND
M  V30 END CTAB
M  END
>  <Dataset>  (305) 
ChEMBL_Kinases

>  <Ligand_Instance>  (305) 
nan

>  <PDB_ID>  (305) 
nan

>  <Standardized_SMILES>  (305) 
COc1cc2ncnc(Nc3cccc(NC(=O)c4cccc(N(C)C)c4)c3)c2cc1OC

>  <Name>  (305) 
nan

>  <Pocket>  (305) 
nan

>  <ATP_Site>  (305) 
nan

>  <Peripheral>  (305) 
nan

>  <Num_H_Atoms_ProtBoundConf>  (305) 
nan

>  <Num_Resolved_Atoms>  (305) 
nan

>  <Num_Not_Resolved_Atoms>  (305) 
nan

$$$$
CHEMBL3658050
     RDKit          3D

  0  0  0  0  0  0  0  0  0  0999 V3000
M  V30 BEGIN CTAB
M  V30 COUNTS 71 75 0 0 0
M  V30 BEGIN ATOM
M  V30 1 C 3.118044 4.411778 4.326405 0
M  V30 2 C 4.040152 4.809592 3.184998 0
M  V30 3 C 5.308360 4.011783 3.339170 0
M  V30 4 N 3.419572 4.534434 1.897560 0
M  V30 5 C 2.144828 5.262145 1.800653 0
M  V30 6 C 1.643846 5.163823 0.382541 0
M  V30 7 N 2.478965 4.201365 -0.311409 0
M  V30 8 C 2.181074 2.874213 -0.738127 0
M  V30 9 C 2.913302 2.072862 -1.588457 0
M  V30 10 C 2.452537 0.802995 -1.861114 0
M  V30 11 C 1.289086 0.279585 -1.327123 0
M  V30 12 N 0.839651 -1.024917 -1.634288 0
M  V30 13 C -0.375354 -1.474200 -0.995951 0
M  V30 14 N -0.957616 -0.617077 -0.122845 0
M  V30 15 C -2.107308 -0.982685 0.516363 0
M  V30 16 C -2.613264 -2.228861 0.226138 0
M  V30 17 C -3.743743 -2.891437 0.690508 0
M  V30 18 C -3.786785 -4.141189 0.059840 0
M  V30 19 C -4.914948 -4.982498 0.423601 0
M  V30 20 O -5.003757 -5.516889 1.560126 0
M  V30 21 N -6.070097 -5.376197 -0.307970 0
M  V30 22 C -7.016056 -6.229195 0.351659 0
M  V30 23 C -6.474922 -5.053208 -1.660953 0
M  V30 24 N -2.724873 -4.271687 -0.774401 0
M  V30 25 C -2.500703 -5.438343 -1.561152 0
M  V30 26 C -2.740159 -6.746161 -0.814194 0
M  V30 27 C -1.722967 -6.579474 0.303209 0
M  V30 28 C -0.524043 -5.958255 -0.403553 0
M  V30 29 C -0.995553 -5.604698 -1.798349 0
M  V30 30 C -2.043223 -3.120067 -0.656490 0
M  V30 31 N -0.914453 -2.678634 -1.240363 0
M  V30 32 N 0.609884 1.096516 -0.503891 0
M  V30 33 C 1.014530 2.343208 -0.205290 0
M  V30 34 C 3.777408 4.850199 -0.502127 0
M  V30 35 C 4.280407 5.171577 0.885012 0
M  V30 36 H 2.479090 5.265284 4.655799 0
M  V30 37 H 2.483812 3.547814 4.067951 0
M  V30 38 H 3.760617 4.146849 5.187939 0
M  V30 39 H 4.270446 5.870377 3.278521 0
M  V30 40 H 6.205195 4.658247 3.570719 0
M  V30 41 H 5.521470 3.435551 2.417822 0
M  V30 42 H 5.211929 3.245926 4.163453 0
M  V30 43 H 1.456942 4.763948 2.486727 0
M  V30 44 H 2.279667 6.320648 2.113975 0
M  V30 45 H 1.632711 6.153259 -0.129931 0
M  V30 46 H 0.577406 4.800202 0.439532 0
M  V30 47 H 3.809889 2.525834 -1.976995 0
M  V30 48 H 3.054395 0.211523 -2.527690 0
M  V30 49 H 1.367056 -1.623321 -2.288941 0
M  V30 50 H -2.589144 -0.322218 1.213509 0
M  V30 51 H -4.413150 -2.416264 1.424438 0
M  V30 52 H -6.675866 -6.522711 1.345395 0
M  V30 53 H -8.013379 -5.747555 0.440992 0
M  V30 54 H -7.145935 -7.130884 -0.307790 0
M  V30 55 H -7.392818 -4.450243 -1.637313 0
M  V30 56 H -6.758561 -6.004971 -2.200021 0
M  V30 57 H -5.651199 -4.533739 -2.219051 0
M  V30 58 H -3.050147 -5.423191 -2.528233 0
M  V30 59 H -3.756103 -6.915853 -0.493847 0
M  V30 60 H -2.335239 -7.559543 -1.456137 0
M  V30 61 H -2.148575 -5.849260 1.007083 0
M  V30 62 H -1.496476 -7.527077 0.796019 0
M  V30 63 H 0.295508 -6.720987 -0.420983 0
M  V30 64 H -0.211231 -5.018813 0.090198 0
M  V30 65 H -0.519144 -4.738643 -2.243837 0
M  V30 66 H -0.816430 -6.544436 -2.400394 0
M  V30 67 H 0.291294 2.798658 0.485944 0
M  V30 68 H 4.489010 4.225386 -1.077761 0
M  V30 69 H 3.626808 5.787257 -1.062804 0
M  V30 70 H 5.328161 4.919599 1.058403 0
M  V30 71 H 4.187446 6.273514 1.057174 0
M  V30 END ATOM
M  V30 BEGIN BOND
M  V30 1 1 1 2
M  V30 2 1 2 3
M  V30 3 1 2 4
M  V30 4 1 4 5
M  V30 5 1 5 6
M  V30 6 1 6 7
M  V30 7 1 7 8
M  V30 8 2 8 9
M  V30 9 1 9 10
M  V30 10 2 10 11
M  V30 11 1 11 12
M  V30 12 1 12 13
M  V30 13 2 13 14
M  V30 14 1 14 15
M  V30 15 2 15 16
M  V30 16 1 16 17
M  V30 17 2 17 18
M  V30 18 1 18 19
M  V30 19 2 19 20
M  V30 20 1 19 21
M  V30 21 1 21 22
M  V30 22 1 21 23
M  V30 23 1 18 24
M  V30 24 1 24 25
M  V30 25 1 25 26
M  V30 26 1 26 27
M  V30 27 1 27 28
M  V30 28 1 28 29
M  V30 29 1 24 30
M  V30 30 2 30 31
M  V30 31 1 11 32
M  V30 32 2 32 33
M  V30 33 1 7 34
M  V30 34 1 34 35
M  V30 35 1 35 4
M  V30 36 1 33 8
M  V30 37 1 31 13
M  V30 38 1 30 16
M  V30 39 1 29 25
M  V30 40 1 1 36
M  V30 41 1 1 37
M  V30 42 1 1 38
M  V30 43 1 2 39
M  V30 44 1 3 40
M  V30 45 1 3 41
M  V30 46 1 3 42
M  V30 47 1 5 43
M  V30 48 1 5 44
M  V30 49 1 6 45
M  V30 50 1 6 46
M  V30 51 1 9 47
M  V30 52 1 10 48
M  V30 53 1 12 49
M  V30 54 1 15 50
M  V30 55 1 17 51
M  V30 56 1 22 52
M  V30 57 1 22 53
M  V30 58 1 22 54
M  V30 59 1 23 55
M  V30 60 1 23 56
M  V30 61 1 23 57
M  V30 62 1 25 58
M  V30 63 1 26 59
M  V30 64 1 26 60
M  V30 65 1 27 61
M  V30 66 1 27 62
M  V30 67 1 28 63
M  V30 68 1 28 64
M  V30 69 1 29 65
M  V30 70 1 29 66
M  V30 71 1 33 67
M  V30 72 1 34 68
M  V30 73 1 34 69
M  V30 74 1 35 70
M  V30 75 1 35 71
M  V30 END BOND
M  V30 END CTAB
M  END
>  <Dataset>  (306) 
ChEMBL_Kinases

>  <Ligand_Instance>  (306) 
nan

>  <PDB_ID>  (306) 
nan

>  <Standardized_SMILES>  (306) 
CC(C)N1CCN(c2ccc(Nc3ncc4cc(C(=O)N(C)C)n(C5CCCC5)c4n3)nc2)CC1

>  <Name>  (306) 
nan

>  <Pocket>  (306) 
nan

>  <ATP_Site>  (306) 
nan

>  <Peripheral>  (306) 
nan

>  <Num_H_Atoms_ProtBoundConf>  (306) 
nan

>  <Num_Resolved_Atoms>  (306) 
nan

>  <Num_Not_Resolved_Atoms>  (306) 
nan

$$$$
CHEMBL3658028
     RDKit          3D

  0  0  0  0  0  0  0  0  0  0999 V3000
M  V30 BEGIN CTAB
M  V30 COUNTS 63 66 0 0 0
M  V30 BEGIN ATOM
M  V30 1 C 4.898859 -3.526459 3.356339 0
M  V30 2 N 4.771010 -2.251356 4.051324 0
M  V30 3 C 5.173646 -2.271614 5.443436 0
M  V30 4 C 4.309833 -1.004268 3.565113 0
M  V30 5 O 4.236136 0.060368 4.261756 0
M  V30 6 C 3.832057 -0.627977 2.242564 0
M  V30 7 C 4.695679 -0.413902 1.189835 0
M  V30 8 C 3.874197 -0.081590 0.133699 0
M  V30 9 C 4.185616 0.234743 -1.168254 0
M  V30 10 N 3.200531 0.525539 -2.024685 0
M  V30 11 C 1.903948 0.530505 -1.697711 0
M  V30 12 N 0.954488 0.842393 -2.698818 0
M  V30 13 C -0.447281 0.939583 -2.600979 0
M  V30 14 C -1.214515 0.770777 -1.472781 0
M  V30 15 C -2.580264 0.852210 -1.378667 0
M  V30 16 C -3.272472 1.133357 -2.535749 0
M  V30 17 C -4.723445 1.243580 -2.591423 0
M  V30 18 O -5.315585 2.242314 -3.114180 0
M  V30 19 N -5.707040 0.336892 -2.113786 0
M  V30 20 C -7.016968 0.880868 -2.403033 0
M  V30 21 C -5.596666 -0.937433 -1.437078 0
M  V30 22 C -5.552285 -2.028662 -2.492316 0
M  V30 23 N -4.414339 -1.845298 -3.369389 0
M  V30 24 C -2.525715 1.307688 -3.680076 0
M  V30 25 N -1.200662 1.211800 -3.683317 0
M  V30 26 N 1.608933 0.218680 -0.414800 0
M  V30 27 C 2.547164 -0.083352 0.495763 0
M  V30 28 N 2.574860 -0.424203 1.795401 0
M  V30 29 C 1.458537 -0.576294 2.665972 0
M  V30 30 C 1.214376 -2.015626 3.081047 0
M  V30 31 C -0.122117 -1.902153 3.785476 0
M  V30 32 C -0.791630 -0.636988 3.242582 0
M  V30 33 C 0.134007 -0.204062 2.090461 0
M  V30 34 H 4.033893 -4.155544 3.709484 0
M  V30 35 H 4.923500 -3.412763 2.265304 0
M  V30 36 H 5.800382 -4.064111 3.743350 0
M  V30 37 H 5.059973 -3.276209 5.893002 0
M  V30 38 H 4.484965 -1.590208 6.013196 0
M  V30 39 H 6.209911 -1.881332 5.582720 0
M  V30 40 H 5.772929 -0.473225 1.133697 0
M  V30 41 H 5.220957 0.250253 -1.506530 0
M  V30 42 H 1.337426 1.031734 -3.669654 0
M  V30 43 H -0.711428 0.553343 -0.548386 0
M  V30 44 H -3.110151 0.707937 -0.454777 0
M  V30 45 H -7.825994 0.242060 -1.982655 0
M  V30 46 H -7.159745 1.885059 -1.969319 0
M  V30 47 H -7.175452 0.861138 -3.502517 0
M  V30 48 H -6.529674 -1.077063 -0.846481 0
M  V30 49 H -4.750371 -0.995057 -0.747120 0
M  V30 50 H -5.458097 -3.036354 -2.006525 0
M  V30 51 H -6.474035 -2.029959 -3.107872 0
M  V30 52 H -3.898909 -2.749537 -3.496907 0
M  V30 53 H -4.732875 -1.474315 -4.290422 0
M  V30 54 H -3.005411 1.538661 -4.638690 0
M  V30 55 H 1.567471 0.000570 3.622238 0
M  V30 56 H 1.087900 -2.660293 2.163614 0
M  V30 57 H 1.997979 -2.406454 3.748783 0
M  V30 58 H 0.076607 -1.729355 4.865196 0
M  V30 59 H -0.758415 -2.797282 3.615229 0
M  V30 60 H -0.754874 0.188622 3.977876 0
M  V30 61 H -1.806903 -0.835262 2.843917 0
M  V30 62 H -0.175520 -0.895785 1.257884 0
M  V30 63 H 0.005602 0.848102 1.828935 0
M  V30 END ATOM
M  V30 BEGIN BOND
M  V30 1 1 1 2
M  V30 2 1 2 3
M  V30 3 1 2 4
M  V30 4 2 4 5
M  V30 5 1 4 6
M  V30 6 2 6 7
M  V30 7 1 7 8
M  V30 8 2 8 9
M  V30 9 1 9 10
M  V30 10 2 10 11
M  V30 11 1 11 12
M  V30 12 1 12 13
M  V30 13 2 13 14
M  V30 14 1 14 15
M  V30 15 2 15 16
M  V30 16 1 16 17
M  V30 17 2 17 18
M  V30 18 1 17 19
M  V30 19 1 19 20
M  V30 20 1 19 21
M  V30 21 1 21 22
M  V30 22 1 22 23
M  V30 23 1 16 24
M  V30 24 2 24 25
M  V30 25 1 11 26
M  V30 26 2 26 27
M  V30 27 1 27 28
M  V30 28 1 28 29
M  V30 29 1 29 30
M  V30 30 1 30 31
M  V30 31 1 31 32
M  V30 32 1 32 33
M  V30 33 1 28 6
M  V30 34 1 33 29
M  V30 35 1 27 8
M  V30 36 1 25 13
M  V30 37 1 1 34
M  V30 38 1 1 35
M  V30 39 1 1 36
M  V30 40 1 3 37
M  V30 41 1 3 38
M  V30 42 1 3 39
M  V30 43 1 7 40
M  V30 44 1 9 41
M  V30 45 1 12 42
M  V30 46 1 14 43
M  V30 47 1 15 44
M  V30 48 1 20 45
M  V30 49 1 20 46
M  V30 50 1 20 47
M  V30 51 1 21 48
M  V30 52 1 21 49
M  V30 53 1 22 50
M  V30 54 1 22 51
M  V30 55 1 23 52
M  V30 56 1 23 53
M  V30 57 1 24 54
M  V30 58 1 29 55
M  V30 59 1 30 56
M  V30 60 1 30 57
M  V30 61 1 31 58
M  V30 62 1 31 59
M  V30 63 1 32 60
M  V30 64 1 32 61
M  V30 65 1 33 62
M  V30 66 1 33 63
M  V30 END BOND
M  V30 END CTAB
M  END
>  <Dataset>  (307) 
ChEMBL_Kinases

>  <Ligand_Instance>  (307) 
nan

>  <PDB_ID>  (307) 
nan

>  <Standardized_SMILES>  (307) 
CN(C)C(=O)c1cc2cnc(Nc3ccc(C(=O)N(C)CCN)cn3)nc2n1C1CCCC1

>  <Name>  (307) 
nan

>  <Pocket>  (307) 
nan

>  <ATP_Site>  (307) 
nan

>  <Peripheral>  (307) 
nan

>  <Num_H_Atoms_ProtBoundConf>  (307) 
nan

>  <Num_Resolved_Atoms>  (307) 
nan

>  <Num_Not_Resolved_Atoms>  (307) 
nan

$$$$
CHEMBL365781
     RDKit          3D

  0  0  0  0  0  0  0  0  0  0999 V3000
M  V30 BEGIN CTAB
M  V30 COUNTS 28 29 0 0 0
M  V30 BEGIN ATOM
M  V30 1 C -1.504176 -0.296388 3.602092 0
M  V30 2 C -0.063569 -0.215808 4.114056 0
M  V30 3 S 0.908794 0.930114 3.119402 0
M  V30 4 C 1.067071 0.224352 1.468322 0
M  V30 5 C 2.090282 -0.591035 1.235834 0
M  V30 6 C 2.217651 -1.162557 -0.103469 0
M  V30 7 O 3.169664 -1.935913 -0.359804 0
M  V30 8 C 1.240660 -0.832406 -1.132873 0
M  V30 9 C 1.327212 -1.359315 -2.428515 0
M  V30 10 C 0.359061 -0.999161 -3.351828 0
M  V30 11 C -0.692340 -0.149672 -3.078669 0
M  V30 12 C -0.804838 0.393081 -1.791700 0
M  V30 13 C 0.174708 0.010545 -0.908601 0
M  V30 14 C 0.067833 0.575918 0.454815 0
M  V30 15 O -0.864667 1.358394 0.778406 0
M  V30 16 C 0.463393 -1.622503 4.035217 0
M  V30 17 O 0.915764 -2.395762 4.940915 0
M  V30 18 O 0.479164 -2.222501 2.783392 0
M  V30 19 H -1.499266 -0.736194 2.569867 0
M  V30 20 H -2.146352 -0.881485 4.285149 0
M  V30 21 H -1.974514 0.699514 3.526357 0
M  V30 22 H -0.109605 0.120248 5.169190 0
M  V30 23 H 2.781414 -0.800745 2.027602 0
M  V30 24 H 2.145829 -2.027170 -2.658268 0
M  V30 25 H 0.493147 -1.451550 -4.347233 0
M  V30 26 H -1.426713 0.102171 -3.840516 0
M  V30 27 H -1.604305 1.057131 -1.539035 0
M  V30 28 H 0.994304 -3.044291 2.532506 0
M  V30 END ATOM
M  V30 BEGIN BOND
M  V30 1 1 1 2
M  V30 2 1 2 3
M  V30 3 1 3 4
M  V30 4 2 4 5
M  V30 5 1 5 6
M  V30 6 2 6 7
M  V30 7 1 6 8
M  V30 8 2 8 9
M  V30 9 1 9 10
M  V30 10 2 10 11
M  V30 11 1 11 12
M  V30 12 2 12 13
M  V30 13 1 13 14
M  V30 14 2 14 15
M  V30 15 1 2 16
M  V30 16 2 16 17
M  V30 17 1 16 18
M  V30 18 1 14 4
M  V30 19 1 13 8
M  V30 20 1 1 19
M  V30 21 1 1 20
M  V30 22 1 1 21
M  V30 23 1 2 22
M  V30 24 1 5 23
M  V30 25 1 9 24
M  V30 26 1 10 25
M  V30 27 1 11 26
M  V30 28 1 12 27
M  V30 29 1 18 28
M  V30 END BOND
M  V30 END CTAB
M  END
>  <Dataset>  (308) 
ChEMBL_Kinases

>  <Ligand_Instance>  (308) 
nan

>  <PDB_ID>  (308) 
nan

>  <Standardized_SMILES>  (308) 
CC(SC1=CC(=O)c2ccccc2C1=O)C(=O)O

>  <Name>  (308) 
nan

>  <Pocket>  (308) 
nan

>  <ATP_Site>  (308) 
nan

>  <Peripheral>  (308) 
nan

>  <Num_H_Atoms_ProtBoundConf>  (308) 
nan

>  <Num_Resolved_Atoms>  (308) 
nan

>  <Num_Not_Resolved_Atoms>  (308) 
nan

$$$$
CHEMBL365701
     RDKit          3D

  0  0  0  0  0  0  0  0  0  0999 V3000
M  V30 BEGIN CTAB
M  V30 COUNTS 28 31 0 0 0
M  V30 BEGIN ATOM
M  V30 1 O 2.164490 2.291718 0.271514 0
M  V30 2 C 1.669547 1.152529 0.494749 0
M  V30 3 C 2.309100 -0.105539 0.912313 0
M  V30 4 C 3.646419 -0.351885 1.168855 0
M  V30 5 C 3.983228 -1.633358 1.548820 0
M  V30 6 N 5.311382 -1.994321 1.833676 0 CHG=1 VAL=4
M  V30 7 O 6.310852 -1.251702 1.785757 0
M  V30 8 O 5.600636 -3.283172 2.208681 0 CHG=-1 VAL=1
M  V30 9 C 3.035991 -2.621699 1.667826 0
M  V30 10 C 1.705108 -2.304472 1.393882 0
M  V30 11 C 1.298352 -1.042353 1.008836 0
M  V30 12 N 0.050508 -0.442964 0.673897 0
M  V30 13 C 0.246568 0.851626 0.367378 0
M  V30 14 N -0.847453 1.580082 0.021241 0
M  V30 15 C -2.068096 1.024323 -0.011049 0
M  V30 16 N -3.184980 1.730173 -0.354638 0
M  V30 17 C -4.390179 1.113517 -0.368948 0
M  V30 18 C -4.616249 -0.211185 -0.058968 0
M  V30 19 C -3.484550 -0.952944 0.296042 0
M  V30 20 C -2.271510 -0.303130 0.302909 0
M  V30 21 C -1.157982 -1.060676 0.659382 0
M  V30 22 O -1.292550 -2.276329 0.954358 0
M  V30 23 H 4.386392 0.431966 1.072844 0
M  V30 24 H 3.251653 -3.634626 1.960878 0
M  V30 25 H 0.951560 -3.073632 1.484139 0
M  V30 26 H -5.220897 1.747214 -0.652619 0
M  V30 27 H -5.603731 -0.639161 -0.090681 0
M  V30 28 H -3.578004 -1.992985 0.551534 0
M  V30 END ATOM
M  V30 BEGIN BOND
M  V30 1 2 1 2
M  V30 2 1 2 3
M  V30 3 2 3 4
M  V30 4 1 4 5
M  V30 5 1 5 6
M  V30 6 2 6 7
M  V30 7 1 6 8
M  V30 8 2 5 9
M  V30 9 1 9 10
M  V30 10 2 10 11
M  V30 11 1 11 12
M  V30 12 1 12 13
M  V30 13 2 13 14
M  V30 14 1 14 15
M  V30 15 2 15 16
M  V30 16 1 16 17
M  V30 17 2 17 18
M  V30 18 1 18 19
M  V30 19 2 19 20
M  V30 20 1 20 21
M  V30 21 2 21 22
M  V30 22 1 13 2
M  V30 23 1 20 15
M  V30 24 1 11 3
M  V30 25 1 21 12
M  V30 26 1 4 23
M  V30 27 1 9 24
M  V30 28 1 10 25
M  V30 29 1 17 26
M  V30 30 1 18 27
M  V30 31 1 19 28
M  V30 END BOND
M  V30 END CTAB
M  END
>  <Dataset>  (309) 
ChEMBL_Kinases

>  <Ligand_Instance>  (309) 
nan

>  <PDB_ID>  (309) 
nan

>  <Standardized_SMILES>  (309) 
O=C1c2cc([N+](=O)[O-])ccc2-n2c1nc1ncccc1c2=O

>  <Name>  (309) 
nan

>  <Pocket>  (309) 
nan

>  <ATP_Site>  (309) 
nan

>  <Peripheral>  (309) 
nan

>  <Num_H_Atoms_ProtBoundConf>  (309) 
nan

>  <Num_Resolved_Atoms>  (309) 
nan

>  <Num_Not_Resolved_Atoms>  (309) 
nan

$$$$
CHEMBL365688
     RDKit          3D

  0  0  0  0  0  0  0  0  0  0999 V3000
M  V30 BEGIN CTAB
M  V30 COUNTS 72 76 0 0 0
M  V30 BEGIN ATOM
M  V30 1 C -2.001040 -2.766573 4.300810 0
M  V30 2 C -1.868352 -3.090422 2.851582 0
M  V30 3 C -2.985117 -3.485402 2.151233 0
M  V30 4 C -2.789494 -3.770308 0.809785 0
M  V30 5 C -1.557826 -3.669622 0.199523 0
M  V30 6 N -1.666181 -4.021625 -1.195423 0
M  V30 7 C -1.919888 -2.831011 -1.926110 0
M  V30 8 O -1.987940 -1.779652 -1.220199 0
M  V30 9 C -2.096236 -2.740576 -3.367469 0
M  V30 10 C -2.299913 -1.487957 -3.913880 0
M  V30 11 C -2.479808 -1.313242 -5.256176 0
M  V30 12 N -2.699077 -0.043279 -5.879729 0
M  V30 13 C -2.914321 0.073066 -7.307643 0
M  V30 14 C -3.718956 1.364189 -7.496512 0
M  V30 15 O -2.861991 2.404043 -7.246979 0
M  V30 16 C -2.278007 2.370313 -6.004139 0
M  V30 17 C -2.722486 1.200855 -5.160821 0
M  V30 18 C -2.452202 -2.432524 -6.061104 0
M  V30 19 C -2.248844 -3.714043 -5.546549 0
M  V30 20 C -2.217157 -4.938206 -6.371435 0
M  V30 21 F -2.426484 -4.579972 -7.697532 0
M  V30 22 F -3.293225 -5.725040 -6.002081 0
M  V30 23 F -1.025632 -5.610518 -6.321875 0
M  V30 24 C -2.069384 -3.852989 -4.174694 0
M  V30 25 C -0.453676 -3.277319 0.899011 0
M  V30 26 C -0.632947 -2.985330 2.255111 0
M  V30 27 N 0.549402 -2.563251 2.959733 0
M  V30 28 C 0.510332 -1.148755 2.807291 0
M  V30 29 O -0.522640 -0.806105 2.131144 0
M  V30 30 C 1.419160 -0.113268 3.279292 0
M  V30 31 C 1.057906 1.177631 2.952477 0
M  V30 32 C 1.912184 2.199814 3.393502 0
M  V30 33 C 3.082040 1.995194 4.128189 0
M  V30 34 O 3.735315 3.162692 4.433512 0
M  V30 35 C 4.926095 3.175165 5.173452 0
M  V30 36 C 4.670026 2.631389 6.524620 0
M  V30 37 C 3.545226 2.226115 7.203951 0
M  V30 38 C 3.549126 1.752771 8.494737 0
M  V30 39 C 4.789366 1.692722 9.124737 0
M  V30 40 C 5.950629 2.099222 8.462453 0
M  V30 41 N 5.854320 2.549595 7.198794 0
M  V30 42 C 3.355273 0.668505 4.402491 0
M  V30 43 C 2.560830 -0.371961 3.999968 0
M  V30 44 H -1.106078 -2.308866 4.725086 0
M  V30 45 H -2.918563 -2.133938 4.468481 0
M  V30 46 H -2.199558 -3.752435 4.810775 0
M  V30 47 H -3.926659 -3.546913 2.685649 0
M  V30 48 H -3.738322 -4.073437 0.339257 0
M  V30 49 H -1.602804 -4.906282 -1.743052 0
M  V30 50 H -2.318714 -0.605214 -3.264149 0
M  V30 51 H -1.977960 0.189251 -7.849268 0
M  V30 52 H -3.545964 -0.763878 -7.673293 0
M  V30 53 H -4.105525 1.455936 -8.523279 0
M  V30 54 H -4.493417 1.345218 -6.712680 0
M  V30 55 H -2.556821 3.303474 -5.472899 0
M  V30 56 H -1.168982 2.385136 -6.144706 0
M  V30 57 H -3.753387 1.459771 -4.780717 0
M  V30 58 H -2.056808 1.181172 -4.271115 0
M  V30 59 H -2.572447 -2.454573 -7.121653 0
M  V30 60 H -1.908546 -4.859032 -3.757715 0
M  V30 61 H 0.437705 -3.238626 0.328285 0
M  V30 62 H 1.357456 -2.908536 3.500670 0
M  V30 63 H 0.174566 1.441749 2.388877 0
M  V30 64 H 1.576818 3.203376 3.112500 0
M  V30 65 H 5.706675 2.510342 4.696894 0
M  V30 66 H 5.366900 4.199119 5.251287 0
M  V30 67 H 2.653910 2.336692 6.593381 0
M  V30 68 H 2.573220 1.482220 8.876648 0
M  V30 69 H 4.732911 1.307091 10.150624 0
M  V30 70 H 6.860151 2.010739 9.052453 0
M  V30 71 H 4.286987 0.568118 4.975035 0
M  V30 72 H 2.827118 -1.370136 4.242209 0
M  V30 END ATOM
M  V30 BEGIN BOND
M  V30 1 1 1 2
M  V30 2 2 2 3
M  V30 3 1 3 4
M  V30 4 2 4 5
M  V30 5 1 5 6
M  V30 6 1 6 7
M  V30 7 2 7 8
M  V30 8 1 7 9
M  V30 9 2 9 10
M  V30 10 1 10 11
M  V30 11 1 11 12
M  V30 12 1 12 13
M  V30 13 1 13 14
M  V30 14 1 14 15
M  V30 15 1 15 16
M  V30 16 1 16 17
M  V30 17 2 11 18
M  V30 18 1 18 19
M  V30 19 1 19 20
M  V30 20 1 20 21
M  V30 21 1 20 22
M  V30 22 1 20 23
M  V30 23 2 19 24
M  V30 24 1 5 25
M  V30 25 2 25 26
M  V30 26 1 26 27
M  V30 27 1 27 28
M  V30 28 2 28 29
M  V30 29 1 28 30
M  V30 30 2 30 31
M  V30 31 1 31 32
M  V30 32 2 32 33
M  V30 33 1 33 34
M  V30 34 1 34 35
M  V30 35 1 35 36
M  V30 36 2 36 37
M  V30 37 1 37 38
M  V30 38 2 38 39
M  V30 39 1 39 40
M  V30 40 2 40 41
M  V30 41 1 33 42
M  V30 42 2 42 43
M  V30 43 1 26 2
M  V30 44 1 43 30
M  V30 45 1 24 9
M  V30 46 1 41 36
M  V30 47 1 17 12
M  V30 48 1 1 44
M  V30 49 1 1 45
M  V30 50 1 1 46
M  V30 51 1 3 47
M  V30 52 1 4 48
M  V30 53 1 6 49
M  V30 54 1 10 50
M  V30 55 1 13 51
M  V30 56 1 13 52
M  V30 57 1 14 53
M  V30 58 1 14 54
M  V30 59 1 16 55
M  V30 60 1 16 56
M  V30 61 1 17 57
M  V30 62 1 17 58
M  V30 63 1 18 59
M  V30 64 1 24 60
M  V30 65 1 25 61
M  V30 66 1 27 62
M  V30 67 1 31 63
M  V30 68 1 32 64
M  V30 69 1 35 65
M  V30 70 1 35 66
M  V30 71 1 37 67
M  V30 72 1 38 68
M  V30 73 1 39 69
M  V30 74 1 40 70
M  V30 75 1 42 71
M  V30 76 1 43 72
M  V30 END BOND
M  V30 END CTAB
M  END
>  <Dataset>  (310) 
ChEMBL_Kinases

>  <Ligand_Instance>  (310) 
nan

>  <PDB_ID>  (310) 
nan

>  <Standardized_SMILES>  (310) 
Cc1ccc(NC(=O)c2cc(N3CCOCC3)cc(C(F)(F)F)c2)cc1NC(=O)c1ccc(OCc2ccccn2)cc1

>  <Name>  (310) 
nan

>  <Pocket>  (310) 
nan

>  <ATP_Site>  (310) 
nan

>  <Peripheral>  (310) 
nan

>  <Num_H_Atoms_ProtBoundConf>  (310) 
nan

>  <Num_Resolved_Atoms>  (310) 
nan

>  <Num_Not_Resolved_Atoms>  (310) 
nan

$$$$
CHEMBL365663
     RDKit          3D

  0  0  0  0  0  0  0  0  0  0999 V3000
M  V30 BEGIN CTAB
M  V30 COUNTS 34 37 0 0 0
M  V30 BEGIN ATOM
M  V30 1 N -1.186065 -4.471659 4.280821 0
M  V30 2 C -0.904743 -3.310658 3.383492 0
M  V30 3 N -0.026497 -3.226430 2.690718 0
M  V30 4 C 0.342478 -2.257571 1.843509 0
M  V30 5 C 1.466521 -2.115636 0.937058 0
M  V30 6 C 2.735489 -2.109834 1.527273 0
M  V30 7 C 3.889699 -1.982010 0.783624 0
M  V30 8 C 3.748478 -1.858274 -0.582435 0
M  V30 9 C 2.524030 -1.857733 -1.216026 0
M  V30 10 Cl 2.396136 -1.697266 -2.958001 0
M  V30 11 C 1.397571 -1.988227 -0.430484 0
M  V30 12 C -0.570874 -1.156608 1.855866 0
M  V30 13 C -0.625867 0.103809 1.145190 0
M  V30 14 C 0.283108 1.144503 1.190969 0
M  V30 15 C 0.042351 2.270486 0.431699 0
M  V30 16 C -1.083899 2.356073 -0.357963 0
M  V30 17 N -1.341217 3.444223 -1.107165 0
M  V30 18 C -2.443134 3.541929 -1.886365 0
M  V30 19 C -3.371421 2.507534 -1.948247 0
M  V30 20 C -3.117031 1.388340 -1.184480 0
M  V30 21 C -1.990509 1.298686 -0.393334 0
M  V30 22 N -1.724911 0.223883 0.355028 0
M  V30 23 S -1.858481 -1.686125 3.113474 0
M  V30 24 H -1.081430 -4.336083 5.303175 0
M  V30 25 H -1.472743 -5.337567 3.739386 0
M  V30 26 H 2.881862 -2.205516 2.599140 0
M  V30 27 H 4.867256 -1.980366 1.268763 0
M  V30 28 H 4.656228 -1.758153 -1.162385 0
M  V30 29 H 0.401608 -1.995421 -0.867752 0
M  V30 30 H 1.129657 0.978676 1.838692 0
M  V30 31 H 0.756955 3.068338 0.478405 0
M  V30 32 H -2.643821 4.418830 -2.485603 0
M  V30 33 H -4.273129 2.506322 -2.542859 0
M  V30 34 H -3.805264 0.536022 -1.184943 0
M  V30 END ATOM
M  V30 BEGIN BOND
M  V30 1 1 1 2
M  V30 2 2 2 3
M  V30 3 1 3 4
M  V30 4 1 4 5
M  V30 5 2 5 6
M  V30 6 1 6 7
M  V30 7 2 7 8
M  V30 8 1 8 9
M  V30 9 1 9 10
M  V30 10 2 9 11
M  V30 11 2 4 12
M  V30 12 1 12 13
M  V30 13 2 13 14
M  V30 14 1 14 15
M  V30 15 2 15 16
M  V30 16 1 16 17
M  V30 17 2 17 18
M  V30 18 1 18 19
M  V30 19 2 19 20
M  V30 20 1 20 21
M  V30 21 2 21 22
M  V30 22 1 12 23
M  V30 23 1 23 2
M  V30 24 1 11 5
M  V30 25 1 22 13
M  V30 26 1 21 16
M  V30 27 1 1 24
M  V30 28 1 1 25
M  V30 29 1 6 26
M  V30 30 1 7 27
M  V30 31 1 8 28
M  V30 32 1 11 29
M  V30 33 1 14 30
M  V30 34 1 15 31
M  V30 35 1 18 32
M  V30 36 1 19 33
M  V30 37 1 20 34
M  V30 END BOND
M  V30 END CTAB
M  END
>  <Dataset>  (311) 
ChEMBL_Kinases

>  <Ligand_Instance>  (311) 
nan

>  <PDB_ID>  (311) 
nan

>  <Standardized_SMILES>  (311) 
Nc1nc(-c2cccc(Cl)c2)c(-c2ccc3ncccc3n2)s1

>  <Name>  (311) 
GW780159X

>  <Pocket>  (311) 
nan

>  <ATP_Site>  (311) 
nan

>  <Peripheral>  (311) 
nan

>  <Num_H_Atoms_ProtBoundConf>  (311) 
nan

>  <Num_Resolved_Atoms>  (311) 
nan

>  <Num_Not_Resolved_Atoms>  (311) 
nan

$$$$
CHEMBL365614
     RDKit          3D

  0  0  0  0  0  0  0  0  0  0999 V3000
M  V30 BEGIN CTAB
M  V30 COUNTS 73 77 0 0 0
M  V30 BEGIN ATOM
M  V30 1 C 3.681333 -2.203878 3.314157 0
M  V30 2 C 2.822062 -1.245003 2.574132 0
M  V30 3 C 3.345887 -0.568521 1.500860 0
M  V30 4 C 2.564701 0.321663 0.815695 0
M  V30 5 C 1.263749 0.609828 1.112282 0
M  V30 6 N 0.412120 1.518647 0.438494 0
M  V30 7 C 0.666035 2.332781 -0.667240 0
M  V30 8 O 1.803668 2.301998 -1.191543 0
M  V30 9 C -0.286662 3.238968 -1.288601 0
M  V30 10 C 0.120264 3.988801 -2.378516 0
M  V30 11 C -0.752196 4.877169 -3.016020 0
M  V30 12 N -2.009371 5.009595 -2.567335 0
M  V30 13 C -2.459168 4.302459 -1.507936 0
M  V30 14 N -3.797170 4.472543 -1.062483 0
M  V30 15 C -4.471851 3.800990 0.003708 0
M  V30 16 C -5.747401 3.156505 -0.515028 0
M  V30 17 O -5.972474 3.425575 -1.851436 0
M  V30 18 C -5.947552 4.779960 -2.139099 0
M  V30 19 C -4.658083 5.434642 -1.720743 0
M  V30 20 C -1.590069 3.438340 -0.897409 0
M  V30 21 C 0.761487 -0.080657 2.191822 0
M  V30 22 C 1.513725 -0.984967 2.907857 0
M  V30 23 N 0.912123 -1.646662 4.006392 0
M  V30 24 C 0.699889 -3.045616 4.191621 0
M  V30 25 C 0.144797 -3.706159 5.258042 0
M  V30 26 C 0.039420 -5.079467 5.190959 0
M  V30 27 N 0.476718 -5.756356 4.091979 0
M  V30 28 C 1.025464 -5.099309 3.038275 0
M  V30 29 O 1.449337 -5.818798 1.958167 0
M  V30 30 C 2.031284 -5.303890 0.801670 0
M  V30 31 C 1.147474 -4.326426 0.052294 0
M  V30 32 C -0.153677 -4.964483 -0.389387 0
M  V30 33 C -0.549655 -4.451038 -1.765104 0
M  V30 34 C 0.561851 -4.883653 -2.695320 0
M  V30 35 N 1.756808 -4.214613 -2.351174 0
M  V30 36 C 2.955286 -4.766565 -2.901823 0
M  V30 37 C 1.861136 -3.641270 -1.061639 0
M  V30 38 N 1.114808 -3.761497 3.133050 0
M  V30 39 H 3.798473 -3.120411 2.700748 0
M  V30 40 H 3.274228 -2.453208 4.322231 0
M  V30 41 H 4.674169 -1.703509 3.474764 0
M  V30 42 H 4.379908 -0.758459 1.218503 0
M  V30 43 H 3.036150 0.810291 -0.005888 0
M  V30 44 H -0.568952 1.639835 0.777776 0
M  V30 45 H 1.118245 3.941568 -2.803775 0
M  V30 46 H -0.412402 5.457545 -3.870958 0
M  V30 47 H -4.800073 4.589016 0.731448 0
M  V30 48 H -3.871710 3.094257 0.576180 0
M  V30 49 H -6.634473 3.403633 0.126636 0
M  V30 50 H -5.592839 2.041950 -0.431888 0
M  V30 51 H -6.835327 5.330966 -1.741296 0
M  V30 52 H -6.042091 4.864316 -3.259410 0
M  V30 53 H -4.900435 6.198314 -0.929958 0
M  V30 54 H -4.128336 5.930441 -2.568956 0
M  V30 55 H -1.947960 2.872705 -0.050750 0
M  V30 56 H -0.269658 0.086041 2.501686 0
M  V30 57 H 0.584261 -1.023618 4.775819 0
M  V30 58 H -0.159565 -3.053127 6.061811 0
M  V30 59 H -0.406117 -5.538800 6.061687 0
M  V30 60 H 2.435455 -6.072747 0.125283 0
M  V30 61 H 2.926545 -4.699699 1.121675 0
M  V30 62 H 0.848441 -3.550202 0.792844 0
M  V30 63 H -1.001331 -4.744795 0.290054 0
M  V30 64 H -0.063421 -6.074208 -0.435697 0
M  V30 65 H -1.537836 -4.839025 -2.025932 0
M  V30 66 H -0.543548 -3.343228 -1.722379 0
M  V30 67 H 0.247673 -4.527325 -3.712823 0
M  V30 68 H 0.623436 -5.986549 -2.784952 0
M  V30 69 H 2.801476 -5.735674 -3.420922 0
M  V30 70 H 3.700455 -4.862755 -2.074740 0
M  V30 71 H 3.389784 -4.028379 -3.615137 0
M  V30 72 H 1.454282 -2.593170 -1.136784 0
M  V30 73 H 2.927725 -3.519251 -0.717392 0
M  V30 END ATOM
M  V30 BEGIN BOND
M  V30 1 1 1 2
M  V30 2 2 2 3
M  V30 3 1 3 4
M  V30 4 2 4 5
M  V30 5 1 5 6
M  V30 6 1 6 7
M  V30 7 2 7 8
M  V30 8 1 7 9
M  V30 9 2 9 10
M  V30 10 1 10 11
M  V30 11 2 11 12
M  V30 12 1 12 13
M  V30 13 1 13 14
M  V30 14 1 14 15
M  V30 15 1 15 16
M  V30 16 1 16 17
M  V30 17 1 17 18
M  V30 18 1 18 19
M  V30 19 2 13 20
M  V30 20 1 5 21
M  V30 21 2 21 22
M  V30 22 1 22 23
M  V30 23 1 23 24
M  V30 24 2 24 25
M  V30 25 1 25 26
M  V30 26 2 26 27
M  V30 27 1 27 28
M  V30 28 1 28 29
M  V30 29 1 29 30
M  V30 30 1 30 31
M  V30 31 1 31 32
M  V30 32 1 32 33
M  V30 33 1 33 34
M  V30 34 1 34 35
M  V30 35 1 35 36
M  V30 36 1 35 37
M  V30 37 2 28 38
M  V30 38 1 22 2
M  V30 39 1 38 24
M  V30 40 1 20 9
M  V30 41 1 37 31
M  V30 42 1 19 14
M  V30 43 1 1 39
M  V30 44 1 1 40
M  V30 45 1 1 41
M  V30 46 1 3 42
M  V30 47 1 4 43
M  V30 48 1 6 44
M  V30 49 1 10 45
M  V30 50 1 11 46
M  V30 51 1 15 47
M  V30 52 1 15 48
M  V30 53 1 16 49
M  V30 54 1 16 50
M  V30 55 1 18 51
M  V30 56 1 18 52
M  V30 57 1 19 53
M  V30 58 1 19 54
M  V30 59 1 20 55
M  V30 60 1 21 56
M  V30 61 1 23 57
M  V30 62 1 25 58
M  V30 63 1 26 59
M  V30 64 1 30 60
M  V30 65 1 30 61
M  V30 66 1 31 62
M  V30 67 1 32 63
M  V30 68 1 32 64
M  V30 69 1 33 65
M  V30 70 1 33 66
M  V30 71 1 34 67
M  V30 72 1 34 68
M  V30 73 1 36 69
M  V30 74 1 36 70
M  V30 75 1 36 71
M  V30 76 1 37 72
M  V30 77 1 37 73
M  V30 END BOND
M  V30 END CTAB
M  END
>  <Dataset>  (312) 
ChEMBL_Kinases

>  <Ligand_Instance>  (312) 
nan

>  <PDB_ID>  (312) 
nan

>  <Standardized_SMILES>  (312) 
Cc1ccc(NC(=O)c2ccnc(N3CCOCC3)c2)cc1Nc1ccnc(OCC2CCCN(C)C2)n1

>  <Name>  (312) 
nan

>  <Pocket>  (312) 
nan

>  <ATP_Site>  (312) 
nan

>  <Peripheral>  (312) 
nan

>  <Num_H_Atoms_ProtBoundConf>  (312) 
nan

>  <Num_Resolved_Atoms>  (312) 
nan

>  <Num_Not_Resolved_Atoms>  (312) 
nan

$$$$
CHEMBL3655581
     RDKit          3D

  0  0  0  0  0  0  0  0  0  0999 V3000
M  V30 BEGIN CTAB
M  V30 COUNTS 64 67 0 0 0
M  V30 BEGIN ATOM
M  V30 1 C 5.008171 0.068614 2.348408 0
M  V30 2 N 4.514727 1.216082 1.663124 0
M  V30 3 C 4.263217 2.275102 2.605044 0
M  V30 4 S 5.404513 1.691026 0.281151 0
M  V30 5 O 5.229919 3.177016 0.107652 0
M  V30 6 O 6.845359 1.345798 0.493880 0
M  V30 7 N 4.771854 0.901061 -1.152944 0
M  V30 8 C 3.401131 1.368241 -1.256911 0 CFG=1
M  V30 9 C 3.138486 2.104962 -2.526039 0
M  V30 10 C 1.730229 2.644892 -2.599460 0
M  V30 11 C 0.776460 1.784305 -1.777431 0 CFG=2
M  V30 12 N 0.627120 2.229110 -0.425918 0
M  V30 13 C -0.125469 1.709669 0.673978 0
M  V30 14 N -0.107820 2.314950 1.871441 0
M  V30 15 C -0.836789 1.782326 2.862139 0
M  V30 16 C -1.546175 0.649902 2.561723 0
M  V30 17 C -1.610124 -0.014144 1.375815 0
M  V30 18 C -2.312842 -1.190181 0.987453 0
M  V30 19 C -2.199339 -1.673289 -0.320825 0
M  V30 20 N -2.937444 -2.783599 -0.469548 0
M  V30 21 C -3.537428 -3.059438 0.685921 0
M  V30 22 C -4.389773 -4.057020 1.097865 0
M  V30 23 C -4.772718 -5.083677 0.110579 0
M  V30 24 C -5.623611 -6.174119 0.715043 0
M  V30 25 C -5.438476 -4.440518 -1.078563 0
M  V30 26 O -3.586688 -5.701703 -0.298632 0
M  V30 27 C -4.882191 -4.119434 2.383644 0
M  V30 28 C -4.454383 -3.099512 3.235567 0
M  V30 29 C -3.602065 -2.131177 2.764629 0
M  V30 30 N -3.139456 -2.093306 1.514648 0
M  V30 31 N -0.847789 0.601269 0.459497 0
M  V30 32 C 1.255147 0.382469 -1.912140 0
M  V30 33 C 2.489910 0.180954 -1.079112 0
M  V30 34 H 5.503201 0.420974 3.300277 0
M  V30 35 H 5.629860 -0.609520 1.764461 0
M  V30 36 H 4.095791 -0.475474 2.736530 0
M  V30 37 H 3.657971 1.793212 3.427627 0
M  V30 38 H 3.585177 3.031555 2.158722 0
M  V30 39 H 5.191191 2.681059 3.011095 0
M  V30 40 H 4.761111 -0.102911 -0.914285 0
M  V30 41 H 3.294773 2.082849 -0.384776 0
M  V30 42 H 3.824224 2.973498 -2.552764 0
M  V30 43 H 3.420314 1.508009 -3.435611 0
M  V30 44 H 1.731735 3.680335 -2.229799 0
M  V30 45 H 1.398536 2.550717 -3.648600 0
M  V30 46 H -0.251400 1.811984 -2.257112 0
M  V30 47 H 1.177911 3.115360 -0.212854 0
M  V30 48 H -0.843719 2.241553 3.826871 0
M  V30 49 H -2.103069 0.280990 3.397959 0
M  V30 50 H -1.658655 -1.355394 -1.216360 0
M  V30 51 H -6.619176 -5.717807 0.947853 0
M  V30 52 H -5.820989 -6.962976 -0.041846 0
M  V30 53 H -5.218723 -6.579608 1.638047 0
M  V30 54 H -4.703253 -3.980418 -1.770263 0
M  V30 55 H -6.090734 -3.579653 -0.751685 0
M  V30 56 H -6.155176 -5.125854 -1.590935 0
M  V30 57 H -3.549202 -5.807482 -1.288841 0
M  V30 58 H -5.556015 -4.894124 2.735669 0
M  V30 59 H -4.840403 -3.147013 4.245501 0
M  V30 60 H -3.351610 -1.423865 3.492313 0
M  V30 61 H 1.503908 0.214126 -3.001806 0
M  V30 62 H 0.471856 -0.377314 -1.706269 0
M  V30 63 H 2.952232 -0.759918 -1.451346 0
M  V30 64 H 2.267137 0.121101 0.004264 0
M  V30 END ATOM
M  V30 BEGIN BOND
M  V30 1 1 1 2
M  V30 2 1 2 3
M  V30 3 1 2 4
M  V30 4 2 4 5
M  V30 5 2 4 6
M  V30 6 1 4 7
M  V30 7 1 7 8
M  V30 8 1 8 9
M  V30 9 1 9 10
M  V30 10 1 10 11
M  V30 11 1 11 12
M  V30 12 1 12 13
M  V30 13 2 13 14
M  V30 14 1 14 15
M  V30 15 2 15 16
M  V30 16 1 16 17
M  V30 17 1 17 18
M  V30 18 2 18 19
M  V30 19 1 19 20
M  V30 20 2 20 21
M  V30 21 1 21 22
M  V30 22 1 22 23
M  V30 23 1 23 24
M  V30 24 1 23 25
M  V30 25 1 23 26
M  V30 26 2 22 27
M  V30 27 1 27 28
M  V30 28 2 28 29
M  V30 29 1 29 30
M  V30 30 2 17 31
M  V30 31 1 11 32
M  V30 32 1 32 33
M  V30 33 1 33 8
M  V30 34 1 31 13
M  V30 35 1 30 18
M  V30 36 1 30 21
M  V30 37 1 1 34
M  V30 38 1 1 35
M  V30 39 1 1 36
M  V30 40 1 3 37
M  V30 41 1 3 38
M  V30 42 1 3 39
M  V30 43 1 7 40
M  V30 44 1 8 41 CFG=1
M  V30 45 1 9 42
M  V30 46 1 9 43
M  V30 47 1 10 44
M  V30 48 1 10 45
M  V30 49 1 11 46 CFG=3
M  V30 50 1 12 47
M  V30 51 1 15 48
M  V30 52 1 16 49
M  V30 53 1 19 50
M  V30 54 1 24 51
M  V30 55 1 24 52
M  V30 56 1 24 53
M  V30 57 1 25 54
M  V30 58 1 25 55
M  V30 59 1 25 56
M  V30 60 1 26 57
M  V30 61 1 27 58
M  V30 62 1 28 59
M  V30 63 1 29 60
M  V30 64 1 32 61
M  V30 65 1 32 62
M  V30 66 1 33 63
M  V30 67 1 33 64
M  V30 END BOND
M  V30 END CTAB
M  END
>  <Dataset>  (313) 
ChEMBL_Kinases

>  <Ligand_Instance>  (313) 
nan

>  <PDB_ID>  (313) 
nan

>  <Standardized_SMILES>  (313) 
CN(C)S(=O)(=O)N[C@H]1CC[C@H](Nc2nccc(-c3cnc4c(C(C)(C)O)cccn34)n2)CC1

>  <Name>  (313) 
nan

>  <Pocket>  (313) 
nan

>  <ATP_Site>  (313) 
nan

>  <Peripheral>  (313) 
nan

>  <Num_H_Atoms_ProtBoundConf>  (313) 
nan

>  <Num_Resolved_Atoms>  (313) 
nan

>  <Num_Not_Resolved_Atoms>  (313) 
nan

$$$$
CHEMBL3655580
     RDKit          3D

  0  0  0  0  0  0  0  0  0  0999 V3000
M  V30 BEGIN CTAB
M  V30 COUNTS 59 62 0 0 0
M  V30 BEGIN ATOM
M  V30 1 C 1.836447 -1.896342 5.415131 0
M  V30 2 C 3.125902 -2.171268 4.635950 0
M  V30 3 C 2.990731 -3.430470 3.853954 0
M  V30 4 O 4.162116 -2.359687 5.549045 0
M  V30 5 C 3.447336 -0.964626 3.837900 0
M  V30 6 C 4.598548 -0.231810 4.047007 0
M  V30 7 C 4.759769 0.865884 3.225751 0
M  V30 8 C 3.815763 1.174436 2.276910 0
M  V30 9 N 2.711078 0.444880 2.098798 0
M  V30 10 C 1.759441 0.690049 1.198531 0
M  V30 11 C 1.442294 1.631314 0.163209 0
M  V30 12 C 2.094444 2.731775 -0.300821 0
M  V30 13 C 1.723181 3.590082 -1.302516 0
M  V30 14 N 0.539774 3.278212 -1.897089 0
M  V30 15 C -0.172205 2.208879 -1.503159 0
M  V30 16 N -1.409189 1.892816 -2.129738 0
M  V30 17 C -2.263079 0.765944 -1.797001 0 CFG=1
M  V30 18 C -3.505096 0.718256 -2.620401 0
M  V30 19 C -4.118075 -0.597817 -2.877225 0
M  V30 20 C -3.312080 -1.801946 -2.534783 0 CFG=2
M  V30 21 N -3.427011 -2.082813 -1.103931 0
M  V30 22 S -4.116289 -3.659112 -0.869760 0
M  V30 23 C -3.084430 -4.924519 -1.572861 0
M  V30 24 O -5.478701 -3.730481 -1.486847 0
M  V30 25 O -4.212274 -3.893849 0.607495 0
M  V30 26 C -1.868158 -1.477134 -2.856505 0
M  V30 27 C -1.434333 -0.479132 -1.815253 0
M  V30 28 N 0.297159 1.451493 -0.516172 0
M  V30 29 C 0.892656 -0.368594 1.474307 0
M  V30 30 N 1.381413 -1.118758 2.470241 0
M  V30 31 C 2.529714 -0.614558 2.872723 0
M  V30 32 H 1.018003 -1.995829 4.672880 0
M  V30 33 H 1.681938 -2.666217 6.193329 0
M  V30 34 H 1.813261 -0.860025 5.791006 0
M  V30 35 H 3.940710 -4.016058 3.815693 0
M  V30 36 H 2.279539 -4.087477 4.419410 0
M  V30 37 H 2.533765 -3.295228 2.854945 0
M  V30 38 H 4.015471 -1.707875 6.272672 0
M  V30 39 H 5.297688 -0.537116 4.815377 0
M  V30 40 H 5.680255 1.444211 3.399466 0
M  V30 41 H 4.066854 2.042969 1.716610 0
M  V30 42 H 3.022783 2.997239 0.148049 0
M  V30 43 H 2.322473 4.436539 -1.588408 0
M  V30 44 H -1.754030 2.515988 -2.903425 0
M  V30 45 H -2.575953 0.923701 -0.741721 0
M  V30 46 H -3.225892 1.176333 -3.615943 0
M  V30 47 H -4.285715 1.410878 -2.239176 0
M  V30 48 H -5.085542 -0.693959 -2.301220 0
M  V30 49 H -4.441461 -0.692518 -3.940673 0
M  V30 50 H -3.691058 -2.659429 -3.133526 0
M  V30 51 H -4.066624 -1.404477 -0.660158 0
M  V30 52 H -3.174815 -5.819656 -0.949660 0
M  V30 53 H -3.413832 -5.110690 -2.625728 0
M  V30 54 H -2.047487 -4.558605 -1.519908 0
M  V30 55 H -1.278255 -2.388138 -2.731083 0
M  V30 56 H -1.777319 -1.106808 -3.884816 0
M  V30 57 H -0.370482 -0.252641 -2.032070 0
M  V30 58 H -1.451940 -1.022835 -0.848649 0
M  V30 59 H -0.070312 -0.728320 1.083378 0
M  V30 END ATOM
M  V30 BEGIN BOND
M  V30 1 1 1 2
M  V30 2 1 2 3
M  V30 3 1 2 4
M  V30 4 1 2 5
M  V30 5 2 5 6
M  V30 6 1 6 7
M  V30 7 2 7 8
M  V30 8 1 8 9
M  V30 9 1 9 10
M  V30 10 1 10 11
M  V30 11 2 11 12
M  V30 12 1 12 13
M  V30 13 2 13 14
M  V30 14 1 14 15
M  V30 15 1 15 16
M  V30 16 1 16 17
M  V30 17 1 17 18
M  V30 18 1 18 19
M  V30 19 1 19 20
M  V30 20 1 20 21
M  V30 21 1 21 22
M  V30 22 1 22 23
M  V30 23 2 22 24
M  V30 24 2 22 25
M  V30 25 1 20 26
M  V30 26 1 26 27
M  V30 27 2 15 28
M  V30 28 2 10 29
M  V30 29 1 29 30
M  V30 30 2 30 31
M  V30 31 1 31 5
M  V30 32 1 31 9
M  V30 33 1 28 11
M  V30 34 1 27 17
M  V30 35 1 1 32
M  V30 36 1 1 33
M  V30 37 1 1 34
M  V30 38 1 3 35
M  V30 39 1 3 36
M  V30 40 1 3 37
M  V30 41 1 4 38
M  V30 42 1 6 39
M  V30 43 1 7 40
M  V30 44 1 8 41
M  V30 45 1 12 42
M  V30 46 1 13 43
M  V30 47 1 16 44
M  V30 48 1 17 45 CFG=1
M  V30 49 1 18 46
M  V30 50 1 18 47
M  V30 51 1 19 48
M  V30 52 1 19 49
M  V30 53 1 20 50 CFG=3
M  V30 54 1 21 51
M  V30 55 1 23 52
M  V30 56 1 23 53
M  V30 57 1 23 54
M  V30 58 1 26 55
M  V30 59 1 26 56
M  V30 60 1 27 57
M  V30 61 1 27 58
M  V30 62 1 29 59
M  V30 END BOND
M  V30 END CTAB
M  END
>  <Dataset>  (314) 
ChEMBL_Kinases

>  <Ligand_Instance>  (314) 
nan

>  <PDB_ID>  (314) 
nan

>  <Standardized_SMILES>  (314) 
CC(C)(O)c1cccn2c(-c3ccnc(N[C@H]4CC[C@H](NS(C)(=O)=O)CC4)n3)cnc12

>  <Name>  (314) 
nan

>  <Pocket>  (314) 
nan

>  <ATP_Site>  (314) 
nan

>  <Peripheral>  (314) 
nan

>  <Num_H_Atoms_ProtBoundConf>  (314) 
nan

>  <Num_Resolved_Atoms>  (314) 
nan

>  <Num_Not_Resolved_Atoms>  (314) 
nan

$$$$
CHEMBL3655579
     RDKit          3D

  0  0  0  0  0  0  0  0  0  0999 V3000
M  V30 BEGIN CTAB
M  V30 COUNTS 69 73 0 0 0
M  V30 BEGIN ATOM
M  V30 1 C 2.175994 0.996390 4.908810 0
M  V30 2 C 3.367136 1.398400 4.086115 0
M  V30 3 C 4.431948 1.906296 5.034990 0
M  V30 4 O 3.869778 0.268077 3.416766 0
M  V30 5 C 2.989208 2.439468 3.096262 0
M  V30 6 C 3.564070 3.684342 3.091986 0
M  V30 7 C 3.106556 4.549432 2.107568 0
M  V30 8 C 2.140645 4.126833 1.225650 0
M  V30 9 N 1.596217 2.916155 1.246348 0
M  V30 10 C 0.656911 2.445713 0.421232 0
M  V30 11 C -0.122139 2.888120 -0.704847 0
M  V30 12 C -0.158593 4.065559 -1.365535 0
M  V30 13 C -0.927489 4.433884 -2.433959 0
M  V30 14 N -1.754308 3.475870 -2.869990 0
M  V30 15 C -1.783184 2.272998 -2.270560 0
M  V30 16 N -2.686414 1.254268 -2.751919 0
M  V30 17 C -2.839752 -0.087751 -2.234533 0 CFG=1
M  V30 18 C -1.573958 -0.918669 -2.351288 0
M  V30 19 C -1.965112 -2.327359 -1.876045 0
M  V30 20 C -2.051832 -2.203785 -0.383099 0 CFG=2
M  V30 21 C -2.143943 -3.530301 0.286742 0
M  V30 22 O -3.207206 -3.711639 0.975537 0
M  V30 23 N -1.128080 -4.532069 0.175934 0
M  V30 24 C 0.168715 -4.621511 -0.516762 0
M  V30 25 C 0.047553 -5.713434 -1.527741 0
M  V30 26 C -1.298275 -6.403065 -1.535113 0
M  V30 27 O -2.250572 -5.686218 -2.263876 0
M  V30 28 C -1.789231 -6.778049 -0.167603 0
M  V30 29 C -1.403729 -5.781438 0.905191 0
M  V30 30 C -3.191390 -1.310781 -0.031298 0
M  V30 31 C -3.453415 -0.142206 -0.889052 0
M  V30 32 N -0.989336 2.005493 -1.227143 0
M  V30 33 C 0.493277 1.152194 0.922138 0
M  V30 34 N 1.317572 0.964406 1.965942 0
M  V30 35 C 2.029470 2.076705 2.189842 0
M  V30 36 H 1.630059 0.197747 4.344669 0
M  V30 37 H 2.507441 0.550500 5.873500 0
M  V30 38 H 1.527018 1.854462 5.146584 0
M  V30 39 H 4.001403 2.625763 5.761331 0
M  V30 40 H 4.763244 1.035400 5.634092 0
M  V30 41 H 5.318217 2.325010 4.511346 0
M  V30 42 H 3.137038 -0.382540 3.237711 0
M  V30 43 H 4.315748 3.956772 3.809146 0
M  V30 44 H 3.563074 5.537209 2.104400 0
M  V30 45 H 1.881871 4.873909 0.530660 0
M  V30 46 H 0.488639 4.859418 -1.047908 0
M  V30 47 H -0.885088 5.397562 -2.892113 0
M  V30 48 H -3.293921 1.551071 -3.578208 0
M  V30 49 H -3.563671 -0.616718 -2.926182 0
M  V30 50 H -1.217082 -1.002703 -3.375759 0
M  V30 51 H -0.823169 -0.500514 -1.653035 0
M  V30 52 H -1.306912 -3.101340 -2.259229 0
M  V30 53 H -3.005245 -2.486904 -2.290127 0
M  V30 54 H -1.067716 -1.752772 -0.060979 0
M  V30 55 H 0.919529 -4.970037 0.253125 0
M  V30 56 H 0.542065 -3.665295 -0.868116 0
M  V30 57 H 0.209984 -5.369949 -2.583861 0
M  V30 58 H 0.808615 -6.525815 -1.367551 0
M  V30 59 H -1.148061 -7.365213 -2.092971 0
M  V30 60 H -2.729945 -6.250919 -2.921339 0
M  V30 61 H -2.909338 -6.751017 -0.200266 0
M  V30 62 H -1.539101 -7.823402 0.125281 0
M  V30 63 H -0.476883 -6.049725 1.445710 0
M  V30 64 H -2.212910 -5.651047 1.654100 0
M  V30 65 H -3.178746 -1.047676 1.073049 0
M  V30 66 H -4.114523 -1.966002 -0.095895 0
M  V30 67 H -4.561701 0.059676 -0.993149 0
M  V30 68 H -3.097847 0.782112 -0.337518 0
M  V30 69 H -0.110340 0.294867 0.687141 0
M  V30 END ATOM
M  V30 BEGIN BOND
M  V30 1 1 1 2
M  V30 2 1 2 3
M  V30 3 1 2 4
M  V30 4 1 2 5
M  V30 5 2 5 6
M  V30 6 1 6 7
M  V30 7 2 7 8
M  V30 8 1 8 9
M  V30 9 1 9 10
M  V30 10 1 10 11
M  V30 11 2 11 12
M  V30 12 1 12 13
M  V30 13 2 13 14
M  V30 14 1 14 15
M  V30 15 1 15 16
M  V30 16 1 16 17
M  V30 17 1 17 18
M  V30 18 1 18 19
M  V30 19 1 19 20
M  V30 20 1 20 21
M  V30 21 2 21 22
M  V30 22 1 21 23
M  V30 23 1 23 24
M  V30 24 1 24 25
M  V30 25 1 25 26
M  V30 26 1 26 27
M  V30 27 1 26 28
M  V30 28 1 28 29
M  V30 29 1 20 30
M  V30 30 1 30 31
M  V30 31 2 15 32
M  V30 32 2 10 33
M  V30 33 1 33 34
M  V30 34 2 34 35
M  V30 35 1 35 5
M  V30 36 1 35 9
M  V30 37 1 32 11
M  V30 38 1 31 17
M  V30 39 1 29 23
M  V30 40 1 1 36
M  V30 41 1 1 37
M  V30 42 1 1 38
M  V30 43 1 3 39
M  V30 44 1 3 40
M  V30 45 1 3 41
M  V30 46 1 4 42
M  V30 47 1 6 43
M  V30 48 1 7 44
M  V30 49 1 8 45
M  V30 50 1 12 46
M  V30 51 1 13 47
M  V30 52 1 16 48
M  V30 53 1 17 49 CFG=3
M  V30 54 1 18 50
M  V30 55 1 18 51
M  V30 56 1 19 52
M  V30 57 1 19 53
M  V30 58 1 20 54 CFG=1
M  V30 59 1 24 55
M  V30 60 1 24 56
M  V30 61 1 25 57
M  V30 62 1 25 58
M  V30 63 1 26 59
M  V30 64 1 27 60
M  V30 65 1 28 61
M  V30 66 1 28 62
M  V30 67 1 29 63
M  V30 68 1 29 64
M  V30 69 1 30 65
M  V30 70 1 30 66
M  V30 71 1 31 67
M  V30 72 1 31 68
M  V30 73 1 33 69
M  V30 END BOND
M  V30 END CTAB
M  END
>  <Dataset>  (315) 
ChEMBL_Kinases

>  <Ligand_Instance>  (315) 
nan

>  <PDB_ID>  (315) 
nan

>  <Standardized_SMILES>  (315) 
CC(C)(O)c1cccn2c(-c3ccnc(N[C@H]4CC[C@H](C(=O)N5CCC(O)CC5)CC4)n3)cnc12

>  <Name>  (315) 
nan

>  <Pocket>  (315) 
nan

>  <ATP_Site>  (315) 
nan

>  <Peripheral>  (315) 
nan

>  <Num_H_Atoms_ProtBoundConf>  (315) 
nan

>  <Num_Resolved_Atoms>  (315) 
nan

>  <Num_Not_Resolved_Atoms>  (315) 
nan

$$$$
CHEMBL3655578
     RDKit          3D

  0  0  0  0  0  0  0  0  0  0999 V3000
M  V30 BEGIN CTAB
M  V30 COUNTS 60 63 0 0 0
M  V30 BEGIN ATOM
M  V30 1 C 2.514500 -0.144958 5.578891 0
M  V30 2 C 3.672424 -0.861296 4.916163 0
M  V30 3 C 3.260479 -2.280295 4.670679 0
M  V30 4 O 4.742438 -0.759680 5.808677 0
M  V30 5 C 4.044156 -0.135720 3.664147 0
M  V30 6 C 5.254816 0.493327 3.508720 0
M  V30 7 C 5.449658 1.120525 2.291735 0
M  V30 8 C 4.468860 1.090031 1.332041 0
M  V30 9 N 3.298773 0.474569 1.499421 0
M  V30 10 C 2.301550 0.398270 0.626235 0
M  V30 11 C 1.992092 0.840354 -0.703290 0
M  V30 12 C 2.694220 1.569947 -1.611291 0
M  V30 13 C 2.326241 1.954472 -2.866523 0
M  V30 14 N 1.088178 1.547197 -3.250485 0
M  V30 15 C 0.320149 0.818474 -2.414041 0
M  V30 16 N -0.976713 0.397225 -2.815185 0
M  V30 17 C -1.928044 -0.395045 -2.053532 0 CFG=1
M  V30 18 C -3.219760 -0.605287 -2.765400 0
M  V30 19 C -3.739303 -1.985081 -2.850223 0
M  V30 20 C -3.440561 -2.914908 -1.738181 0 CFG=2
M  V30 21 C -4.577968 -3.555244 -1.037971 0
M  V30 22 S -5.747841 -2.569694 -0.234286 0
M  V30 23 C -6.632830 -1.436105 -1.266339 0
M  V30 24 O -6.820631 -3.513728 0.307471 0
M  V30 25 O -5.227471 -1.870973 0.991260 0
M  V30 26 C -2.391368 -2.376548 -0.775667 0
M  V30 27 C -1.293244 -1.697940 -1.610812 0
M  V30 28 N 0.794745 0.503670 -1.203993 0
M  V30 29 C 1.389114 -0.345919 1.355745 0
M  V30 30 N 1.863676 -0.659484 2.563989 0
M  V30 31 C 3.090339 -0.138229 2.669360 0
M  V30 32 H 2.663455 0.959371 5.617921 0
M  V30 33 H 1.527112 -0.419078 5.173375 0
M  V30 34 H 2.476604 -0.464729 6.659032 0
M  V30 35 H 3.392202 -2.833954 5.622580 0
M  V30 36 H 2.158507 -2.278369 4.477485 0
M  V30 37 H 3.810984 -2.752334 3.844382 0
M  V30 38 H 4.779770 0.223715 6.029186 0
M  V30 39 H 5.985282 0.482088 4.300188 0
M  V30 40 H 6.411740 1.619715 2.169921 0
M  V30 41 H 4.744214 1.608079 0.446150 0
M  V30 42 H 3.672262 1.907389 -1.343361 0
M  V30 43 H 2.961666 2.535295 -3.508473 0
M  V30 44 H -1.310564 0.676280 -3.765067 0
M  V30 45 H -2.112029 0.163247 -1.089215 0
M  V30 46 H -3.964797 0.137045 -2.350151 0
M  V30 47 H -3.059629 -0.201907 -3.811681 0
M  V30 48 H -4.847536 -1.940110 -2.985661 0
M  V30 49 H -3.392814 -2.398417 -3.853058 0
M  V30 50 H -2.884531 -3.793481 -2.204304 0
M  V30 51 H -5.113893 -4.244943 -1.730809 0
M  V30 52 H -4.124594 -4.257443 -0.275877 0
M  V30 53 H -7.051728 -2.016849 -2.120401 0
M  V30 54 H -6.093475 -0.530293 -1.530646 0
M  V30 55 H -7.506497 -1.072044 -0.636250 0
M  V30 56 H -1.873847 -3.192373 -0.227066 0
M  V30 57 H -2.770073 -1.666661 -0.044801 0
M  V30 58 H -0.472384 -1.466037 -0.927102 0
M  V30 59 H -0.992738 -2.348506 -2.447601 0
M  V30 60 H 0.373333 -0.741587 1.188863 0
M  V30 END ATOM
M  V30 BEGIN BOND
M  V30 1 1 1 2
M  V30 2 1 2 3
M  V30 3 1 2 4
M  V30 4 1 2 5
M  V30 5 2 5 6
M  V30 6 1 6 7
M  V30 7 2 7 8
M  V30 8 1 8 9
M  V30 9 1 9 10
M  V30 10 1 10 11
M  V30 11 2 11 12
M  V30 12 1 12 13
M  V30 13 2 13 14
M  V30 14 1 14 15
M  V30 15 1 15 16
M  V30 16 1 16 17
M  V30 17 1 17 18
M  V30 18 1 18 19
M  V30 19 1 19 20
M  V30 20 1 20 21
M  V30 21 1 21 22
M  V30 22 1 22 23
M  V30 23 2 22 24
M  V30 24 2 22 25
M  V30 25 1 20 26
M  V30 26 1 26 27
M  V30 27 2 15 28
M  V30 28 2 10 29
M  V30 29 1 29 30
M  V30 30 2 30 31
M  V30 31 1 31 5
M  V30 32 1 31 9
M  V30 33 1 28 11
M  V30 34 1 27 17
M  V30 35 1 1 32
M  V30 36 1 1 33
M  V30 37 1 1 34
M  V30 38 1 3 35
M  V30 39 1 3 36
M  V30 40 1 3 37
M  V30 41 1 4 38
M  V30 42 1 6 39
M  V30 43 1 7 40
M  V30 44 1 8 41
M  V30 45 1 12 42
M  V30 46 1 13 43
M  V30 47 1 16 44
M  V30 48 1 17 45 CFG=1
M  V30 49 1 18 46
M  V30 50 1 18 47
M  V30 51 1 19 48
M  V30 52 1 19 49
M  V30 53 1 20 50 CFG=3
M  V30 54 1 21 51
M  V30 55 1 21 52
M  V30 56 1 23 53
M  V30 57 1 23 54
M  V30 58 1 23 55
M  V30 59 1 26 56
M  V30 60 1 26 57
M  V30 61 1 27 58
M  V30 62 1 27 59
M  V30 63 1 29 60
M  V30 END BOND
M  V30 END CTAB
M  END
>  <Dataset>  (316) 
ChEMBL_Kinases

>  <Ligand_Instance>  (316) 
nan

>  <PDB_ID>  (316) 
nan

>  <Standardized_SMILES>  (316) 
CC(C)(O)c1cccn2c(-c3ccnc(N[C@H]4CC[C@H](CS(C)(=O)=O)CC4)n3)cnc12

>  <Name>  (316) 
nan

>  <Pocket>  (316) 
nan

>  <ATP_Site>  (316) 
nan

>  <Peripheral>  (316) 
nan

>  <Num_H_Atoms_ProtBoundConf>  (316) 
nan

>  <Num_Resolved_Atoms>  (316) 
nan

>  <Num_Not_Resolved_Atoms>  (316) 
nan

$$$$
CHEMBL3655562
     RDKit          3D

  0  0  0  0  0  0  0  0  0  0999 V3000
M  V30 BEGIN CTAB
M  V30 COUNTS 46 49 0 0 0
M  V30 BEGIN ATOM
M  V30 1 C -0.698730 -5.279574 0.493804 0
M  V30 2 N -0.234209 -3.955194 0.115347 0
M  V30 3 C 1.141445 -3.707418 -0.140880 0
M  V30 4 O 1.896422 -4.703264 -0.015170 0
M  V30 5 C 1.709597 -2.421897 -0.525117 0
M  V30 6 C 3.070846 -2.372352 -0.732402 0
M  V30 7 C 3.669049 -1.198494 -1.094719 0
M  V30 8 C 2.829107 -0.095731 -1.233326 0
M  V30 9 C 1.441944 -0.109600 -1.030410 0
M  V30 10 C 0.775745 1.163868 -1.250167 0
M  V30 11 N 1.041151 1.856220 -2.397336 0
M  V30 12 N 0.345879 2.994354 -2.416344 0
M  V30 13 C -0.394150 3.105529 -1.308344 0
M  V30 14 C -1.268626 4.024277 -0.797416 0
M  V30 15 C -1.801708 3.694387 0.431670 0
M  V30 16 N -1.547424 2.585667 1.151185 0
M  V30 17 C -0.688934 1.693376 0.639273 0
M  V30 18 O -0.406977 0.542497 1.360246 0
M  V30 19 C -1.058854 0.391496 2.607898 0
M  V30 20 C -0.053725 0.438081 3.760737 0
M  V30 21 C 1.005781 -0.590027 3.470212 0
M  V30 22 O 0.512041 -1.616619 2.643842 0
M  V30 23 C -0.756697 -1.971962 3.100438 0
M  V30 24 C -1.787686 -0.920759 2.748341 0
M  V30 25 C -0.124744 1.969123 -0.587571 0
M  V30 26 C 0.917654 -1.306452 -0.673880 0
M  V30 27 H 0.026160 -5.704227 1.246307 0
M  V30 28 H -0.670218 -5.983803 -0.369998 0
M  V30 29 H -1.676769 -5.247096 0.991560 0
M  V30 30 H -0.896481 -3.154568 0.022244 0
M  V30 31 H 3.727113 -3.237048 -0.623141 0
M  V30 32 H 4.716979 -1.118321 -1.264403 0
M  V30 33 H 3.346311 0.832114 -1.526103 0
M  V30 34 H 0.343764 3.727321 -3.164480 0
M  V30 35 H -1.503597 4.914824 -1.323819 0
M  V30 36 H -2.510383 4.406849 0.878470 0
M  V30 37 H -1.728370 1.279091 2.808666 0
M  V30 38 H -0.611333 0.136081 4.678666 0
M  V30 39 H 0.324744 1.441614 3.941296 0
M  V30 40 H 1.909100 -0.121328 3.018502 0
M  V30 41 H 1.335715 -1.069722 4.419882 0
M  V30 42 H -1.083928 -2.934692 2.692146 0
M  V30 43 H -0.690587 -2.056630 4.214260 0
M  V30 44 H -2.375930 -1.200959 1.851187 0
M  V30 45 H -2.491545 -0.818051 3.601143 0
M  V30 46 H -0.136647 -1.347452 -0.524394 0
M  V30 END ATOM
M  V30 BEGIN BOND
M  V30 1 1 1 2
M  V30 2 1 2 3
M  V30 3 2 3 4
M  V30 4 1 3 5
M  V30 5 2 5 6
M  V30 6 1 6 7
M  V30 7 2 7 8
M  V30 8 1 8 9
M  V30 9 1 9 10
M  V30 10 2 10 11
M  V30 11 1 11 12
M  V30 12 1 12 13
M  V30 13 2 13 14
M  V30 14 1 14 15
M  V30 15 2 15 16
M  V30 16 1 16 17
M  V30 17 1 17 18
M  V30 18 1 18 19
M  V30 19 1 19 20
M  V30 20 1 20 21
M  V30 21 1 21 22
M  V30 22 1 22 23
M  V30 23 1 23 24
M  V30 24 2 17 25
M  V30 25 2 9 26
M  V30 26 1 26 5
M  V30 27 1 25 10
M  V30 28 1 25 13
M  V30 29 1 24 19
M  V30 30 1 1 27
M  V30 31 1 1 28
M  V30 32 1 1 29
M  V30 33 1 2 30
M  V30 34 1 6 31
M  V30 35 1 7 32
M  V30 36 1 8 33
M  V30 37 1 12 34
M  V30 38 1 14 35
M  V30 39 1 15 36
M  V30 40 1 19 37
M  V30 41 1 20 38
M  V30 42 1 20 39
M  V30 43 1 21 40
M  V30 44 1 21 41
M  V30 45 1 23 42
M  V30 46 1 23 43
M  V30 47 1 24 44
M  V30 48 1 24 45
M  V30 49 1 26 46
M  V30 END BOND
M  V30 END CTAB
M  END
>  <Dataset>  (317) 
ChEMBL_Kinases

>  <Ligand_Instance>  (317) 
nan

>  <PDB_ID>  (317) 
nan

>  <Standardized_SMILES>  (317) 
CNC(=O)c1cccc(-c2n[nH]c3ccnc(OC4CCOCC4)c23)c1

>  <Name>  (317) 
nan

>  <Pocket>  (317) 
nan

>  <ATP_Site>  (317) 
nan

>  <Peripheral>  (317) 
nan

>  <Num_H_Atoms_ProtBoundConf>  (317) 
nan

>  <Num_Resolved_Atoms>  (317) 
nan

>  <Num_Not_Resolved_Atoms>  (317) 
nan

$$$$
CHEMBL3654827
     RDKit          3D

  0  0  0  0  0  0  0  0  0  0999 V3000
M  V30 BEGIN CTAB
M  V30 COUNTS 42 44 0 0 0
M  V30 BEGIN ATOM
M  V30 1 C 4.588821 -5.186304 1.720953 0
M  V30 2 C 3.948235 -5.174953 0.389782 0
M  V30 3 C 3.254258 -4.047083 0.009395 0
M  V30 4 C 2.620767 -3.949442 -1.224775 0
M  V30 5 C 1.875794 -2.780398 -1.672888 0
M  V30 6 N 1.898414 -2.149461 -2.862346 0
M  V30 7 N 1.061857 -1.115138 -2.862760 0
M  V30 8 C 0.460167 -1.037173 -1.660842 0
M  V30 9 C -0.480206 -0.147556 -1.168312 0
M  V30 10 C -0.941825 -0.291244 0.121216 0
M  V30 11 N -1.901607 0.524500 0.790513 0
M  V30 12 C -1.395551 1.652087 1.513338 0
M  V30 13 O -0.172972 1.969802 1.597789 0
M  V30 14 N -2.264961 2.520891 2.209292 0
M  V30 15 C -1.747447 3.662952 2.940872 0
M  V30 16 C -2.105186 3.670725 4.387144 0
M  V30 17 C -2.381465 4.905976 2.303932 0
M  V30 18 O -1.935677 6.050031 2.950195 0
M  V30 19 N -0.451686 -1.312626 0.871275 0
M  V30 20 C 0.464850 -2.175504 0.383674 0
M  V30 21 C 0.965887 -2.079945 -0.906917 0
M  V30 22 C 2.694108 -5.032418 -2.101840 0
M  V30 23 C 3.398680 -6.160798 -1.699747 0
M  V30 24 N 3.982306 -6.182203 -0.497482 0
M  V30 25 H 5.591136 -4.722352 1.747472 0
M  V30 26 H 3.932010 -4.702935 2.492075 0
M  V30 27 H 4.725777 -6.247209 2.053211 0
M  V30 28 H 3.193125 -3.213783 0.674383 0
M  V30 29 H 0.894197 -0.458614 -3.673789 0
M  V30 30 H -0.891697 0.665434 -1.717667 0
M  V30 31 H -2.923777 0.365498 0.793547 0
M  V30 32 H -3.297152 2.385228 2.229525 0
M  V30 33 H -0.643227 3.722395 2.859996 0
M  V30 34 H -2.205747 4.727226 4.712779 0
M  V30 35 H -3.097803 3.194399 4.609441 0
M  V30 36 H -1.300962 3.247017 5.032106 0
M  V30 37 H -2.022951 4.963461 1.247072 0
M  V30 38 H -3.476481 4.806588 2.267767 0
M  V30 39 H -2.600790 6.406281 3.583147 0
M  V30 40 H 0.828892 -2.975567 1.015590 0
M  V30 41 H 2.250571 -5.077320 -3.073815 0
M  V30 42 H 3.474210 -7.013011 -2.352587 0
M  V30 END ATOM
M  V30 BEGIN BOND
M  V30 1 1 1 2
M  V30 2 2 2 3
M  V30 3 1 3 4
M  V30 4 1 4 5
M  V30 5 2 5 6
M  V30 6 1 6 7
M  V30 7 1 7 8
M  V30 8 2 8 9
M  V30 9 1 9 10
M  V30 10 1 10 11
M  V30 11 1 11 12
M  V30 12 2 12 13
M  V30 13 1 12 14
M  V30 14 1 14 15
M  V30 15 1 15 16
M  V30 16 1 15 17
M  V30 17 1 17 18
M  V30 18 2 10 19
M  V30 19 1 19 20
M  V30 20 2 20 21
M  V30 21 2 4 22
M  V30 22 1 22 23
M  V30 23 2 23 24
M  V30 24 1 24 2
M  V30 25 1 21 5
M  V30 26 1 21 8
M  V30 27 1 1 25
M  V30 28 1 1 26
M  V30 29 1 1 27
M  V30 30 1 3 28
M  V30 31 1 7 29
M  V30 32 1 9 30
M  V30 33 1 11 31
M  V30 34 1 14 32
M  V30 35 1 15 33
M  V30 36 1 16 34
M  V30 37 1 16 35
M  V30 38 1 16 36
M  V30 39 1 17 37
M  V30 40 1 17 38
M  V30 41 1 18 39
M  V30 42 1 20 40
M  V30 43 1 22 41
M  V30 44 1 23 42
M  V30 END BOND
M  V30 END CTAB
M  END
>  <Dataset>  (318) 
ChEMBL_Kinases

>  <Ligand_Instance>  (318) 
nan

>  <PDB_ID>  (318) 
nan

>  <Standardized_SMILES>  (318) 
Cc1cc(-c2n[nH]c3cc(NC(=O)NC(C)CO)ncc23)ccn1

>  <Name>  (318) 
nan

>  <Pocket>  (318) 
nan

>  <ATP_Site>  (318) 
nan

>  <Peripheral>  (318) 
nan

>  <Num_H_Atoms_ProtBoundConf>  (318) 
nan

>  <Num_Resolved_Atoms>  (318) 
nan

>  <Num_Not_Resolved_Atoms>  (318) 
nan

$$$$
CHEMBL3655545
     RDKit          3D

  0  0  0  0  0  0  0  0  0  0999 V3000
M  V30 BEGIN CTAB
M  V30 COUNTS 45 49 0 0 0
M  V30 BEGIN ATOM
M  V30 1 C 2.131899 -3.740034 2.311732 0
M  V30 2 C 2.267434 -3.240615 1.025866 0
M  V30 3 C 1.282814 -2.522438 0.341349 0
M  V30 4 C 1.606650 -2.097098 -0.998396 0
M  V30 5 N 2.125513 -2.996604 -1.852649 0
M  V30 6 N 2.364597 -2.422437 -3.034437 0
M  V30 7 C 2.016689 -1.123755 -3.014672 0
M  V30 8 C 2.035615 -0.075992 -3.894213 0
M  V30 9 C 1.569398 1.138546 -3.434109 0
M  V30 10 N 1.105943 1.307196 -2.161082 0
M  V30 11 C 1.083109 0.285474 -1.290555 0
M  V30 12 O 0.613876 0.481607 -0.016090 0
M  V30 13 C 0.140693 1.697417 0.469705 0
M  V30 14 C 0.913675 2.221381 1.645664 0
M  V30 15 C 0.230018 1.981514 2.974956 0
M  V30 16 O -1.019754 2.584278 3.037550 0
M  V30 17 C -1.568038 2.819069 1.785928 0
M  V30 18 C -1.315322 1.647432 0.877317 0
M  V30 19 C 1.544119 -0.933552 -1.733832 0
M  V30 20 C 0.129816 -2.348421 1.076910 0
M  V30 21 C -0.006905 -2.840181 2.346902 0
M  V30 22 C -1.259479 -2.612650 3.058961 0
M  V30 23 C -1.510922 -3.055033 4.328630 0
M  V30 24 N -2.760651 -2.664479 4.661680 0
M  V30 25 N -3.260598 -2.005654 3.634681 0
M  V30 26 C -2.389769 -1.945102 2.634566 0
M  V30 27 N 0.965587 -3.513838 2.941424 0
M  V30 28 H 2.937322 -4.286046 2.776041 0
M  V30 29 H 3.220224 -3.441223 0.547976 0
M  V30 30 H 2.768240 -2.905121 -3.873017 0
M  V30 31 H 2.406246 -0.226993 -4.899176 0
M  V30 32 H 1.572405 1.971266 -4.097198 0
M  V30 33 H 0.208852 2.462094 -0.339806 0
M  V30 34 H 1.049634 3.319541 1.568304 0
M  V30 35 H 1.910406 1.737264 1.701452 0
M  V30 36 H 0.204465 0.907594 3.261457 0
M  V30 37 H 0.870731 2.481179 3.731843 0
M  V30 38 H -1.036305 3.711400 1.377363 0
M  V30 39 H -2.640053 3.032301 1.888547 0
M  V30 40 H -1.445190 0.724551 1.479637 0
M  V30 41 H -2.010226 1.614979 0.016568 0
M  V30 42 H -0.656378 -1.810216 0.582474 0
M  V30 43 H -0.847060 -3.611471 4.957337 0
M  V30 44 H -4.221077 -1.596694 3.639480 0
M  V30 45 H -2.499413 -1.483441 1.677073 0
M  V30 END ATOM
M  V30 BEGIN BOND
M  V30 1 2 1 2
M  V30 2 1 2 3
M  V30 3 1 3 4
M  V30 4 2 4 5
M  V30 5 1 5 6
M  V30 6 1 6 7
M  V30 7 2 7 8
M  V30 8 1 8 9
M  V30 9 2 9 10
M  V30 10 1 10 11
M  V30 11 1 11 12
M  V30 12 1 12 13
M  V30 13 1 13 14
M  V30 14 1 14 15
M  V30 15 1 15 16
M  V30 16 1 16 17
M  V30 17 1 17 18
M  V30 18 2 11 19
M  V30 19 2 3 20
M  V30 20 1 20 21
M  V30 21 1 21 22
M  V30 22 1 22 23
M  V30 23 2 23 24
M  V30 24 1 24 25
M  V30 25 1 25 26
M  V30 26 2 21 27
M  V30 27 1 27 1
M  V30 28 1 19 4
M  V30 29 2 26 22
M  V30 30 1 19 7
M  V30 31 1 18 13
M  V30 32 1 1 28
M  V30 33 1 2 29
M  V30 34 1 6 30
M  V30 35 1 8 31
M  V30 36 1 9 32
M  V30 37 1 13 33
M  V30 38 1 14 34
M  V30 39 1 14 35
M  V30 40 1 15 36
M  V30 41 1 15 37
M  V30 42 1 17 38
M  V30 43 1 17 39
M  V30 44 1 18 40
M  V30 45 1 18 41
M  V30 46 1 20 42
M  V30 47 1 23 43
M  V30 48 1 25 44
M  V30 49 1 26 45
M  V30 END BOND
M  V30 END CTAB
M  END
>  <Dataset>  (319) 
ChEMBL_Kinases

>  <Ligand_Instance>  (319) 
nan

>  <PDB_ID>  (319) 
nan

>  <Standardized_SMILES>  (319) 
c1cc(-c2n[nH]c3ccnc(OC4CCOCC4)c23)cc(-c2cn[nH]c2)n1

>  <Name>  (319) 
nan

>  <Pocket>  (319) 
nan

>  <ATP_Site>  (319) 
nan

>  <Peripheral>  (319) 
nan

>  <Num_H_Atoms_ProtBoundConf>  (319) 
nan

>  <Num_Resolved_Atoms>  (319) 
nan

>  <Num_Not_Resolved_Atoms>  (319) 
nan

$$$$
CHEMBL3655546
     RDKit          3D

  0  0  0  0  0  0  0  0  0  0999 V3000
M  V30 BEGIN CTAB
M  V30 COUNTS 55 59 0 0 0
M  V30 BEGIN ATOM
M  V30 1 C 1.986479 -3.277211 -3.283937 0
M  V30 2 C 2.751173 -2.835594 -2.072248 0
M  V30 3 O 2.894263 -3.427706 -0.969174 0
M  V30 4 N 3.427403 -1.575210 -2.130506 0
M  V30 5 C 4.135151 -1.221513 -0.937540 0
M  V30 6 C 5.447816 -1.645764 -0.887606 0
M  V30 7 C 6.220147 -1.358329 0.216712 0
M  V30 8 C 5.633725 -0.645225 1.242398 0
M  V30 9 C 4.319148 -0.234878 1.163331 0
M  V30 10 C 3.522494 -0.507952 0.071106 0
M  V30 11 C 2.129317 -0.113145 -0.092248 0
M  V30 12 C 1.418038 0.596819 0.841602 0
M  V30 13 C 0.077313 0.966090 0.663141 0
M  V30 14 C -0.523247 1.730252 1.745186 0
M  V30 15 N 0.148772 2.809385 2.239241 0
M  V30 16 N -0.536232 3.378207 3.216476 0
M  V30 17 C -1.684720 2.715407 3.421092 0
M  V30 18 C -2.777902 2.816726 4.271311 0
M  V30 19 C -3.777702 1.876343 4.134071 0
M  V30 20 N -3.727802 0.881002 3.218124 0
M  V30 21 C -2.675015 0.755193 2.374075 0
M  V30 22 O -2.647585 -0.261618 1.457371 0
M  V30 23 C -3.649305 -1.219387 1.309939 0
M  V30 24 C -3.010924 -2.585873 1.469848 0
M  V30 25 C -3.632502 -3.613683 0.565445 0
M  V30 26 O -3.560252 -3.274054 -0.776622 0
M  V30 27 C -3.267660 -1.930732 -0.973238 0
M  V30 28 C -4.217941 -1.144542 -0.085671 0
M  V30 29 C -1.674063 1.687331 2.502105 0
M  V30 30 C -0.466901 0.563945 -0.515013 0
M  V30 31 C 0.234025 -0.149549 -1.462472 0
M  V30 32 N 1.517971 -0.464986 -1.214541 0
M  V30 33 H 1.374645 -2.418672 -3.633135 0
M  V30 34 H 2.637408 -3.716251 -4.044894 0
M  V30 35 H 1.268456 -4.061726 -2.963914 0
M  V30 36 H 3.427901 -0.931072 -2.966121 0
M  V30 37 H 5.900598 -2.212119 -1.711026 0
M  V30 38 H 7.242964 -1.707977 0.217395 0
M  V30 39 H 6.235976 -0.416813 2.112154 0
M  V30 40 H 3.872504 0.323283 1.974520 0
M  V30 41 H 1.931135 0.873452 1.746228 0
M  V30 42 H -0.279248 4.217764 3.783858 0
M  V30 43 H -2.787560 3.622890 4.991969 0
M  V30 44 H -4.630649 1.948929 4.791529 0
M  V30 45 H -4.479105 -1.066222 2.025660 0
M  V30 46 H -3.216213 -2.905417 2.509799 0
M  V30 47 H -1.929646 -2.560967 1.338663 0
M  V30 48 H -4.677318 -3.828774 0.792261 0
M  V30 49 H -3.069456 -4.554256 0.707572 0
M  V30 50 H -3.420733 -1.695652 -2.044122 0
M  V30 51 H -2.208457 -1.762148 -0.644241 0
M  V30 52 H -5.195638 -1.669541 -0.095830 0
M  V30 53 H -4.349596 -0.104082 -0.430768 0
M  V30 54 H -1.479794 0.831372 -0.699365 0
M  V30 55 H -0.256573 -0.436687 -2.372704 0
M  V30 END ATOM
M  V30 BEGIN BOND
M  V30 1 1 1 2
M  V30 2 2 2 3
M  V30 3 1 2 4
M  V30 4 1 4 5
M  V30 5 2 5 6
M  V30 6 1 6 7
M  V30 7 2 7 8
M  V30 8 1 8 9
M  V30 9 2 9 10
M  V30 10 1 10 11
M  V30 11 2 11 12
M  V30 12 1 12 13
M  V30 13 1 13 14
M  V30 14 2 14 15
M  V30 15 1 15 16
M  V30 16 1 16 17
M  V30 17 2 17 18
M  V30 18 1 18 19
M  V30 19 2 19 20
M  V30 20 1 20 21
M  V30 21 1 21 22
M  V30 22 1 22 23
M  V30 23 1 23 24
M  V30 24 1 24 25
M  V30 25 1 25 26
M  V30 26 1 26 27
M  V30 27 1 27 28
M  V30 28 2 21 29
M  V30 29 2 13 30
M  V30 30 1 30 31
M  V30 31 2 31 32
M  V30 32 1 10 5
M  V30 33 1 32 11
M  V30 34 1 29 14
M  V30 35 1 29 17
M  V30 36 1 28 23
M  V30 37 1 1 33
M  V30 38 1 1 34
M  V30 39 1 1 35
M  V30 40 1 4 36
M  V30 41 1 6 37
M  V30 42 1 7 38
M  V30 43 1 8 39
M  V30 44 1 9 40
M  V30 45 1 12 41
M  V30 46 1 16 42
M  V30 47 1 18 43
M  V30 48 1 19 44
M  V30 49 1 23 45
M  V30 50 1 24 46
M  V30 51 1 24 47
M  V30 52 1 25 48
M  V30 53 1 25 49
M  V30 54 1 27 50
M  V30 55 1 27 51
M  V30 56 1 28 52
M  V30 57 1 28 53
M  V30 58 1 30 54
M  V30 59 1 31 55
M  V30 END BOND
M  V30 END CTAB
M  END
>  <Dataset>  (320) 
ChEMBL_Kinases

>  <Ligand_Instance>  (320) 
nan

>  <PDB_ID>  (320) 
nan

>  <Standardized_SMILES>  (320) 
CC(=O)Nc1ccccc1-c1cc(-c2n[nH]c3ccnc(OC4CCOCC4)c23)ccn1

>  <Name>  (320) 
nan

>  <Pocket>  (320) 
nan

>  <ATP_Site>  (320) 
nan

>  <Peripheral>  (320) 
nan

>  <Num_H_Atoms_ProtBoundConf>  (320) 
nan

>  <Num_Resolved_Atoms>  (320) 
nan

>  <Num_Not_Resolved_Atoms>  (320) 
nan

$$$$
CHEMBL3655547
     RDKit          3D

  0  0  0  0  0  0  0  0  0  0999 V3000
M  V30 BEGIN CTAB
M  V30 COUNTS 54 58 0 0 0
M  V30 BEGIN ATOM
M  V30 1 C 2.782535 -7.670064 2.669233 0
M  V30 2 C 1.887382 -6.662833 2.070972 0
M  V30 3 O 0.641529 -6.460981 2.085311 0
M  V30 4 N 2.611516 -5.707658 1.305604 0
M  V30 5 C 2.194401 -4.572569 0.556783 0
M  V30 6 C 2.111242 -3.332935 1.156515 0
M  V30 7 C 1.708478 -2.226189 0.441459 0
M  V30 8 C 1.369182 -2.285606 -0.894056 0
M  V30 9 C 0.934895 -1.164344 -1.719374 0
M  V30 10 C 0.828910 0.088440 -1.199122 0
M  V30 11 C 0.421909 1.169044 -1.949567 0
M  V30 12 C 0.239849 2.553906 -1.544229 0
M  V30 13 N 0.793323 3.562704 -2.280795 0
M  V30 14 N 0.501976 4.734564 -1.744583 0
M  V30 15 C -0.249173 4.583382 -0.639624 0
M  V30 16 C -0.837481 5.404953 0.299856 0
M  V30 17 C -1.559609 4.810068 1.313092 0
M  V30 18 N -1.690670 3.483005 1.390201 0
M  V30 19 C -1.132263 2.650018 0.494109 0
M  V30 20 O -1.293734 1.288211 0.609312 0
M  V30 21 C -2.018902 0.653043 1.617799 0
M  V30 22 C -3.150733 -0.201073 1.060996 0
M  V30 23 C -3.829187 -0.843081 2.259927 0
M  V30 24 O -2.942261 -1.779045 2.791024 0
M  V30 25 C -1.882029 -1.110890 3.388801 0
M  V30 26 C -1.108390 -0.273624 2.372547 0
M  V30 27 C -0.406107 3.219435 -0.525664 0
M  V30 28 C 0.120805 0.904928 -3.291729 0
M  V30 29 C 0.231047 -0.366636 -3.810662 0
M  V30 30 N 0.634573 -1.370826 -3.014921 0
M  V30 31 C 1.466644 -3.545901 -1.454375 0
M  V30 32 N 1.861114 -4.618285 -0.745452 0
M  V30 33 H 3.473687 -8.070055 1.923834 0
M  V30 34 H 3.349937 -7.192690 3.513808 0
M  V30 35 H 2.149207 -8.453739 3.158208 0
M  V30 36 H 3.645467 -5.653711 1.137572 0
M  V30 37 H 2.359108 -3.196450 2.200615 0
M  V30 38 H 1.652870 -1.274744 0.932566 0
M  V30 39 H 1.065698 0.302203 -0.188968 0
M  V30 40 H 0.804870 5.676266 -2.113269 0
M  V30 41 H -0.690690 6.474767 0.176581 0
M  V30 42 H -2.022168 5.443631 2.050857 0
M  V30 43 H -2.467432 1.360004 2.346046 0
M  V30 44 H -3.865392 0.400165 0.465318 0
M  V30 45 H -2.667995 -1.016887 0.480607 0
M  V30 46 H -4.780834 -1.336743 1.963967 0
M  V30 47 H -3.999543 -0.075220 3.039525 0
M  V30 48 H -1.156407 -1.901115 3.730501 0
M  V30 49 H -2.265738 -0.511187 4.216061 0
M  V30 50 H -0.322981 0.248807 2.955165 0
M  V30 51 H -0.637538 -0.998699 1.668716 0
M  V30 52 H -0.207306 1.686541 -3.963987 0
M  V30 53 H 0.000476 -0.594154 -4.856962 0
M  V30 54 H 1.232895 -3.753603 -2.497452 0
M  V30 END ATOM
M  V30 BEGIN BOND
M  V30 1 1 1 2
M  V30 2 2 2 3
M  V30 3 1 2 4
M  V30 4 1 4 5
M  V30 5 2 5 6
M  V30 6 1 6 7
M  V30 7 2 7 8
M  V30 8 1 8 9
M  V30 9 2 9 10
M  V30 10 1 10 11
M  V30 11 1 11 12
M  V30 12 2 12 13
M  V30 13 1 13 14
M  V30 14 1 14 15
M  V30 15 2 15 16
M  V30 16 1 16 17
M  V30 17 2 17 18
M  V30 18 1 18 19
M  V30 19 1 19 20
M  V30 20 1 20 21
M  V30 21 1 21 22
M  V30 22 1 22 23
M  V30 23 1 23 24
M  V30 24 1 24 25
M  V30 25 1 25 26
M  V30 26 2 19 27
M  V30 27 2 11 28
M  V30 28 1 28 29
M  V30 29 2 29 30
M  V30 30 1 8 31
M  V30 31 2 31 32
M  V30 32 1 32 5
M  V30 33 1 30 9
M  V30 34 1 27 12
M  V30 35 1 27 15
M  V30 36 1 26 21
M  V30 37 1 1 33
M  V30 38 1 1 34
M  V30 39 1 1 35
M  V30 40 1 4 36
M  V30 41 1 6 37
M  V30 42 1 7 38
M  V30 43 1 10 39
M  V30 44 1 14 40
M  V30 45 1 16 41
M  V30 46 1 17 42
M  V30 47 1 21 43
M  V30 48 1 22 44
M  V30 49 1 22 45
M  V30 50 1 23 46
M  V30 51 1 23 47
M  V30 52 1 25 48
M  V30 53 1 25 49
M  V30 54 1 26 50
M  V30 55 1 26 51
M  V30 56 1 28 52
M  V30 57 1 29 53
M  V30 58 1 31 54
M  V30 END BOND
M  V30 END CTAB
M  END
>  <Dataset>  (321) 
ChEMBL_Kinases

>  <Ligand_Instance>  (321) 
nan

>  <PDB_ID>  (321) 
nan

>  <Standardized_SMILES>  (321) 
CC(=O)Nc1ccc(-c2cc(-c3n[nH]c4ccnc(OC5CCOCC5)c34)ccn2)cn1

>  <Name>  (321) 
nan

>  <Pocket>  (321) 
nan

>  <ATP_Site>  (321) 
nan

>  <Peripheral>  (321) 
nan

>  <Num_H_Atoms_ProtBoundConf>  (321) 
nan

>  <Num_Resolved_Atoms>  (321) 
nan

>  <Num_Not_Resolved_Atoms>  (321) 
nan

$$$$
CHEMBL3655548
     RDKit          3D

  0  0  0  0  0  0  0  0  0  0999 V3000
M  V30 BEGIN CTAB
M  V30 COUNTS 55 59 0 0 0
M  V30 BEGIN ATOM
M  V30 1 C 5.961704 -6.006115 1.277942 0
M  V30 2 C 5.119813 -4.886194 1.809936 0
M  V30 3 O 4.138036 -4.868881 2.595692 0
M  V30 4 N 5.466906 -3.561064 1.361331 0
M  V30 5 C 4.777801 -2.383037 1.763267 0
M  V30 6 C 5.160531 -1.668252 2.879327 0
M  V30 7 C 4.443050 -0.535004 3.206701 0
M  V30 8 C 3.375304 -0.142319 2.428128 0
M  V30 9 C 2.963430 -0.829715 1.307158 0
M  V30 10 C 1.841721 -0.452484 0.454744 0
M  V30 11 C 1.047845 0.643708 0.662401 0
M  V30 12 C -0.019413 1.006827 -0.144862 0
M  V30 13 C -0.746261 2.215550 0.215621 0
M  V30 14 N -0.026678 3.346465 0.476887 0
M  V30 15 N -0.832020 4.342334 0.791955 0
M  V30 16 C -2.113946 3.936136 0.759021 0
M  V30 17 C -3.382230 4.435731 0.972495 0
M  V30 18 C -4.516259 3.630454 0.828507 0
M  V30 19 N -4.363779 2.331598 0.471715 0
M  V30 20 C -3.152192 1.789437 0.250260 0
M  V30 21 O -3.065066 0.465723 -0.107140 0
M  V30 22 C -4.144902 -0.399586 -0.268774 0
M  V30 23 C -4.076855 -1.606871 0.638472 0
M  V30 24 C -3.387521 -2.702939 -0.157320 0
M  V30 25 O -4.283895 -3.153125 -1.097789 0
M  V30 26 C -4.757070 -2.182033 -1.946615 0
M  V30 27 C -4.181316 -0.811549 -1.725077 0
M  V30 28 C -2.055059 2.606249 0.398793 0
M  V30 29 C -0.243060 0.165339 -1.212635 0
M  V30 30 C 0.532318 -0.942707 -1.451563 0
M  V30 31 N 1.543609 -1.216117 -0.617052 0
M  V30 32 C 3.704741 -1.952270 1.016202 0
M  V30 33 H 7.002212 -5.646707 1.328951 0
M  V30 34 H 5.784598 -6.918086 1.871422 0
M  V30 35 H 5.691444 -6.191836 0.223662 0
M  V30 36 H 6.270837 -3.411229 0.696802 0
M  V30 37 H 6.006813 -2.027505 3.449470 0
M  V30 38 H 4.740157 0.029862 4.082782 0
M  V30 39 H 2.838564 0.746474 2.713127 0
M  V30 40 H 1.283637 1.254661 1.516889 0
M  V30 41 H -0.585876 5.327127 1.041571 0
M  V30 42 H -3.431061 5.489771 1.257514 0
M  V30 43 H -5.484883 4.076062 1.008545 0
M  V30 44 H -5.116860 0.133590 -0.066737 0
M  V30 45 H -3.543015 -1.399848 1.581848 0
M  V30 46 H -5.094924 -1.932207 0.935857 0
M  V30 47 H -3.135466 -3.554588 0.497934 0
M  V30 48 H -2.457910 -2.278271 -0.563075 0
M  V30 49 H -4.424030 -2.495081 -2.979680 0
M  V30 50 H -5.862347 -2.158227 -1.877936 0
M  V30 51 H -3.148001 -0.802595 -2.134843 0
M  V30 52 H -4.816774 -0.100686 -2.288796 0
M  V30 53 H -1.042679 0.406341 -1.868592 0
M  V30 54 H 0.315338 -1.568008 -2.299594 0
M  V30 55 H 3.426019 -2.535241 0.142399 0
M  V30 END ATOM
M  V30 BEGIN BOND
M  V30 1 1 1 2
M  V30 2 2 2 3
M  V30 3 1 2 4
M  V30 4 1 4 5
M  V30 5 2 5 6
M  V30 6 1 6 7
M  V30 7 2 7 8
M  V30 8 1 8 9
M  V30 9 1 9 10
M  V30 10 2 10 11
M  V30 11 1 11 12
M  V30 12 1 12 13
M  V30 13 2 13 14
M  V30 14 1 14 15
M  V30 15 1 15 16
M  V30 16 2 16 17
M  V30 17 1 17 18
M  V30 18 2 18 19
M  V30 19 1 19 20
M  V30 20 1 20 21
M  V30 21 1 21 22
M  V30 22 1 22 23
M  V30 23 1 23 24
M  V30 24 1 24 25
M  V30 25 1 25 26
M  V30 26 1 26 27
M  V30 27 2 20 28
M  V30 28 2 12 29
M  V30 29 1 29 30
M  V30 30 2 30 31
M  V30 31 2 9 32
M  V30 32 1 32 5
M  V30 33 1 31 10
M  V30 34 1 28 13
M  V30 35 1 28 16
M  V30 36 1 27 22
M  V30 37 1 1 33
M  V30 38 1 1 34
M  V30 39 1 1 35
M  V30 40 1 4 36
M  V30 41 1 6 37
M  V30 42 1 7 38
M  V30 43 1 8 39
M  V30 44 1 11 40
M  V30 45 1 15 41
M  V30 46 1 17 42
M  V30 47 1 18 43
M  V30 48 1 22 44
M  V30 49 1 23 45
M  V30 50 1 23 46
M  V30 51 1 24 47
M  V30 52 1 24 48
M  V30 53 1 26 49
M  V30 54 1 26 50
M  V30 55 1 27 51
M  V30 56 1 27 52
M  V30 57 1 29 53
M  V30 58 1 30 54
M  V30 59 1 32 55
M  V30 END BOND
M  V30 END CTAB
M  END
>  <Dataset>  (322) 
ChEMBL_Kinases

>  <Ligand_Instance>  (322) 
nan

>  <PDB_ID>  (322) 
nan

>  <Standardized_SMILES>  (322) 
CC(=O)Nc1cccc(-c2cc(-c3n[nH]c4ccnc(OC5CCOCC5)c34)ccn2)c1

>  <Name>  (322) 
nan

>  <Pocket>  (322) 
nan

>  <ATP_Site>  (322) 
nan

>  <Peripheral>  (322) 
nan

>  <Num_H_Atoms_ProtBoundConf>  (322) 
nan

>  <Num_Resolved_Atoms>  (322) 
nan

>  <Num_Not_Resolved_Atoms>  (322) 
nan

$$$$
CHEMBL3655549
     RDKit          3D

  0  0  0  0  0  0  0  0  0  0999 V3000
M  V30 BEGIN CTAB
M  V30 COUNTS 55 59 0 0 0
M  V30 BEGIN ATOM
M  V30 1 C 3.821624 -6.723618 3.452948 0
M  V30 2 C 3.312424 -5.462716 2.862301 0
M  V30 3 O 3.041025 -4.555460 3.684101 0
M  V30 4 N 3.126290 -5.244022 1.476365 0
M  V30 5 C 2.649827 -4.086137 0.817724 0
M  V30 6 C 2.260304 -2.906845 1.402428 0
M  V30 7 C 1.806263 -1.822252 0.685096 0
M  V30 8 C 1.717555 -1.866429 -0.689946 0
M  V30 9 C 1.251336 -0.779965 -1.544154 0
M  V30 10 C 0.857725 0.397077 -0.999486 0
M  V30 11 C 0.409312 1.453066 -1.762418 0
M  V30 12 C -0.067820 2.768745 -1.368557 0
M  V30 13 N 0.423809 3.894189 -1.964282 0
M  V30 14 N -0.157215 4.955035 -1.453637 0
M  V30 15 C -1.052000 4.636062 -0.510093 0
M  V30 16 C -1.926388 5.298201 0.326697 0
M  V30 17 C -2.714751 4.555162 1.187055 0
M  V30 18 N -2.614423 3.217993 1.190366 0
M  V30 19 C -1.775166 2.534930 0.391164 0
M  V30 20 O -1.726326 1.163433 0.446460 0
M  V30 21 C -2.498517 0.363952 1.288613 0
M  V30 22 C -3.304378 -0.623473 0.468855 0
M  V30 23 C -4.088334 -1.541376 1.409871 0
M  V30 24 O -3.145385 -2.315372 2.076866 0
M  V30 25 C -2.429027 -1.493648 2.946703 0
M  V30 26 C -1.619276 -0.439505 2.216579 0
M  V30 27 C -0.984430 3.260903 -0.468911 0
M  V30 28 C 0.392379 1.216904 -3.143529 0
M  V30 29 C 0.791187 0.026277 -3.688937 0
M  V30 30 N 1.212971 -0.948739 -2.874370 0
M  V30 31 C 2.109234 -3.051537 -1.274787 0
M  V30 32 C 2.562791 -4.133945 -0.553260 0
M  V30 33 H 4.798557 -6.600141 3.957919 0
M  V30 34 H 3.111730 -7.056153 4.255065 0
M  V30 35 H 3.819914 -7.539307 2.695868 0
M  V30 36 H 3.396737 -6.091097 0.932547 0
M  V30 37 H 2.302346 -2.803017 2.453897 0
M  V30 38 H 1.514636 -0.923846 1.189654 0
M  V30 39 H 0.870321 0.614478 0.057942 0
M  V30 40 H 0.054294 5.949653 -1.750663 0
M  V30 41 H -1.945208 6.391659 0.259429 0
M  V30 42 H -3.394363 5.116191 1.834134 0
M  V30 43 H -3.180687 0.979643 1.937931 0
M  V30 44 H -4.060707 -0.128610 -0.163517 0
M  V30 45 H -2.594388 -1.205996 -0.136050 0
M  V30 46 H -4.694094 -2.202941 0.763239 0
M  V30 47 H -4.676539 -0.920086 2.109831 0
M  V30 48 H -1.706629 -2.164485 3.458817 0
M  V30 49 H -3.039838 -0.985907 3.699690 0
M  V30 50 H -1.205255 0.243257 2.961646 0
M  V30 51 H -0.845368 -0.931812 1.608014 0
M  V30 52 H 0.061588 1.962551 -3.876364 0
M  V30 53 H 0.794901 -0.199009 -4.742264 0
M  V30 54 H 2.065941 -3.155542 -2.345173 0
M  V30 55 H 2.854573 -5.037312 -1.088173 0
M  V30 END ATOM
M  V30 BEGIN BOND
M  V30 1 1 1 2
M  V30 2 2 2 3
M  V30 3 1 2 4
M  V30 4 1 4 5
M  V30 5 2 5 6
M  V30 6 1 6 7
M  V30 7 2 7 8
M  V30 8 1 8 9
M  V30 9 2 9 10
M  V30 10 1 10 11
M  V30 11 1 11 12
M  V30 12 2 12 13
M  V30 13 1 13 14
M  V30 14 1 14 15
M  V30 15 2 15 16
M  V30 16 1 16 17
M  V30 17 2 17 18
M  V30 18 1 18 19
M  V30 19 1 19 20
M  V30 20 1 20 21
M  V30 21 1 21 22
M  V30 22 1 22 23
M  V30 23 1 23 24
M  V30 24 1 24 25
M  V30 25 1 25 26
M  V30 26 2 19 27
M  V30 27 2 11 28
M  V30 28 1 28 29
M  V30 29 2 29 30
M  V30 30 1 8 31
M  V30 31 2 31 32
M  V30 32 1 32 5
M  V30 33 1 30 9
M  V30 34 1 27 12
M  V30 35 1 27 15
M  V30 36 1 26 21
M  V30 37 1 1 33
M  V30 38 1 1 34
M  V30 39 1 1 35
M  V30 40 1 4 36
M  V30 41 1 6 37
M  V30 42 1 7 38
M  V30 43 1 10 39
M  V30 44 1 14 40
M  V30 45 1 16 41
M  V30 46 1 17 42
M  V30 47 1 21 43
M  V30 48 1 22 44
M  V30 49 1 22 45
M  V30 50 1 23 46
M  V30 51 1 23 47
M  V30 52 1 25 48
M  V30 53 1 25 49
M  V30 54 1 26 50
M  V30 55 1 26 51
M  V30 56 1 28 52
M  V30 57 1 29 53
M  V30 58 1 31 54
M  V30 59 1 32 55
M  V30 END BOND
M  V30 END CTAB
M  END
>  <Dataset>  (323) 
ChEMBL_Kinases

>  <Ligand_Instance>  (323) 
nan

>  <PDB_ID>  (323) 
nan

>  <Standardized_SMILES>  (323) 
CC(=O)Nc1ccc(-c2cc(-c3n[nH]c4ccnc(OC5CCOCC5)c34)ccn2)cc1

>  <Name>  (323) 
nan

>  <Pocket>  (323) 
nan

>  <ATP_Site>  (323) 
nan

>  <Peripheral>  (323) 
nan

>  <Num_H_Atoms_ProtBoundConf>  (323) 
nan

>  <Num_Resolved_Atoms>  (323) 
nan

>  <Num_Not_Resolved_Atoms>  (323) 
nan

$$$$
CHEMBL3655550
     RDKit          3D

  0  0  0  0  0  0  0  0  0  0999 V3000
M  V30 BEGIN CTAB
M  V30 COUNTS 58 62 0 0 0
M  V30 BEGIN ATOM
M  V30 1 C 2.218629 -3.313967 3.608402 0
M  V30 2 N 3.663858 -3.129980 3.452993 0
M  V30 3 C 4.283381 -3.765156 4.613022 0
M  V30 4 C 4.430716 -2.486651 2.443835 0
M  V30 5 O 5.676668 -2.350526 2.340300 0
M  V30 6 C 3.706288 -1.866820 1.329761 0
M  V30 7 C 3.864629 -2.025861 -0.021591 0
M  V30 8 C 3.078121 -1.321559 -0.885821 0
M  V30 9 C 2.106453 -0.434455 -0.517576 0
M  V30 10 C 1.323707 0.303780 -1.497934 0
M  V30 11 C 0.363341 1.227019 -1.203271 0
M  V30 12 C -0.384207 1.977534 -2.105306 0
M  V30 13 C -1.313015 2.854377 -1.403081 0
M  V30 14 N -1.472156 4.212831 -1.454900 0
M  V30 15 N -2.430468 4.574367 -0.632054 0
M  V30 16 C -2.954123 3.527822 -0.005712 0
M  V30 17 C -3.954191 3.387669 0.917606 0
M  V30 18 C -4.339776 2.177897 1.427027 0
M  V30 19 N -3.667476 1.119994 0.957554 0
M  V30 20 C -2.678257 1.189624 0.054468 0
M  V30 21 O -2.048135 0.047300 -0.378707 0
M  V30 22 C -2.368782 -1.256650 0.079753 0
M  V30 23 C -1.129000 -2.069255 0.258221 0
M  V30 24 C -1.403979 -3.539686 0.425782 0
M  V30 25 O -2.205932 -4.039875 -0.598006 0
M  V30 26 C -3.447878 -3.380062 -0.518657 0
M  V30 27 C -3.260198 -1.953992 -0.966743 0
M  V30 28 C -2.262608 2.405026 -0.477516 0
M  V30 29 C -0.121759 1.761632 -3.441678 0
M  V30 30 C 0.845583 0.830483 -3.747975 0
M  V30 31 N 1.544848 0.125225 -2.814278 0
M  V30 32 C 1.937156 -0.269337 0.845259 0
M  V30 33 C 2.728954 -0.978219 1.770167 0
M  V30 34 H 1.950974 -4.368678 3.839625 0
M  V30 35 H 1.788557 -2.615540 4.350645 0
M  V30 36 H 1.794010 -3.092365 2.618600 0
M  V30 37 H 4.079978 -4.849123 4.651592 0
M  V30 38 H 5.381216 -3.665817 4.522429 0
M  V30 39 H 3.896969 -3.306064 5.545507 0
M  V30 40 H 4.636767 -2.735023 -0.274264 0
M  V30 41 H 3.269355 -1.502760 -1.925473 0
M  V30 42 H 0.247601 1.337585 -0.131850 0
M  V30 43 H -2.736494 5.588977 -0.494780 0
M  V30 44 H -4.496191 4.270190 1.288671 0
M  V30 45 H -5.124528 2.124711 2.150192 0
M  V30 46 H -3.017196 -1.239872 0.989816 0
M  V30 47 H -0.543807 -1.761315 1.152065 0
M  V30 48 H -0.487211 -1.902141 -0.633213 0
M  V30 49 H -1.842860 -3.720606 1.439365 0
M  V30 50 H -0.414302 -4.064343 0.372653 0
M  V30 51 H -3.815310 -3.466687 0.522070 0
M  V30 52 H -4.111740 -3.915964 -1.241135 0
M  V30 53 H -4.257530 -1.435927 -0.971057 0
M  V30 54 H -2.779568 -1.953350 -1.952224 0
M  V30 55 H -0.737631 2.377082 -4.061122 0
M  V30 56 H 1.002952 0.707865 -4.826943 0
M  V30 57 H 1.205065 0.397116 1.264202 0
M  V30 58 H 2.525136 -0.786337 2.838554 0
M  V30 END ATOM
M  V30 BEGIN BOND
M  V30 1 1 1 2
M  V30 2 1 2 3
M  V30 3 1 2 4
M  V30 4 2 4 5
M  V30 5 1 4 6
M  V30 6 2 6 7
M  V30 7 1 7 8
M  V30 8 2 8 9
M  V30 9 1 9 10
M  V30 10 2 10 11
M  V30 11 1 11 12
M  V30 12 1 12 13
M  V30 13 2 13 14
M  V30 14 1 14 15
M  V30 15 1 15 16
M  V30 16 2 16 17
M  V30 17 1 17 18
M  V30 18 2 18 19
M  V30 19 1 19 20
M  V30 20 1 20 21
M  V30 21 1 21 22
M  V30 22 1 22 23
M  V30 23 1 23 24
M  V30 24 1 24 25
M  V30 25 1 25 26
M  V30 26 1 26 27
M  V30 27 2 20 28
M  V30 28 2 12 29
M  V30 29 1 29 30
M  V30 30 2 30 31
M  V30 31 1 9 32
M  V30 32 2 32 33
M  V30 33 1 33 6
M  V30 34 1 31 10
M  V30 35 1 28 13
M  V30 36 1 28 16
M  V30 37 1 27 22
M  V30 38 1 1 34
M  V30 39 1 1 35
M  V30 40 1 1 36
M  V30 41 1 3 37
M  V30 42 1 3 38
M  V30 43 1 3 39
M  V30 44 1 7 40
M  V30 45 1 8 41
M  V30 46 1 11 42
M  V30 47 1 15 43
M  V30 48 1 17 44
M  V30 49 1 18 45
M  V30 50 1 22 46
M  V30 51 1 23 47
M  V30 52 1 23 48
M  V30 53 1 24 49
M  V30 54 1 24 50
M  V30 55 1 26 51
M  V30 56 1 26 52
M  V30 57 1 27 53
M  V30 58 1 27 54
M  V30 59 1 29 55
M  V30 60 1 30 56
M  V30 61 1 32 57
M  V30 62 1 33 58
M  V30 END BOND
M  V30 END CTAB
M  END
>  <Dataset>  (324) 
ChEMBL_Kinases

>  <Ligand_Instance>  (324) 
nan

>  <PDB_ID>  (324) 
nan

>  <Standardized_SMILES>  (324) 
CN(C)C(=O)c1ccc(-c2cc(-c3n[nH]c4ccnc(OC5CCOCC5)c34)ccn2)cc1

>  <Name>  (324) 
nan

>  <Pocket>  (324) 
nan

>  <ATP_Site>  (324) 
nan

>  <Peripheral>  (324) 
nan

>  <Num_H_Atoms_ProtBoundConf>  (324) 
nan

>  <Num_Resolved_Atoms>  (324) 
nan

>  <Num_Not_Resolved_Atoms>  (324) 
nan

$$$$
CHEMBL3655551
     RDKit          3D

  0  0  0  0  0  0  0  0  0  0999 V3000
M  V30 BEGIN CTAB
M  V30 COUNTS 51 55 0 0 0
M  V30 BEGIN ATOM
M  V30 1 C -2.798792 -0.474743 4.973089 0
M  V30 2 C -1.439504 0.040507 5.386906 0
M  V30 3 N -0.393151 -0.744664 4.734908 0
M  V30 4 C 0.201906 -0.527849 3.547456 0
M  V30 5 C 1.141360 -1.508569 3.302142 0
M  V30 6 C 2.030717 -1.699692 2.161125 0
M  V30 7 C 1.960356 -0.789798 1.148209 0
M  V30 8 C 2.761231 -0.888917 0.030745 0
M  V30 9 C 2.823582 -0.038495 -1.150154 0
M  V30 10 N 4.042997 0.399643 -1.580605 0
M  V30 11 N 3.905361 1.141899 -2.650972 0
M  V30 12 C 2.612291 1.249309 -3.003782 0
M  V30 13 C 1.827456 1.849159 -3.980653 0
M  V30 14 C 0.438757 1.680669 -3.966460 0
M  V30 15 N -0.148520 0.934536 -3.004523 0
M  V30 16 C 0.573087 0.336410 -2.040093 0
M  V30 17 O -0.081809 -0.401918 -1.103300 0
M  V30 18 C -1.442746 -0.633109 -1.002107 0
M  V30 19 C -1.870674 -2.054793 -1.112569 0
M  V30 20 C -2.526912 -2.451442 0.215381 0
M  V30 21 O -3.669568 -1.706542 0.407840 0
M  V30 22 C -3.515017 -0.344523 0.287411 0
M  V30 23 C -2.052049 0.035243 0.227023 0
M  V30 24 C 1.939803 0.505567 -2.057436 0
M  V30 25 C 3.622016 -1.989459 0.056806 0
M  V30 26 C 3.710184 -2.917371 1.064830 0
M  V30 27 N 2.887637 -2.736308 2.113703 0
M  V30 28 C 1.085883 -2.332005 4.402042 0
M  V30 29 N 0.142205 -1.826240 5.238860 0
M  V30 30 H -3.208207 -1.202854 5.719056 0
M  V30 31 H -3.524254 0.359035 4.785665 0
M  V30 32 H -2.722338 -1.018189 4.017374 0
M  V30 33 H -1.342829 1.086514 5.019094 0
M  V30 34 H -1.306760 0.043566 6.496777 0
M  V30 35 H -0.022817 0.284575 2.894910 0
M  V30 36 H 1.294301 0.054402 1.160554 0
M  V30 37 H 4.662351 1.625691 -3.217031 0
M  V30 38 H 2.366175 2.430036 -4.716842 0
M  V30 39 H -0.139842 2.163401 -4.743698 0
M  V30 40 H -1.916084 -0.079942 -1.866528 0
M  V30 41 H -1.087380 -2.760530 -1.411883 0
M  V30 42 H -2.696639 -2.195133 -1.860870 0
M  V30 43 H -1.801093 -2.436302 1.031121 0
M  V30 44 H -2.889011 -3.519437 0.143552 0
M  V30 45 H -3.955047 0.126052 1.191581 0
M  V30 46 H -4.055943 0.087228 -0.587428 0
M  V30 47 H -1.995787 1.117482 0.089884 0
M  V30 48 H -1.566188 -0.290904 1.151671 0
M  V30 49 H 4.300795 -2.155992 -0.787706 0
M  V30 50 H 4.403872 -3.742064 1.009079 0
M  V30 51 H 1.682343 -3.209845 4.560505 0
M  V30 END ATOM
M  V30 BEGIN BOND
M  V30 1 1 1 2
M  V30 2 1 2 3
M  V30 3 1 3 4
M  V30 4 2 4 5
M  V30 5 1 5 6
M  V30 6 2 6 7
M  V30 7 1 7 8
M  V30 8 1 8 9
M  V30 9 2 9 10
M  V30 10 1 10 11
M  V30 11 1 11 12
M  V30 12 2 12 13
M  V30 13 1 13 14
M  V30 14 2 14 15
M  V30 15 1 15 16
M  V30 16 1 16 17
M  V30 17 1 17 18
M  V30 18 1 18 19
M  V30 19 1 19 20
M  V30 20 1 20 21
M  V30 21 1 21 22
M  V30 22 1 22 23
M  V30 23 2 16 24
M  V30 24 2 8 25
M  V30 25 1 25 26
M  V30 26 2 26 27
M  V30 27 1 5 28
M  V30 28 2 28 29
M  V30 29 1 29 3
M  V30 30 1 27 6
M  V30 31 1 24 9
M  V30 32 1 24 12
M  V30 33 1 23 18
M  V30 34 1 1 30
M  V30 35 1 1 31
M  V30 36 1 1 32
M  V30 37 1 2 33
M  V30 38 1 2 34
M  V30 39 1 4 35
M  V30 40 1 7 36
M  V30 41 1 11 37
M  V30 42 1 13 38
M  V30 43 1 14 39
M  V30 44 1 18 40
M  V30 45 1 19 41
M  V30 46 1 19 42
M  V30 47 1 20 43
M  V30 48 1 20 44
M  V30 49 1 22 45
M  V30 50 1 22 46
M  V30 51 1 23 47
M  V30 52 1 23 48
M  V30 53 1 25 49
M  V30 54 1 26 50
M  V30 55 1 28 51
M  V30 END BOND
M  V30 END CTAB
M  END
>  <Dataset>  (325) 
ChEMBL_Kinases

>  <Ligand_Instance>  (325) 
nan

>  <PDB_ID>  (325) 
nan

>  <Standardized_SMILES>  (325) 
CCn1cc(-c2cc(-c3n[nH]c4ccnc(OC5CCOCC5)c34)ccn2)cn1

>  <Name>  (325) 
nan

>  <Pocket>  (325) 
nan

>  <ATP_Site>  (325) 
nan

>  <Peripheral>  (325) 
nan

>  <Num_H_Atoms_ProtBoundConf>  (325) 
nan

>  <Num_Resolved_Atoms>  (325) 
nan

>  <Num_Not_Resolved_Atoms>  (325) 
nan

$$$$
CHEMBL3655561
     RDKit          3D

  0  0  0  0  0  0  0  0  0  0999 V3000
M  V30 BEGIN CTAB
M  V30 COUNTS 48 52 0 0 0
M  V30 BEGIN ATOM
M  V30 1 C 0.456782 -5.802416 -0.257876 0
M  V30 2 N 0.713467 -4.398277 -0.421805 0
M  V30 3 C 2.015617 -3.858886 -0.817235 0
M  V30 4 C 1.652225 -2.525115 -1.426335 0
M  V30 5 C 0.348403 -2.174510 -0.826865 0
M  V30 6 C -0.344909 -0.982691 -0.773960 0
M  V30 7 C 0.216474 0.208004 -1.400845 0
M  V30 8 N 0.592304 0.424069 -2.692658 0
M  V30 9 N 1.067880 1.640981 -2.843293 0
M  V30 10 C 1.004308 2.234609 -1.628299 0
M  V30 11 C 1.410653 3.526358 -1.324848 0
M  V30 12 C 1.257691 3.911745 -0.009739 0
M  V30 13 N 0.748383 3.104022 0.939945 0
M  V30 14 C 0.363664 1.843309 0.586743 0
M  V30 15 O -0.167658 0.972277 1.539611 0
M  V30 16 C -0.212017 1.508543 2.869470 0
M  V30 17 C 0.442042 0.549633 3.832573 0
M  V30 18 C -0.483735 -0.676706 3.899255 0
M  V30 19 O -1.622266 -0.238253 4.616667 0
M  V30 20 C -2.380037 0.599868 3.801381 0
M  V30 21 C -1.612990 1.785404 3.327125 0
M  V30 22 C 0.475350 1.364730 -0.699020 0
M  V30 23 C -1.561639 -0.844895 -0.162458 0
M  V30 24 C -2.091624 -1.993193 0.424124 0
M  V30 25 C -1.421139 -3.199999 0.386927 0
M  V30 26 C -0.179692 -3.300522 -0.246808 0
M  V30 27 H -0.603763 -6.073970 -0.398553 0
M  V30 28 H 1.055545 -6.344417 -1.043124 0
M  V30 29 H 0.878173 -6.094979 0.728625 0
M  V30 30 H 2.531787 -4.490053 -1.550629 0
M  V30 31 H 2.644103 -3.674702 0.089170 0
M  V30 32 H 1.619286 -2.553060 -2.551606 0
M  V30 33 H 2.438141 -1.768233 -1.163452 0
M  V30 34 H 1.386922 1.918142 -3.795379 0
M  V30 35 H 1.828889 4.186933 -2.100434 0
M  V30 36 H 1.570705 4.914820 0.241867 0
M  V30 37 H 0.322265 2.493888 2.900868 0
M  V30 38 H 1.461960 0.250967 3.501289 0
M  V30 39 H 0.451488 1.030691 4.834184 0
M  V30 40 H -0.774138 -0.997975 2.872537 0
M  V30 41 H 0.013832 -1.457165 4.475031 0
M  V30 42 H -3.200438 1.000901 4.462886 0
M  V30 43 H -2.879972 0.090194 2.971801 0
M  V30 44 H -1.517665 2.504439 4.191065 0
M  V30 45 H -2.161921 2.249067 2.467501 0
M  V30 46 H -2.161308 0.045239 -0.081898 0
M  V30 47 H -3.047220 -1.956326 0.921060 0
M  V30 48 H -1.800183 -4.119701 0.830141 0
M  V30 END ATOM
M  V30 BEGIN BOND
M  V30 1 1 1 2
M  V30 2 1 2 3
M  V30 3 1 3 4
M  V30 4 1 4 5
M  V30 5 2 5 6
M  V30 6 1 6 7
M  V30 7 2 7 8
M  V30 8 1 8 9
M  V30 9 1 9 10
M  V30 10 2 10 11
M  V30 11 1 11 12
M  V30 12 2 12 13
M  V30 13 1 13 14
M  V30 14 1 14 15
M  V30 15 1 15 16
M  V30 16 1 16 17
M  V30 17 1 17 18
M  V30 18 1 18 19
M  V30 19 1 19 20
M  V30 20 1 20 21
M  V30 21 2 14 22
M  V30 22 1 6 23
M  V30 23 2 23 24
M  V30 24 1 24 25
M  V30 25 2 25 26
M  V30 26 1 26 2
M  V30 27 1 26 5
M  V30 28 1 22 7
M  V30 29 1 22 10
M  V30 30 1 21 16
M  V30 31 1 1 27
M  V30 32 1 1 28
M  V30 33 1 1 29
M  V30 34 1 3 30
M  V30 35 1 3 31
M  V30 36 1 4 32
M  V30 37 1 4 33
M  V30 38 1 9 34
M  V30 39 1 11 35
M  V30 40 1 12 36
M  V30 41 1 16 37
M  V30 42 1 17 38
M  V30 43 1 17 39
M  V30 44 1 18 40
M  V30 45 1 18 41
M  V30 46 1 20 42
M  V30 47 1 20 43
M  V30 48 1 21 44
M  V30 49 1 21 45
M  V30 50 1 23 46
M  V30 51 1 24 47
M  V30 52 1 25 48
M  V30 END BOND
M  V30 END CTAB
M  END
>  <Dataset>  (326) 
ChEMBL_Kinases

>  <Ligand_Instance>  (326) 
nan

>  <PDB_ID>  (326) 
nan

>  <Standardized_SMILES>  (326) 
CN1CCc2c(-c3n[nH]c4ccnc(OC5CCOCC5)c34)cccc21

>  <Name>  (326) 
nan

>  <Pocket>  (326) 
nan

>  <ATP_Site>  (326) 
nan

>  <Peripheral>  (326) 
nan

>  <Num_H_Atoms_ProtBoundConf>  (326) 
nan

>  <Num_Resolved_Atoms>  (326) 
nan

>  <Num_Not_Resolved_Atoms>  (326) 
nan

$$$$
CHEMBL3655553
     RDKit          3D

  0  0  0  0  0  0  0  0  0  0999 V3000
M  V30 BEGIN CTAB
M  V30 COUNTS 57 61 0 0 0
M  V30 BEGIN ATOM
M  V30 1 C -1.547019 -2.952427 3.497441 0
M  V30 2 C -0.034163 -3.065813 3.400349 0
M  V30 3 C 0.406133 -4.498833 3.242750 0
M  V30 4 N 0.511940 -2.190940 2.377170 0
M  V30 5 C 1.460714 -1.235157 2.369149 0
M  V30 6 C 1.578970 -0.692584 1.077255 0
M  V30 7 C 2.567662 0.346515 0.864938 0
M  V30 8 N 3.856037 0.240241 1.257753 0
M  V30 9 N 4.530440 1.328288 0.967791 0
M  V30 10 C 3.696582 2.185693 0.372409 0
M  V30 11 C 3.798394 3.455770 -0.131595 0
M  V30 12 C 2.695500 4.065122 -0.675415 0
M  V30 13 N 1.515651 3.428031 -0.716947 0
M  V30 14 C 1.332180 2.158907 -0.234151 0
M  V30 15 O 0.138824 1.791058 -0.386848 0
M  V30 16 C -1.096960 1.409453 -0.544743 0
M  V30 17 C -2.045753 1.909406 0.595536 0
M  V30 18 C -3.187675 0.932064 0.631777 0
M  V30 19 O -3.414478 0.447026 -0.659811 0
M  V30 20 C -3.262339 1.444226 -1.615842 0
M  V30 21 C -1.824492 1.883593 -1.799546 0
M  V30 22 C 2.461927 1.593089 0.296507 0
M  V30 23 C 0.644806 -1.402078 0.371688 0
M  V30 24 C -0.021126 -2.331039 1.175301 0
M  V30 25 C -1.017479 -3.064336 0.423697 0
M  V30 26 O -2.240610 -3.306316 0.539731 0
M  V30 27 N -0.745884 -3.752865 -0.787641 0
M  V30 28 C -1.617917 -4.524781 -1.679637 0
M  V30 29 C -0.717917 -4.061304 -2.820773 0
M  V30 30 C 0.324669 -4.083290 -1.741789 0
M  V30 31 H -1.989416 -3.915440 3.170914 0
M  V30 32 H -1.960087 -2.068027 2.989017 0
M  V30 33 H -1.900156 -2.851460 4.561277 0
M  V30 34 H 0.350036 -2.746804 4.414505 0
M  V30 35 H 1.250588 -4.784768 3.920300 0
M  V30 36 H -0.436275 -5.172924 3.477181 0
M  V30 37 H 0.832164 -4.640747 2.224830 0
M  V30 38 H 1.935755 -1.070766 3.328527 0
M  V30 39 H 5.540784 1.506188 1.161445 0
M  V30 40 H 4.777927 3.906633 -0.069392 0
M  V30 41 H 2.923478 5.064470 -1.035970 0
M  V30 42 H -1.284041 0.305633 -0.531252 0
M  V30 43 H -1.459873 1.835550 1.517374 0
M  V30 44 H -2.355010 2.932552 0.343352 0
M  V30 45 H -4.083343 1.280148 1.151320 0
M  V30 46 H -2.798757 0.041579 1.198990 0
M  V30 47 H -3.599349 0.965921 -2.581144 0
M  V30 48 H -3.898018 2.303466 -1.382364 0
M  V30 49 H -1.410882 1.357905 -2.670053 0
M  V30 50 H -1.791508 2.983373 -1.901422 0
M  V30 51 H 0.627965 -1.088209 -0.688906 0
M  V30 52 H -1.501148 -5.619441 -1.548250 0
M  V30 53 H -2.656769 -4.142402 -1.767851 0
M  V30 54 H -0.967618 -3.063362 -3.249030 0
M  V30 55 H -0.600739 -4.789045 -3.638244 0
M  V30 56 H 1.119180 -3.344732 -1.773534 0
M  V30 57 H 0.650511 -5.155758 -1.597035 0
M  V30 END ATOM
M  V30 BEGIN BOND
M  V30 1 1 1 2
M  V30 2 1 2 3
M  V30 3 1 2 4
M  V30 4 1 4 5
M  V30 5 2 5 6
M  V30 6 1 6 7
M  V30 7 2 7 8
M  V30 8 1 8 9
M  V30 9 1 9 10
M  V30 10 2 10 11
M  V30 11 1 11 12
M  V30 12 2 12 13
M  V30 13 1 13 14
M  V30 14 1 14 15
M  V30 15 1 15 16
M  V30 16 1 16 17
M  V30 17 1 17 18
M  V30 18 1 18 19
M  V30 19 1 19 20
M  V30 20 1 20 21
M  V30 21 2 14 22
M  V30 22 1 6 23
M  V30 23 2 23 24
M  V30 24 1 24 25
M  V30 25 2 25 26
M  V30 26 1 25 27
M  V30 27 1 27 28
M  V30 28 1 28 29
M  V30 29 1 29 30
M  V30 30 1 24 4
M  V30 31 1 30 27
M  V30 32 1 22 7
M  V30 33 1 22 10
M  V30 34 1 21 16
M  V30 35 1 1 31
M  V30 36 1 1 32
M  V30 37 1 1 33
M  V30 38 1 2 34
M  V30 39 1 3 35
M  V30 40 1 3 36
M  V30 41 1 3 37
M  V30 42 1 5 38
M  V30 43 1 9 39
M  V30 44 1 11 40
M  V30 45 1 12 41
M  V30 46 1 16 42
M  V30 47 1 17 43
M  V30 48 1 17 44
M  V30 49 1 18 45
M  V30 50 1 18 46
M  V30 51 1 20 47
M  V30 52 1 20 48
M  V30 53 1 21 49
M  V30 54 1 21 50
M  V30 55 1 23 51
M  V30 56 1 28 52
M  V30 57 1 28 53
M  V30 58 1 29 54
M  V30 59 1 29 55
M  V30 60 1 30 56
M  V30 61 1 30 57
M  V30 END BOND
M  V30 END CTAB
M  END
>  <Dataset>  (327) 
ChEMBL_Kinases

>  <Ligand_Instance>  (327) 
nan

>  <PDB_ID>  (327) 
nan

>  <Standardized_SMILES>  (327) 
CC(C)n1cc(-c2n[nH]c3ccnc(OC4CCOCC4)c23)cc1C(=O)N1CCC1

>  <Name>  (327) 
nan

>  <Pocket>  (327) 
nan

>  <ATP_Site>  (327) 
nan

>  <Peripheral>  (327) 
nan

>  <Num_H_Atoms_ProtBoundConf>  (327) 
nan

>  <Num_Resolved_Atoms>  (327) 
nan

>  <Num_Not_Resolved_Atoms>  (327) 
nan

$$$$
CHEMBL3655554
     RDKit          3D

  0  0  0  0  0  0  0  0  0  0999 V3000
M  V30 BEGIN CTAB
M  V30 COUNTS 49 53 0 0 0
M  V30 BEGIN ATOM
M  V30 1 C -0.026468 -2.714387 1.844451 0
M  V30 2 C 1.104883 -2.084194 2.594211 0
M  V30 3 C 0.543649 -1.265528 3.767444 0
M  V30 4 O 1.769680 -1.174229 1.773009 0
M  V30 5 C 3.117795 -1.102092 1.576191 0
M  V30 6 N 3.895382 -1.974364 2.223971 0
M  V30 7 C 5.243635 -1.969933 2.087987 0
M  V30 8 C 5.835439 -1.022575 1.244653 0
M  V30 9 C 5.038175 -0.100097 0.557265 0
M  V30 10 N 5.199071 0.925667 -0.303014 0
M  V30 11 N 4.039220 1.454883 -0.627271 0
M  V30 12 C 3.024392 0.805999 0.003968 0
M  V30 13 C 1.639768 1.205827 -0.185169 0
M  V30 14 C 1.261726 2.544276 -0.044246 0
M  V30 15 C -0.052833 2.909477 -0.249527 0
M  V30 16 N -1.009339 2.021060 -0.586076 0
M  V30 17 C -0.705542 0.716675 -0.736702 0
M  V30 18 C -1.710926 -0.290467 -1.102999 0
M  V30 19 O -1.304197 -0.763463 -2.202331 0
M  V30 20 N -2.884495 -0.660570 -0.388487 0
M  V30 21 C -3.484029 -0.222996 0.862182 0
M  V30 22 C -4.854204 -0.888072 0.791328 0 CFG=2
M  V30 23 C -4.356348 -2.271401 0.334913 0
M  V30 24 C -3.742202 -1.685432 -0.926740 0 CFG=1
M  V30 25 C -4.973231 -0.966129 -1.437638 0
M  V30 26 O -5.585989 -0.464841 -0.287797 0
M  V30 27 C 0.615453 0.349889 -0.530637 0
M  V30 28 C 3.669136 -0.160668 0.739127 0
M  V30 29 H -1.010242 -2.408324 2.303341 0
M  V30 30 H -0.026889 -3.830278 1.950974 0
M  V30 31 H -0.027100 -2.443204 0.774466 0
M  V30 32 H 1.820030 -2.826518 3.047347 0
M  V30 33 H 1.345510 -0.535034 4.053500 0
M  V30 34 H 0.336271 -1.918346 4.630355 0
M  V30 35 H -0.336711 -0.734237 3.382384 0
M  V30 36 H 5.921278 -2.650218 2.584893 0
M  V30 37 H 6.907016 -0.939505 1.071247 0
M  V30 38 H 6.163875 1.212521 -0.631702 0
M  V30 39 H 2.015183 3.279108 0.226511 0
M  V30 40 H -0.389215 3.938826 -0.150351 0
M  V30 41 H -3.551597 0.859081 0.967890 0
M  V30 42 H -2.967499 -0.724580 1.706437 0
M  V30 43 H -5.379204 -0.929973 1.731013 0
M  V30 44 H -3.584196 -2.678653 1.018920 0
M  V30 45 H -5.174892 -2.957719 0.121134 0
M  V30 46 H -3.284428 -2.382035 -1.598465 0
M  V30 47 H -5.605830 -1.748697 -1.933326 0
M  V30 48 H -4.703813 -0.142689 -2.125480 0
M  V30 49 H 0.817747 -0.699291 -0.677553 0
M  V30 END ATOM
M  V30 BEGIN BOND
M  V30 1 1 1 2
M  V30 2 1 2 3
M  V30 3 1 2 4
M  V30 4 1 4 5
M  V30 5 1 5 6
M  V30 6 2 6 7
M  V30 7 1 7 8
M  V30 8 2 8 9
M  V30 9 1 9 10
M  V30 10 1 10 11
M  V30 11 2 11 12
M  V30 12 1 12 13
M  V30 13 2 13 14
M  V30 14 1 14 15
M  V30 15 2 15 16
M  V30 16 1 16 17
M  V30 17 1 17 18
M  V30 18 2 18 19
M  V30 19 1 18 20
M  V30 20 1 20 21
M  V30 21 1 21 22
M  V30 22 1 22 23
M  V30 23 1 23 24
M  V30 24 1 24 25
M  V30 25 1 25 26
M  V30 26 2 17 27
M  V30 27 1 12 28
M  V30 28 2 28 5
M  V30 29 1 28 9
M  V30 30 1 27 13
M  V30 31 1 24 20
M  V30 32 1 26 22
M  V30 33 1 1 29
M  V30 34 1 1 30
M  V30 35 1 1 31
M  V30 36 1 2 32
M  V30 37 1 3 33
M  V30 38 1 3 34
M  V30 39 1 3 35
M  V30 40 1 7 36
M  V30 41 1 8 37
M  V30 42 1 10 38
M  V30 43 1 14 39
M  V30 44 1 15 40
M  V30 45 1 21 41
M  V30 46 1 21 42
M  V30 47 1 22 43 CFG=1
M  V30 48 1 23 44
M  V30 49 1 23 45
M  V30 50 1 24 46 CFG=3
M  V30 51 1 25 47
M  V30 52 1 25 48
M  V30 53 1 27 49
M  V30 END BOND
M  V30 END CTAB
M  END
>  <Dataset>  (328) 
ChEMBL_Kinases

>  <Ligand_Instance>  (328) 
nan

>  <PDB_ID>  (328) 
nan

>  <Standardized_SMILES>  (328) 
CC(C)Oc1nccc2[nH]nc(-c3ccnc(C(=O)N4C[C@@H]5C[C@H]4CO5)c3)c12

>  <Name>  (328) 
nan

>  <Pocket>  (328) 
nan

>  <ATP_Site>  (328) 
nan

>  <Peripheral>  (328) 
nan

>  <Num_H_Atoms_ProtBoundConf>  (328) 
nan

>  <Num_Resolved_Atoms>  (328) 
nan

>  <Num_Not_Resolved_Atoms>  (328) 
nan

$$$$
CHEMBL3655555
     RDKit          3D

  0  0  0  0  0  0  0  0  0  0999 V3000
M  V30 BEGIN CTAB
M  V30 COUNTS 52 56 0 0 0
M  V30 BEGIN ATOM
M  V30 1 O 0.558989 -4.059641 2.277353 0
M  V30 2 C -0.514753 -3.570091 1.887415 0
M  V30 3 C -0.669295 -2.121842 1.908705 0
M  V30 4 C -1.013273 -1.553832 0.718613 0
M  V30 5 C -1.170774 -0.198074 0.615030 0
M  V30 6 C -1.576428 0.678865 -0.496176 0
M  V30 7 N -2.652304 0.767851 -1.298336 0
M  V30 8 N -2.501186 1.727689 -2.186094 0
M  V30 9 C -1.291917 2.330218 -2.009766 0
M  V30 10 C -0.665663 3.352809 -2.672793 0
M  V30 11 C 0.593085 3.765461 -2.296981 0
M  V30 12 N 1.168934 3.132867 -1.272946 0
M  V30 13 C 0.571793 2.125599 -0.608175 0
M  V30 14 O 1.198073 1.484460 0.441655 0
M  V30 15 C 2.505910 1.877708 0.794360 0
M  V30 16 C 2.675962 2.235031 2.232668 0
M  V30 17 C 3.043242 1.035710 3.081284 0
M  V30 18 O 2.585115 -0.142368 2.524051 0
M  V30 19 C 3.271382 -0.458144 1.358027 0
M  V30 20 C 3.501943 0.765975 0.493285 0
M  V30 21 C -0.710474 1.662950 -0.941738 0
M  V30 22 C -0.964986 0.567619 1.778962 0
M  V30 23 C -0.619523 -0.029146 2.965781 0
M  V30 24 N -0.466983 -1.381605 3.044486 0
M  V30 25 N -1.600656 -4.344818 1.421622 0
M  V30 26 C -2.941044 -4.178011 0.913813 0
M  V30 27 C -2.932423 -4.937380 -0.367189 0
M  V30 28 C -2.036509 -6.114277 -0.061307 0
M  V30 29 C -1.557609 -5.806636 1.342596 0
M  V30 30 H -1.195461 -2.032735 -0.231130 0
M  V30 31 H -3.231356 1.957832 -2.904288 0
M  V30 32 H -1.202919 3.824428 -3.507913 0
M  V30 33 H 1.044361 4.564105 -2.838175 0
M  V30 34 H 2.811010 2.730998 0.158943 0
M  V30 35 H 3.578000 2.914193 2.270308 0
M  V30 36 H 1.844550 2.819032 2.654517 0
M  V30 37 H 2.572140 1.177215 4.071346 0
M  V30 38 H 4.147065 0.985924 3.278333 0
M  V30 39 H 4.244675 -0.958180 1.563919 0
M  V30 40 H 2.637848 -1.178054 0.814541 0
M  V30 41 H 4.510819 1.173878 0.641457 0
M  V30 42 H 3.393330 0.501961 -0.586930 0
M  V30 43 H -1.060967 1.660089 1.888832 0
M  V30 44 H -0.449930 0.520263 3.898996 0
M  V30 45 H -3.255713 -3.118728 0.842429 0
M  V30 46 H -3.647290 -4.731034 1.598581 0
M  V30 47 H -2.574966 -4.356990 -1.238735 0
M  V30 48 H -3.954241 -5.289490 -0.654457 0
M  V30 49 H -1.192715 -6.152569 -0.780010 0
M  V30 50 H -2.643776 -7.026335 -0.091483 0
M  V30 51 H -0.565909 -6.232987 1.461129 0
M  V30 52 H -2.232841 -6.264306 2.085269 0
M  V30 END ATOM
M  V30 BEGIN BOND
M  V30 1 2 1 2
M  V30 2 1 2 3
M  V30 3 2 3 4
M  V30 4 1 4 5
M  V30 5 1 5 6
M  V30 6 2 6 7
M  V30 7 1 7 8
M  V30 8 1 8 9
M  V30 9 2 9 10
M  V30 10 1 10 11
M  V30 11 2 11 12
M  V30 12 1 12 13
M  V30 13 1 13 14
M  V30 14 1 14 15
M  V30 15 1 15 16
M  V30 16 1 16 17
M  V30 17 1 17 18
M  V30 18 1 18 19
M  V30 19 1 19 20
M  V30 20 2 13 21
M  V30 21 2 5 22
M  V30 22 1 22 23
M  V30 23 2 23 24
M  V30 24 1 2 25
M  V30 25 1 25 26
M  V30 26 1 26 27
M  V30 27 1 27 28
M  V30 28 1 28 29
M  V30 29 1 24 3
M  V30 30 1 29 25
M  V30 31 1 21 6
M  V30 32 1 21 9
M  V30 33 1 20 15
M  V30 34 1 4 30
M  V30 35 1 8 31
M  V30 36 1 10 32
M  V30 37 1 11 33
M  V30 38 1 15 34
M  V30 39 1 16 35
M  V30 40 1 16 36
M  V30 41 1 17 37
M  V30 42 1 17 38
M  V30 43 1 19 39
M  V30 44 1 19 40
M  V30 45 1 20 41
M  V30 46 1 20 42
M  V30 47 1 22 43
M  V30 48 1 23 44
M  V30 49 1 26 45
M  V30 50 1 26 46
M  V30 51 1 27 47
M  V30 52 1 27 48
M  V30 53 1 28 49
M  V30 54 1 28 50
M  V30 55 1 29 51
M  V30 56 1 29 52
M  V30 END BOND
M  V30 END CTAB
M  END
>  <Dataset>  (329) 
ChEMBL_Kinases

>  <Ligand_Instance>  (329) 
nan

>  <PDB_ID>  (329) 
nan

>  <Standardized_SMILES>  (329) 
O=C(c1cc(-c2n[nH]c3ccnc(OC4CCOCC4)c23)ccn1)N1CCCC1

>  <Name>  (329) 
nan

>  <Pocket>  (329) 
nan

>  <ATP_Site>  (329) 
nan

>  <Peripheral>  (329) 
nan

>  <Num_H_Atoms_ProtBoundConf>  (329) 
nan

>  <Num_Resolved_Atoms>  (329) 
nan

>  <Num_Not_Resolved_Atoms>  (329) 
nan

$$$$
CHEMBL3655556
     RDKit          3D

  0  0  0  0  0  0  0  0  0  0999 V3000
M  V30 BEGIN CTAB
M  V30 COUNTS 42 45 0 0 0
M  V30 BEGIN ATOM
M  V30 1 C 2.383991 -3.252431 2.217265 0
M  V30 2 C 3.302472 -2.080912 2.367883 0
M  V30 3 C 3.156512 -1.501332 3.739495 0
M  V30 4 N 3.105246 -1.105240 1.315641 0
M  V30 5 C 2.087104 -1.126992 0.459354 0
M  V30 6 C 2.158470 -0.076814 -0.428952 0
M  V30 7 C 1.357055 0.405221 -1.545775 0
M  V30 8 N 1.907843 0.772512 -2.732581 0
M  V30 9 N 0.979680 1.167169 -3.560034 0
M  V30 10 C -0.236959 1.094888 -2.999544 0
M  V30 11 C -1.536825 1.377523 -3.400380 0
M  V30 12 C -2.523578 1.147922 -2.463451 0
M  V30 13 N -2.282885 0.679209 -1.225455 0
M  V30 14 C -1.018206 0.411560 -0.856137 0
M  V30 15 O -0.791215 -0.063361 0.405279 0
M  V30 16 C -1.763206 -0.304687 1.373044 0
M  V30 17 C -1.816568 -1.705865 1.896655 0
M  V30 18 C -2.127904 -1.525859 3.340796 0
M  V30 19 O -2.066127 -0.201264 3.680098 0
M  V30 20 C -1.535493 0.504247 2.617611 0
M  V30 21 C 0.016998 0.616991 -1.740839 0
M  V30 22 C 3.322877 0.595717 -0.035724 0
M  V30 23 N 3.847925 -0.073604 1.021379 0
M  V30 24 H 2.879777 -4.130837 2.703427 0
M  V30 25 H 1.419420 -3.119066 2.780829 0
M  V30 26 H 2.175421 -3.506298 1.174495 0
M  V30 27 H 4.347993 -2.474386 2.274430 0
M  V30 28 H 4.155900 -1.219606 4.150173 0
M  V30 29 H 2.476021 -0.612292 3.771257 0
M  V30 30 H 2.752337 -2.289734 4.406361 0
M  V30 31 H 1.279142 -1.835391 0.399863 0
M  V30 32 H 1.171350 1.500521 -4.546696 0
M  V30 33 H -1.698014 1.748838 -4.389787 0
M  V30 34 H -3.546665 1.363725 -2.760518 0
M  V30 35 H -2.765342 -0.059315 0.987019 0
M  V30 36 H -0.912631 -2.309566 1.712754 0
M  V30 37 H -2.663247 -2.271825 1.410037 0
M  V30 38 H -1.334945 -2.052668 3.934379 0
M  V30 39 H -3.115607 -1.946708 3.638157 0
M  V30 40 H -0.465302 0.668264 2.845493 0
M  V30 41 H -2.006347 1.503198 2.544080 0
M  V30 42 H 3.788426 1.496002 -0.449664 0
M  V30 END ATOM
M  V30 BEGIN BOND
M  V30 1 1 1 2
M  V30 2 1 2 3
M  V30 3 1 2 4
M  V30 4 1 4 5
M  V30 5 2 5 6
M  V30 6 1 6 7
M  V30 7 2 7 8
M  V30 8 1 8 9
M  V30 9 1 9 10
M  V30 10 2 10 11
M  V30 11 1 11 12
M  V30 12 2 12 13
M  V30 13 1 13 14
M  V30 14 1 14 15
M  V30 15 1 15 16
M  V30 16 1 16 17
M  V30 17 1 17 18
M  V30 18 1 18 19
M  V30 19 1 19 20
M  V30 20 2 14 21
M  V30 21 1 6 22
M  V30 22 2 22 23
M  V30 23 1 23 4
M  V30 24 1 21 7
M  V30 25 1 21 10
M  V30 26 1 20 16
M  V30 27 1 1 24
M  V30 28 1 1 25
M  V30 29 1 1 26
M  V30 30 1 2 27
M  V30 31 1 3 28
M  V30 32 1 3 29
M  V30 33 1 3 30
M  V30 34 1 5 31
M  V30 35 1 9 32
M  V30 36 1 11 33
M  V30 37 1 12 34
M  V30 38 1 16 35
M  V30 39 1 17 36
M  V30 40 1 17 37
M  V30 41 1 18 38
M  V30 42 1 18 39
M  V30 43 1 20 40
M  V30 44 1 20 41
M  V30 45 1 22 42
M  V30 END BOND
M  V30 END CTAB
M  END
>  <Dataset>  (330) 
ChEMBL_Kinases

>  <Ligand_Instance>  (330) 
nan

>  <PDB_ID>  (330) 
nan

>  <Standardized_SMILES>  (330) 
CC(C)n1cc(-c2n[nH]c3ccnc(OC4CCOC4)c23)cn1

>  <Name>  (330) 
nan

>  <Pocket>  (330) 
nan

>  <ATP_Site>  (330) 
nan

>  <Peripheral>  (330) 
nan

>  <Num_H_Atoms_ProtBoundConf>  (330) 
nan

>  <Num_Resolved_Atoms>  (330) 
nan

>  <Num_Not_Resolved_Atoms>  (330) 
nan

$$$$
CHEMBL3655557
     RDKit          3D

  0  0  0  0  0  0  0  0  0  0999 V3000
M  V30 BEGIN CTAB
M  V30 COUNTS 36 39 0 0 0
M  V30 BEGIN ATOM
M  V30 1 C 1.162829 -2.761649 3.747855 0
M  V30 2 O 1.305945 -2.328209 2.433313 0
M  V30 3 C 1.745036 -3.051167 1.357791 0
M  V30 4 N 2.100113 -4.342139 1.503032 0
M  V30 5 C 2.542035 -5.114234 0.481264 0
M  V30 6 C 2.644445 -4.570726 -0.796649 0
M  V30 7 C 2.290898 -3.249857 -0.992177 0
M  V30 8 N 2.241877 -2.380564 -2.018230 0
M  V30 9 N 1.809258 -1.206106 -1.625425 0
M  V30 10 C 1.540053 -1.227387 -0.286631 0
M  V30 11 C 1.040094 -0.042034 0.402819 0
M  V30 12 C 1.348826 0.615123 1.575776 0
M  V30 13 N 0.538350 1.681013 1.724832 0
M  V30 14 N -0.297104 1.744804 0.680982 0
M  V30 15 C -1.296142 2.789038 0.552594 0
M  V30 16 C -1.836942 2.876880 -0.850632 0
M  V30 17 C -3.202331 2.232461 -0.826166 0
M  V30 18 O -3.284565 1.625550 0.422531 0
M  V30 19 C -2.563984 2.395769 1.320494 0
M  V30 20 C -0.011878 0.722052 -0.120692 0
M  V30 21 C 1.848597 -2.517760 0.089958 0
M  V30 22 H 1.719056 -3.669276 4.002933 0
M  V30 23 H 0.080074 -2.810056 3.983985 0
M  V30 24 H 1.584985 -1.936802 4.392114 0
M  V30 25 H 2.827305 -6.151176 0.597782 0
M  V30 26 H 2.988848 -5.119760 -1.669203 0
M  V30 27 H 2.533453 -2.689180 -2.985246 0
M  V30 28 H 2.143033 0.254072 2.213556 0
M  V30 29 H -0.907093 3.743715 0.927768 0
M  V30 30 H -1.955101 3.957388 -1.156255 0
M  V30 31 H -1.206131 2.418426 -1.620253 0
M  V30 32 H -4.035918 2.976745 -0.863581 0
M  V30 33 H -3.325863 1.455683 -1.621031 0
M  V30 34 H -3.068114 3.284313 1.693843 0
M  V30 35 H -2.274220 1.710247 2.160625 0
M  V30 36 H -0.556057 0.557933 -1.038695 0
M  V30 END ATOM
M  V30 BEGIN BOND
M  V30 1 1 1 2
M  V30 2 1 2 3
M  V30 3 2 3 4
M  V30 4 1 4 5
M  V30 5 2 5 6
M  V30 6 1 6 7
M  V30 7 1 7 8
M  V30 8 1 8 9
M  V30 9 2 9 10
M  V30 10 1 10 11
M  V30 11 1 11 12
M  V30 12 2 12 13
M  V30 13 1 13 14
M  V30 14 1 14 15
M  V30 15 1 15 16
M  V30 16 1 16 17
M  V30 17 1 17 18
M  V30 18 1 18 19
M  V30 19 1 14 20
M  V30 20 1 10 21
M  V30 21 1 21 3
M  V30 22 2 21 7
M  V30 23 2 20 11
M  V30 24 1 19 15
M  V30 25 1 1 22
M  V30 26 1 1 23
M  V30 27 1 1 24
M  V30 28 1 5 25
M  V30 29 1 6 26
M  V30 30 1 8 27
M  V30 31 1 12 28
M  V30 32 1 15 29
M  V30 33 1 16 30
M  V30 34 1 16 31
M  V30 35 1 17 32
M  V30 36 1 17 33
M  V30 37 1 19 34
M  V30 38 1 19 35
M  V30 39 1 20 36
M  V30 END BOND
M  V30 END CTAB
M  END
>  <Dataset>  (331) 
ChEMBL_Kinases

>  <Ligand_Instance>  (331) 
nan

>  <PDB_ID>  (331) 
nan

>  <Standardized_SMILES>  (331) 
COc1nccc2[nH]nc(-c3cnn(C4CCOC4)c3)c12

>  <Name>  (331) 
nan

>  <Pocket>  (331) 
nan

>  <ATP_Site>  (331) 
nan

>  <Peripheral>  (331) 
nan

>  <Num_H_Atoms_ProtBoundConf>  (331) 
nan

>  <Num_Resolved_Atoms>  (331) 
nan

>  <Num_Not_Resolved_Atoms>  (331) 
nan

$$$$
CHEMBL3655558
     RDKit          3D

  0  0  0  0  0  0  0  0  0  0999 V3000
M  V30 BEGIN CTAB
M  V30 COUNTS 38 40 0 0 0
M  V30 BEGIN ATOM
M  V30 1 C -0.955650 -5.324637 2.333997 0
M  V30 2 N -0.337459 -4.045482 2.130165 0
M  V30 3 C 1.003708 -3.767583 2.481646 0
M  V30 4 O 1.631176 -4.729983 2.993203 0
M  V30 5 C 1.734959 -2.524917 2.326539 0
M  V30 6 C 3.030579 -2.454993 2.724537 0
M  V30 7 C 3.717130 -1.272921 2.575916 0
M  V30 8 C 3.063461 -0.193137 2.023791 0
M  V30 9 C 1.731236 -0.186073 1.588003 0
M  V30 10 C 1.241876 1.066372 1.101083 0
M  V30 11 N 1.822321 2.244737 1.481944 0
M  V30 12 N 1.242264 3.268936 0.892584 0
M  V30 13 C 0.253397 2.863909 0.088856 0
M  V30 14 C -0.616551 3.506495 -0.739447 0
M  V30 15 C -1.509290 2.745930 -1.462621 0
M  V30 16 C -2.497470 3.370553 -2.392763 0
M  V30 17 N -1.478890 1.415475 -1.318078 0
M  V30 18 C -0.628930 0.796227 -0.508662 0
M  V30 19 O -0.698478 -0.567173 -0.460421 0
M  V30 20 C -1.617197 -1.303874 -1.213780 0
M  V30 21 C 0.277257 1.500737 0.236151 0
M  V30 22 C 1.163372 -1.404756 1.789151 0
M  V30 23 H -1.465688 -5.627149 1.374109 0
M  V30 24 H -0.208675 -6.102014 2.539767 0
M  V30 25 H -1.782802 -5.287331 3.076077 0
M  V30 26 H -0.877917 -3.263892 1.704375 0
M  V30 27 H 3.532768 -3.300653 3.152592 0
M  V30 28 H 4.743320 -1.243869 2.899536 0
M  V30 29 H 3.709429 0.679124 1.957846 0
M  V30 30 H 2.614170 2.516877 2.128128 0
M  V30 31 H -0.605441 4.579311 -0.825426 0
M  V30 32 H -2.227910 4.387742 -2.688928 0
M  V30 33 H -2.577390 2.692595 -3.280551 0
M  V30 34 H -3.489732 3.296372 -1.876868 0
M  V30 35 H -1.510190 -1.109834 -2.314966 0
M  V30 36 H -1.412526 -2.384415 -1.066743 0
M  V30 37 H -2.669789 -1.134343 -0.918252 0
M  V30 38 H 0.130272 -1.523499 1.549691 0
M  V30 END ATOM
M  V30 BEGIN BOND
M  V30 1 1 1 2
M  V30 2 1 2 3
M  V30 3 2 3 4
M  V30 4 1 3 5
M  V30 5 2 5 6
M  V30 6 1 6 7
M  V30 7 2 7 8
M  V30 8 1 8 9
M  V30 9 1 9 10
M  V30 10 1 10 11
M  V30 11 1 11 12
M  V30 12 2 12 13
M  V30 13 1 13 14
M  V30 14 2 14 15
M  V30 15 1 15 16
M  V30 16 1 15 17
M  V30 17 2 17 18
M  V30 18 1 18 19
M  V30 19 1 19 20
M  V30 20 1 18 21
M  V30 21 2 9 22
M  V30 22 1 22 5
M  V30 23 2 21 10
M  V30 24 1 21 13
M  V30 25 1 1 23
M  V30 26 1 1 24
M  V30 27 1 1 25
M  V30 28 1 2 26
M  V30 29 1 6 27
M  V30 30 1 7 28
M  V30 31 1 8 29
M  V30 32 1 11 30
M  V30 33 1 14 31
M  V30 34 1 16 32
M  V30 35 1 16 33
M  V30 36 1 16 34
M  V30 37 1 20 35
M  V30 38 1 20 36
M  V30 39 1 20 37
M  V30 40 1 22 38
M  V30 END BOND
M  V30 END CTAB
M  END
>  <Dataset>  (332) 
ChEMBL_Kinases

>  <Ligand_Instance>  (332) 
nan

>  <PDB_ID>  (332) 
nan

>  <Standardized_SMILES>  (332) 
CNC(=O)c1cccc(-c2[nH]nc3cc(C)nc(OC)c23)c1

>  <Name>  (332) 
nan

>  <Pocket>  (332) 
nan

>  <ATP_Site>  (332) 
nan

>  <Peripheral>  (332) 
nan

>  <Num_H_Atoms_ProtBoundConf>  (332) 
nan

>  <Num_Resolved_Atoms>  (332) 
nan

>  <Num_Not_Resolved_Atoms>  (332) 
nan

$$$$
CHEMBL3655559
     RDKit          3D

  0  0  0  0  0  0  0  0  0  0999 V3000
M  V30 BEGIN CTAB
M  V30 COUNTS 46 49 0 0 0
M  V30 BEGIN ATOM
M  V30 1 C 1.365318 -1.887002 -4.463852 0
M  V30 2 O 1.249206 -2.050500 -3.062586 0
M  V30 3 C 2.184783 -2.863861 -2.440313 0
M  V30 4 N 3.181455 -3.485319 -3.137298 0
M  V30 5 C 4.095224 -4.274628 -2.546130 0
M  V30 6 C 4.102999 -4.522524 -1.188953 0
M  V30 7 C 3.114648 -3.916663 -0.440264 0
M  V30 8 N 2.768063 -3.882664 0.858987 0
M  V30 9 N 1.705341 -3.113250 1.019083 0
M  V30 10 C 1.294976 -2.597561 -0.177954 0
M  V30 11 C 0.134989 -1.716317 -0.193806 0
M  V30 12 C -0.959224 -1.752507 -0.995540 0
M  V30 13 C -1.984629 -0.839016 -0.913105 0
M  V30 14 N -1.926513 0.149034 -0.001896 0
M  V30 15 C -0.875390 0.271003 0.845834 0
M  V30 16 N -0.843274 1.319290 1.792377 0
M  V30 17 C 0.173970 1.610581 2.762894 0
M  V30 18 C -0.518459 1.541109 4.130342 0 CFG=1
M  V30 19 C 0.446546 1.638868 5.265486 0
M  V30 20 O -1.459314 2.572620 4.131971 0
M  V30 21 C -2.483357 2.186590 3.268134 0 CFG=1
M  V30 22 C -3.761769 2.929016 3.463635 0
M  V30 23 C -1.940689 2.265192 1.856444 0
M  V30 24 C 0.133249 -0.662418 0.733656 0
M  V30 25 C 2.196365 -3.115079 -1.084371 0
M  V30 26 H 0.855597 -0.965963 -4.833391 0
M  V30 27 H 2.413154 -1.854528 -4.800225 0
M  V30 28 H 0.810821 -2.748384 -4.939724 0
M  V30 29 H 4.872993 -4.750291 -3.142730 0
M  V30 30 H 4.815550 -5.148465 -0.668298 0
M  V30 31 H 3.292975 -4.404422 1.594590 0
M  V30 32 H -1.017386 -2.537075 -1.710264 0
M  V30 33 H -2.833350 -0.920112 -1.582266 0
M  V30 34 H 0.441481 2.702893 2.664682 0
M  V30 35 H 1.066778 0.990851 2.724601 0
M  V30 36 H -1.077384 0.569450 4.123090 0
M  V30 37 H 0.027500 2.281113 6.060845 0
M  V30 38 H 1.441703 2.023959 4.918189 0
M  V30 39 H 0.661972 0.622463 5.685556 0
M  V30 40 H -2.673120 1.107375 3.514722 0
M  V30 41 H -4.575685 2.275272 3.891787 0
M  V30 42 H -4.120178 3.292241 2.482893 0
M  V30 43 H -3.665806 3.803126 4.156620 0
M  V30 44 H -2.710456 2.069286 1.094017 0
M  V30 45 H -1.503804 3.301834 1.757824 0
M  V30 46 H 0.970428 -0.561083 1.412608 0
M  V30 END ATOM
M  V30 BEGIN BOND
M  V30 1 1 1 2
M  V30 2 1 2 3
M  V30 3 2 3 4
M  V30 4 1 4 5
M  V30 5 2 5 6
M  V30 6 1 6 7
M  V30 7 1 7 8
M  V30 8 1 8 9
M  V30 9 2 9 10
M  V30 10 1 10 11
M  V30 11 2 11 12
M  V30 12 1 12 13
M  V30 13 2 13 14
M  V30 14 1 14 15
M  V30 15 1 15 16
M  V30 16 1 16 17
M  V30 17 1 17 18
M  V30 18 1 18 19
M  V30 19 1 18 20
M  V30 20 1 20 21
M  V30 21 1 21 22
M  V30 22 1 21 23
M  V30 23 2 15 24
M  V30 24 1 10 25
M  V30 25 1 25 3
M  V30 26 2 25 7
M  V30 27 1 24 11
M  V30 28 1 23 16
M  V30 29 1 1 26
M  V30 30 1 1 27
M  V30 31 1 1 28
M  V30 32 1 5 29
M  V30 33 1 6 30
M  V30 34 1 8 31
M  V30 35 1 12 32
M  V30 36 1 13 33
M  V30 37 1 17 34
M  V30 38 1 17 35
M  V30 39 1 18 36 CFG=1
M  V30 40 1 19 37
M  V30 41 1 19 38
M  V30 42 1 19 39
M  V30 43 1 21 40 CFG=1
M  V30 44 1 22 41
M  V30 45 1 22 42
M  V30 46 1 22 43
M  V30 47 1 23 44
M  V30 48 1 23 45
M  V30 49 1 24 46
M  V30 END BOND
M  V30 END CTAB
M  END
>  <Dataset>  (333) 
ChEMBL_Kinases

>  <Ligand_Instance>  (333) 
nan

>  <PDB_ID>  (333) 
nan

>  <Standardized_SMILES>  (333) 
COc1nccc2[nH]nc(-c3ccnc(N4C[C@@H](C)O[C@@H](C)C4)c3)c12

>  <Name>  (333) 
nan

>  <Pocket>  (333) 
nan

>  <ATP_Site>  (333) 
nan

>  <Peripheral>  (333) 
nan

>  <Num_H_Atoms_ProtBoundConf>  (333) 
nan

>  <Num_Resolved_Atoms>  (333) 
nan

>  <Num_Not_Resolved_Atoms>  (333) 
nan

$$$$
CHEMBL3655560
     RDKit          3D

  0  0  0  0  0  0  0  0  0  0999 V3000
M  V30 BEGIN CTAB
M  V30 COUNTS 56 59 0 0 0
M  V30 BEGIN ATOM
M  V30 1 C 1.609467 -4.387365 0.646102 0
M  V30 2 C 2.531077 -3.483788 1.409724 0
M  V30 3 C 2.080460 -3.341480 2.867017 0
M  V30 4 O 2.596867 -2.204790 0.766796 0
M  V30 5 C 3.778847 -1.573030 0.502069 0
M  V30 6 N 4.965348 -2.085143 0.839221 0
M  V30 7 C 6.096092 -1.420845 0.557106 0
M  V30 8 C 6.125479 -0.191313 -0.084860 0
M  V30 9 C 4.921464 0.371309 -0.450165 0
M  V30 10 N 4.550630 1.510626 -1.072467 0
M  V30 11 N 3.208335 1.514831 -1.156686 0
M  V30 12 C 2.737333 0.392839 -0.595504 0
M  V30 13 C 1.300919 0.240771 -0.620014 0
M  V30 14 C 0.316891 1.164811 -0.280899 0
M  V30 15 C -0.950679 0.633949 -0.475485 0
M  V30 16 C -2.248859 1.283821 -0.244576 0
M  V30 17 O -2.277747 2.045172 -1.279798 0
M  V30 18 N -3.247541 1.189252 0.759935 0
M  V30 19 C -3.238757 0.353753 1.941391 0
M  V30 20 C -4.228205 0.798365 2.977397 0
M  V30 21 O -4.624031 2.109767 2.759850 0
M  V30 22 C -5.338506 2.079418 1.539067 0
M  V30 23 C -4.355475 2.103625 0.400614 0
M  V30 24 N -0.755394 -0.637122 -0.941597 0
M  V30 25 C -1.728800 -1.651192 -1.307176 0
M  V30 26 C -2.082547 -2.488807 -0.099893 0
M  V30 27 C -2.944858 -1.114607 -1.998402 0
M  V30 28 C 0.587997 -0.873989 -1.028202 0
M  V30 29 C 3.794365 -0.356096 -0.135410 0
M  V30 30 H 2.156296 -5.188203 0.090610 0
M  V30 31 H 1.005631 -3.848345 -0.111527 0
M  V30 32 H 0.861097 -4.878723 1.308261 0
M  V30 33 H 3.586751 -3.816918 1.448500 0
M  V30 34 H 1.411458 -4.217909 3.083732 0
M  V30 35 H 2.978165 -3.413724 3.494899 0
M  V30 36 H 1.498009 -2.419706 3.044616 0
M  V30 37 H 7.085798 -1.803718 0.817641 0
M  V30 38 H 7.059433 0.319138 -0.295670 0
M  V30 39 H 5.277919 2.207912 -1.394208 0
M  V30 40 H 0.553937 2.145631 0.080444 0
M  V30 41 H -2.235581 0.454380 2.391137 0
M  V30 42 H -3.424911 -0.714546 1.692603 0
M  V30 43 H -3.846862 0.648939 4.019445 0
M  V30 44 H -5.177471 0.190314 2.932978 0
M  V30 45 H -6.031354 2.929076 1.490117 0
M  V30 46 H -5.917812 1.132178 1.558248 0
M  V30 47 H -3.988993 3.119771 0.181903 0
M  V30 48 H -4.826781 1.646540 -0.496109 0
M  V30 49 H -1.257996 -2.361067 -2.027114 0
M  V30 50 H -3.190659 -2.424330 0.016733 0
M  V30 51 H -1.596055 -2.080103 0.829294 0
M  V30 52 H -1.799198 -3.549231 -0.221955 0
M  V30 53 H -3.726234 -0.923636 -1.252409 0
M  V30 54 H -3.342116 -1.885466 -2.733472 0
M  V30 55 H -2.687155 -0.247312 -2.643183 0
M  V30 56 H 1.018017 -1.809547 -1.377827 0
M  V30 END ATOM
M  V30 BEGIN BOND
M  V30 1 1 1 2
M  V30 2 1 2 3
M  V30 3 1 2 4
M  V30 4 1 4 5
M  V30 5 2 5 6
M  V30 6 1 6 7
M  V30 7 2 7 8
M  V30 8 1 8 9
M  V30 9 1 9 10
M  V30 10 1 10 11
M  V30 11 2 11 12
M  V30 12 1 12 13
M  V30 13 1 13 14
M  V30 14 2 14 15
M  V30 15 1 15 16
M  V30 16 2 16 17
M  V30 17 1 16 18
M  V30 18 1 18 19
M  V30 19 1 19 20
M  V30 20 1 20 21
M  V30 21 1 21 22
M  V30 22 1 22 23
M  V30 23 1 15 24
M  V30 24 1 24 25
M  V30 25 1 25 26
M  V30 26 1 25 27
M  V30 27 1 24 28
M  V30 28 1 12 29
M  V30 29 1 29 5
M  V30 30 2 29 9
M  V30 31 2 28 13
M  V30 32 1 23 18
M  V30 33 1 1 30
M  V30 34 1 1 31
M  V30 35 1 1 32
M  V30 36 1 2 33
M  V30 37 1 3 34
M  V30 38 1 3 35
M  V30 39 1 3 36
M  V30 40 1 7 37
M  V30 41 1 8 38
M  V30 42 1 10 39
M  V30 43 1 14 40
M  V30 44 1 19 41
M  V30 45 1 19 42
M  V30 46 1 20 43
M  V30 47 1 20 44
M  V30 48 1 22 45
M  V30 49 1 22 46
M  V30 50 1 23 47
M  V30 51 1 23 48
M  V30 52 1 25 49
M  V30 53 1 26 50
M  V30 54 1 26 51
M  V30 55 1 26 52
M  V30 56 1 27 53
M  V30 57 1 27 54
M  V30 58 1 27 55
M  V30 59 1 28 56
M  V30 END BOND
M  V30 END CTAB
M  END
>  <Dataset>  (334) 
ChEMBL_Kinases

>  <Ligand_Instance>  (334) 
nan

>  <PDB_ID>  (334) 
nan

>  <Standardized_SMILES>  (334) 
CC(C)Oc1nccc2[nH]nc(-c3cc(C(=O)N4CCOCC4)n(C(C)C)c3)c12

>  <Name>  (334) 
nan

>  <Pocket>  (334) 
nan

>  <ATP_Site>  (334) 
nan

>  <Peripheral>  (334) 
nan

>  <Num_H_Atoms_ProtBoundConf>  (334) 
nan

>  <Num_Resolved_Atoms>  (334) 
nan

>  <Num_Not_Resolved_Atoms>  (334) 
nan

$$$$
CHEMBL3655552
     RDKit          3D

  0  0  0  0  0  0  0  0  0  0999 V3000
M  V30 BEGIN CTAB
M  V30 COUNTS 55 58 0 0 0
M  V30 BEGIN ATOM
M  V30 1 C 0.400483 -2.232784 2.770916 0
M  V30 2 C 1.539531 -1.307156 3.157538 0
M  V30 3 C 0.895054 -0.179517 3.985247 0
M  V30 4 O 2.122799 -0.799469 2.003199 0
M  V30 5 C 3.479810 -0.703530 1.828543 0
M  V30 6 N 4.537131 -1.035450 2.653870 0
M  V30 7 C 5.757303 -0.782543 2.094840 0
M  V30 8 C 6.168662 -0.273037 0.902714 0
M  V30 9 C 5.067708 0.053806 0.087002 0
M  V30 10 N 5.045236 0.562739 -1.155434 0
M  V30 11 N 3.789590 0.692550 -1.529212 0
M  V30 12 C 2.980304 0.262833 -0.518520 0
M  V30 13 C 1.522042 0.244153 -0.611726 0
M  V30 14 C 0.479846 0.678724 0.156660 0
M  V30 15 C -0.733731 0.355101 -0.409041 0
M  V30 16 C -1.976543 0.717712 0.240387 0
M  V30 17 O -2.108905 1.992981 0.159184 0
M  V30 18 N -3.007407 -0.040213 0.909807 0
M  V30 19 C -3.087257 -1.474040 1.124675 0
M  V30 20 C -4.540858 -1.731823 0.763546 0
M  V30 21 C -5.238946 -0.451717 1.108353 0
M  V30 22 C -4.178997 0.560342 1.511289 0
M  V30 23 N -0.471143 -0.286496 -1.539795 0
M  V30 24 C -1.319491 -0.864964 -2.543494 0
M  V30 25 C -1.127681 -2.370887 -2.564356 0
M  V30 26 C -2.731185 -0.439177 -2.559401 0
M  V30 27 C 0.889058 -0.372971 -1.698583 0
M  V30 28 C 3.766697 -0.166685 0.564814 0
M  V30 29 H -0.498397 -2.053037 3.401629 0
M  V30 30 H 0.760924 -3.268962 2.896264 0
M  V30 31 H 0.081906 -2.011699 1.723835 0
M  V30 32 H 2.252624 -1.777262 3.858150 0
M  V30 33 H 1.562623 0.712859 4.040641 0
M  V30 34 H -0.101210 0.071096 3.614437 0
M  V30 35 H 0.795851 -0.570000 5.014803 0
M  V30 36 H 6.566488 -1.065207 2.795664 0
M  V30 37 H 7.201743 -0.146866 0.646157 0
M  V30 38 H 5.907850 0.813546 -1.720390 0
M  V30 39 H 0.653517 1.220726 1.083407 0
M  V30 40 H -2.401249 -2.030777 0.452399 0
M  V30 41 H -2.966101 -1.714627 2.192172 0
M  V30 42 H -4.949375 -2.607632 1.292862 0
M  V30 43 H -4.537775 -1.849506 -0.357562 0
M  V30 44 H -5.939567 -0.630003 1.948052 0
M  V30 45 H -5.818852 -0.076224 0.214058 0
M  V30 46 H -4.121460 0.528144 2.618108 0
M  V30 47 H -4.408541 1.560516 1.124365 0
M  V30 48 H -0.879567 -0.530173 -3.542173 0
M  V30 49 H -1.947128 -2.914309 -3.036866 0
M  V30 50 H -0.910319 -2.684312 -1.513863 0
M  V30 51 H -0.181526 -2.599703 -3.113971 0
M  V30 52 H -3.401764 -1.345241 -2.459113 0
M  V30 53 H -3.065706 0.302242 -1.848351 0
M  V30 54 H -3.048878 -0.033031 -3.571760 0
M  V30 55 H 1.419862 -0.849976 -2.538727 0
M  V30 END ATOM
M  V30 BEGIN BOND
M  V30 1 1 1 2
M  V30 2 1 2 3
M  V30 3 1 2 4
M  V30 4 1 4 5
M  V30 5 2 5 6
M  V30 6 1 6 7
M  V30 7 2 7 8
M  V30 8 1 8 9
M  V30 9 1 9 10
M  V30 10 1 10 11
M  V30 11 2 11 12
M  V30 12 1 12 13
M  V30 13 1 13 14
M  V30 14 2 14 15
M  V30 15 1 15 16
M  V30 16 2 16 17
M  V30 17 1 16 18
M  V30 18 1 18 19
M  V30 19 1 19 20
M  V30 20 1 20 21
M  V30 21 1 21 22
M  V30 22 1 15 23
M  V30 23 1 23 24
M  V30 24 1 24 25
M  V30 25 1 24 26
M  V30 26 1 23 27
M  V30 27 1 12 28
M  V30 28 1 28 5
M  V30 29 2 28 9
M  V30 30 2 27 13
M  V30 31 1 22 18
M  V30 32 1 1 29
M  V30 33 1 1 30
M  V30 34 1 1 31
M  V30 35 1 2 32
M  V30 36 1 3 33
M  V30 37 1 3 34
M  V30 38 1 3 35
M  V30 39 1 7 36
M  V30 40 1 8 37
M  V30 41 1 10 38
M  V30 42 1 14 39
M  V30 43 1 19 40
M  V30 44 1 19 41
M  V30 45 1 20 42
M  V30 46 1 20 43
M  V30 47 1 21 44
M  V30 48 1 21 45
M  V30 49 1 22 46
M  V30 50 1 22 47
M  V30 51 1 24 48
M  V30 52 1 25 49
M  V30 53 1 25 50
M  V30 54 1 25 51
M  V30 55 1 26 52
M  V30 56 1 26 53
M  V30 57 1 26 54
M  V30 58 1 27 55
M  V30 END BOND
M  V30 END CTAB
M  END
>  <Dataset>  (335) 
ChEMBL_Kinases

>  <Ligand_Instance>  (335) 
nan

>  <PDB_ID>  (335) 
nan

>  <Standardized_SMILES>  (335) 
CC(C)Oc1nccc2[nH]nc(-c3cc(C(=O)N4CCCC4)n(C(C)C)c3)c12

>  <Name>  (335) 
nan

>  <Pocket>  (335) 
nan

>  <ATP_Site>  (335) 
nan

>  <Peripheral>  (335) 
nan

>  <Num_H_Atoms_ProtBoundConf>  (335) 
nan

>  <Num_Resolved_Atoms>  (335) 
nan

>  <Num_Not_Resolved_Atoms>  (335) 
nan

$$$$
CHEMBL3658449
     RDKit          3D

  0  0  0  0  0  0  0  0  0  0999 V3000
M  V30 BEGIN CTAB
M  V30 COUNTS 59 63 0 0 0
M  V30 BEGIN ATOM
M  V30 1 C 0.203356 3.200180 4.363269 0
M  V30 2 N 0.763381 2.295545 3.407972 0
M  V30 3 C 2.115087 1.944878 3.703583 0
M  V30 4 C 2.733341 1.221533 2.545066 0
M  V30 5 C 3.903971 2.036404 2.042884 0
M  V30 6 C 4.576514 1.377588 0.882249 0
M  V30 7 C 5.625647 0.479218 1.037003 0
M  V30 8 C 6.219260 -0.108380 -0.078235 0
M  V30 9 C 5.746430 0.218566 -1.329967 0
M  V30 10 C 4.697807 1.115776 -1.495028 0
M  V30 11 C 4.117504 1.691924 -0.378924 0
M  V30 12 C 1.721545 0.957097 1.485654 0
M  V30 13 C 0.459764 0.311671 2.030354 0
M  V30 14 N -0.564617 0.207065 1.025307 0
M  V30 15 C -1.119792 -1.054846 0.654413 0
M  V30 16 O -0.646065 -2.061539 1.271340 0
M  V30 17 C -2.152861 -1.155209 -0.359980 0
M  V30 18 C -2.693867 -0.108078 -1.046012 0
M  V30 19 C -3.676837 -0.253466 -2.004761 0
M  V30 20 C -4.147427 -1.517281 -2.296036 0
M  V30 21 N -5.065200 -2.030811 -3.138746 0
M  V30 22 N -5.101089 -3.340706 -2.990778 0
M  V30 23 C -4.217976 -3.752371 -2.052843 0
M  V30 24 C -4.007464 -5.145487 -1.648240 0
M  V30 25 C -3.911812 -6.084480 -2.677303 0
M  V30 26 C -3.713703 -7.401643 -2.320324 0
M  V30 27 N -3.607675 -7.832899 -1.043956 0
M  V30 28 C -3.705409 -6.893698 -0.072936 0
M  V30 29 C -3.901322 -5.569245 -0.339512 0
M  V30 30 C -3.611197 -2.589599 -1.611172 0
M  V30 31 C -2.624526 -2.438566 -0.649475 0
M  V30 32 C -0.081701 1.125123 3.192854 0
M  V30 33 H 0.861035 3.291560 5.255883 0
M  V30 34 H -0.818079 2.931368 4.701561 0
M  V30 35 H 0.132364 4.223240 3.901627 0
M  V30 36 H 2.661840 2.926838 3.824974 0
M  V30 37 H 2.217880 1.378701 4.660365 0
M  V30 38 H 3.176486 0.274235 2.955254 0
M  V30 39 H 4.674059 2.023467 2.857199 0
M  V30 40 H 3.675881 3.077292 1.817998 0
M  V30 41 H 5.975227 0.241843 2.028457 0
M  V30 42 H 7.035278 -0.807600 0.035629 0
M  V30 43 H 6.210161 -0.238505 -2.172745 0
M  V30 44 H 4.356863 1.344847 -2.498662 0
M  V30 45 H 3.307807 2.378340 -0.602599 0
M  V30 46 H 2.159479 0.226400 0.764494 0
M  V30 47 H 1.505217 1.862960 0.901129 0
M  V30 48 H 0.688535 -0.698984 2.409042 0
M  V30 49 H -0.879091 1.099709 0.583560 0
M  V30 50 H -2.335661 0.886171 -0.828793 0
M  V30 51 H -4.078633 0.604765 -2.525338 0
M  V30 52 H -5.617691 -1.433608 -3.773247 0
M  V30 53 H -3.983055 -5.845853 -3.735847 0
M  V30 54 H -3.634862 -8.155512 -3.088834 0
M  V30 55 H -3.617716 -7.262539 0.935393 0
M  V30 56 H -3.979173 -4.819787 0.442041 0
M  V30 57 H -2.219707 -3.288635 -0.126609 0
M  V30 58 H -0.000584 0.504699 4.102393 0
M  V30 59 H -1.138057 1.415388 3.077505 0
M  V30 END ATOM
M  V30 BEGIN BOND
M  V30 1 1 1 2
M  V30 2 1 2 3
M  V30 3 1 3 4
M  V30 4 1 4 5
M  V30 5 1 5 6
M  V30 6 2 6 7
M  V30 7 1 7 8
M  V30 8 2 8 9
M  V30 9 1 9 10
M  V30 10 2 10 11
M  V30 11 1 4 12
M  V30 12 1 12 13
M  V30 13 1 13 14
M  V30 14 1 14 15
M  V30 15 2 15 16
M  V30 16 1 15 17
M  V30 17 2 17 18
M  V30 18 1 18 19
M  V30 19 2 19 20
M  V30 20 1 20 21
M  V30 21 1 21 22
M  V30 22 2 22 23
M  V30 23 1 23 24
M  V30 24 2 24 25
M  V30 25 1 25 26
M  V30 26 2 26 27
M  V30 27 1 27 28
M  V30 28 2 28 29
M  V30 29 1 23 30
M  V30 30 2 30 31
M  V30 31 1 13 32
M  V30 32 1 32 2
M  V30 33 1 11 6
M  V30 34 1 31 17
M  V30 35 1 30 20
M  V30 36 1 29 24
M  V30 37 1 1 33
M  V30 38 1 1 34
M  V30 39 1 1 35
M  V30 40 1 3 36
M  V30 41 1 3 37
M  V30 42 1 4 38
M  V30 43 1 5 39
M  V30 44 1 5 40
M  V30 45 1 7 41
M  V30 46 1 8 42
M  V30 47 1 9 43
M  V30 48 1 10 44
M  V30 49 1 11 45
M  V30 50 1 12 46
M  V30 51 1 12 47
M  V30 52 1 13 48
M  V30 53 1 14 49
M  V30 54 1 18 50
M  V30 55 1 19 51
M  V30 56 1 21 52
M  V30 57 1 25 53
M  V30 58 1 26 54
M  V30 59 1 28 55
M  V30 60 1 29 56
M  V30 61 1 31 57
M  V30 62 1 32 58
M  V30 63 1 32 59
M  V30 END BOND
M  V30 END CTAB
M  END
>  <Dataset>  (336) 
ChEMBL_Kinases

>  <Ligand_Instance>  (336) 
nan

>  <PDB_ID>  (336) 
nan

>  <Standardized_SMILES>  (336) 
CN1CC(Cc2ccccc2)CC(NC(=O)c2ccc3[nH]nc(-c4ccncc4)c3c2)C1

>  <Name>  (336) 
nan

>  <Pocket>  (336) 
nan

>  <ATP_Site>  (336) 
nan

>  <Peripheral>  (336) 
nan

>  <Num_H_Atoms_ProtBoundConf>  (336) 
nan

>  <Num_Resolved_Atoms>  (336) 
nan

>  <Num_Not_Resolved_Atoms>  (336) 
nan

$$$$
CHEMBL3658448
     RDKit          3D

  0  0  0  0  0  0  0  0  0  0999 V3000
M  V30 BEGIN CTAB
M  V30 COUNTS 96 102 0 0 0
M  V30 BEGIN ATOM
M  V30 1 C 4.165863 -1.121357 -3.844549 0
M  V30 2 O 4.196379 -0.075801 -2.909137 0
M  V30 3 C 5.346964 0.218801 -2.215781 0
M  V30 4 C 6.501727 -0.540863 -2.450728 0
M  V30 5 C 7.726520 -0.346212 -1.818509 0
M  V30 6 C 7.760190 0.681243 -0.900333 0
M  V30 7 C 6.649169 1.451863 -0.639923 0
M  V30 8 F 6.710089 2.464860 0.252891 0
M  V30 9 C 5.438845 1.252648 -1.269940 0
M  V30 10 C 4.186006 1.986122 -1.105257 0
M  V30 11 N 3.144692 1.293049 -0.388577 0
M  V30 12 C 1.981125 2.173527 -0.374909 0
M  V30 13 C 0.955652 1.579914 0.495703 0 CFG=2
M  V30 14 N -0.362986 2.102929 0.466549 0
M  V30 15 C -1.617280 1.439259 0.498595 0
M  V30 16 O -1.562403 0.207265 0.569178 0
M  V30 17 C -2.889876 2.154720 0.451669 0
M  V30 18 C -3.006104 3.533960 0.317637 0
M  V30 19 C -4.258598 4.147720 0.283181 0
M  V30 20 C -5.417430 3.403953 0.380870 0
M  V30 21 N -6.728981 3.747788 0.374546 0
M  V30 22 N -7.443795 2.632660 0.499293 0
M  V30 23 C -6.594740 1.588358 0.584414 0
M  V30 24 C -7.056546 0.223463 0.729896 0
M  V30 25 C -8.098530 -0.309959 -0.037286 0
M  V30 26 C -8.485972 -1.615357 0.158212 0
M  V30 27 N -7.899173 -2.427192 1.071829 0
M  V30 28 C -6.886777 -1.975988 1.846695 0
M  V30 29 C -6.226251 -2.834097 2.855552 0
M  V30 30 C -6.506936 -0.658223 1.639283 0
M  V30 31 C -5.292041 2.035830 0.513065 0
M  V30 32 C -4.059273 1.419753 0.548393 0
M  V30 33 C 1.481670 1.840769 1.927162 0
M  V30 34 C 2.893171 1.394561 2.072010 0
M  V30 35 C 3.519051 0.765572 0.876432 0 CFG=1
M  V30 36 C 3.487660 -0.697793 0.958947 0
M  V30 37 O 3.661536 -1.048301 2.153216 0
M  V30 38 N 3.441358 -2.091228 0.931013 0
M  V30 39 C 3.544323 -3.037292 2.013897 0
M  V30 40 C 2.118676 -3.592206 2.196959 0
M  V30 41 N 1.421143 -3.599849 0.903507 0
M  V30 42 C 0.021001 -3.343528 0.663667 0
M  V30 43 O -0.592717 -3.077883 1.704132 0
M  V30 44 O -0.340563 -3.445613 -0.665243 0
M  V30 45 C -1.665442 -3.216122 -1.062357 0
M  V30 46 C -2.253055 -4.448391 -1.765026 0
M  V30 47 C -3.217505 -3.945112 -2.820917 0
M  V30 48 O -3.978371 -2.870421 -2.359900 0
M  V30 49 C -3.203964 -1.719326 -2.223961 0
M  V30 50 C -1.738606 -2.097762 -2.087471 0
M  V30 51 C 2.372344 -3.894627 -0.185602 0
M  V30 52 C 3.284432 -2.687779 -0.383316 0
M  V30 53 H 4.740484 -0.863247 -4.780770 0
M  V30 54 H 3.129285 -1.307710 -4.214406 0
M  V30 55 H 4.526996 -2.090490 -3.435810 0
M  V30 56 H 6.450606 -1.344907 -3.175929 0
M  V30 57 H 8.550068 -0.986898 -2.073849 0
M  V30 58 H 8.687176 0.848036 -0.403756 0
M  V30 59 H 3.785618 2.291942 -2.103385 0
M  V30 60 H 4.337743 2.972211 -0.573413 0
M  V30 61 H 2.286630 3.170414 0.063906 0
M  V30 62 H 1.745365 2.382676 -1.412993 0
M  V30 63 H 1.019786 0.453885 0.440306 0
M  V30 64 H -0.315383 3.145142 0.412580 0
M  V30 65 H -2.099777 4.114728 0.240324 0
M  V30 66 H -4.309760 5.227478 0.176102 0
M  V30 67 H -7.141539 4.710049 0.287767 0
M  V30 68 H -8.565962 0.352590 -0.772346 0
M  V30 69 H -9.305990 -1.954731 -0.476146 0
M  V30 70 H -5.968834 -3.817856 2.385469 0
M  V30 71 H -6.915276 -3.091452 3.697112 0
M  V30 72 H -5.324191 -2.330877 3.232200 0
M  V30 73 H -5.685697 -0.326449 2.281783 0
M  V30 74 H -4.025176 0.348600 0.655675 0
M  V30 75 H 0.774637 1.428148 2.668879 0
M  V30 76 H 1.439951 2.956567 2.023677 0
M  V30 77 H 2.890030 0.605184 2.885838 0
M  V30 78 H 3.554955 2.192154 2.515251 0
M  V30 79 H 4.629916 1.011848 0.976360 0
M  V30 80 H 4.220534 -3.863956 1.672521 0
M  V30 81 H 3.873447 -2.659275 2.975333 0
M  V30 82 H 2.176229 -4.632088 2.556835 0
M  V30 83 H 1.582805 -2.976463 2.930652 0
M  V30 84 H -2.312061 -2.931969 -0.214464 0
M  V30 85 H -2.879251 -5.037600 -1.043400 0
M  V30 86 H -1.459905 -5.055320 -2.212690 0
M  V30 87 H -3.942548 -4.771254 -3.022073 0
M  V30 88 H -2.722313 -3.715863 -3.786153 0
M  V30 89 H -3.446801 -1.158854 -1.287622 0
M  V30 90 H -3.289481 -1.010675 -3.053172 0
M  V30 91 H -1.317388 -2.418414 -3.063803 0
M  V30 92 H -1.204762 -1.190250 -1.751319 0
M  V30 93 H 2.923076 -4.800990 0.130930 0
M  V30 94 H 1.794729 -4.146170 -1.079753 0
M  V30 95 H 4.274061 -3.078488 -0.695670 0
M  V30 96 H 2.921367 -2.010860 -1.152562 0
M  V30 END ATOM
M  V30 BEGIN BOND
M  V30 1 1 1 2
M  V30 2 1 2 3
M  V30 3 2 3 4
M  V30 4 1 4 5
M  V30 5 2 5 6
M  V30 6 1 6 7
M  V30 7 1 7 8
M  V30 8 2 7 9
M  V30 9 1 9 10
M  V30 10 1 10 11
M  V30 11 1 11 12
M  V30 12 1 12 13
M  V30 13 1 13 14
M  V30 14 1 14 15
M  V30 15 2 15 16
M  V30 16 1 15 17
M  V30 17 2 17 18
M  V30 18 1 18 19
M  V30 19 2 19 20
M  V30 20 1 20 21
M  V30 21 1 21 22
M  V30 22 2 22 23
M  V30 23 1 23 24
M  V30 24 2 24 25
M  V30 25 1 25 26
M  V30 26 2 26 27
M  V30 27 1 27 28
M  V30 28 1 28 29
M  V30 29 2 28 30
M  V30 30 1 23 31
M  V30 31 2 31 32
M  V30 32 1 13 33
M  V30 33 1 33 34
M  V30 34 1 34 35
M  V30 35 1 35 36
M  V30 36 2 36 37
M  V30 37 1 36 38
M  V30 38 1 38 39
M  V30 39 1 39 40
M  V30 40 1 40 41
M  V30 41 1 41 42
M  V30 42 2 42 43
M  V30 43 1 42 44
M  V30 44 1 44 45
M  V30 45 1 45 46
M  V30 46 1 46 47
M  V30 47 1 47 48
M  V30 48 1 48 49
M  V30 49 1 49 50
M  V30 50 1 41 51
M  V30 51 1 51 52
M  V30 52 1 9 3
M  V30 53 1 35 11
M  V30 54 1 52 38
M  V30 55 1 32 17
M  V30 56 1 50 45
M  V30 57 1 31 20
M  V30 58 1 30 24
M  V30 59 1 1 53
M  V30 60 1 1 54
M  V30 61 1 1 55
M  V30 62 1 4 56
M  V30 63 1 5 57
M  V30 64 1 6 58
M  V30 65 1 10 59
M  V30 66 1 10 60
M  V30 67 1 12 61
M  V30 68 1 12 62
M  V30 69 1 13 63 CFG=3
M  V30 70 1 14 64
M  V30 71 1 18 65
M  V30 72 1 19 66
M  V30 73 1 21 67
M  V30 74 1 25 68
M  V30 75 1 26 69
M  V30 76 1 29 70
M  V30 77 1 29 71
M  V30 78 1 29 72
M  V30 79 1 30 73
M  V30 80 1 32 74
M  V30 81 1 33 75
M  V30 82 1 33 76
M  V30 83 1 34 77
M  V30 84 1 34 78
M  V30 85 1 35 79 CFG=1
M  V30 86 1 39 80
M  V30 87 1 39 81
M  V30 88 1 40 82
M  V30 89 1 40 83
M  V30 90 1 45 84
M  V30 91 1 46 85
M  V30 92 1 46 86
M  V30 93 1 47 87
M  V30 94 1 47 88
M  V30 95 1 49 89
M  V30 96 1 49 90
M  V30 97 1 50 91
M  V30 98 1 50 92
M  V30 99 1 51 93
M  V30 100 1 51 94
M  V30 101 1 52 95
M  V30 102 1 52 96
M  V30 END BOND
M  V30 END CTAB
M  END
>  <Dataset>  (337) 
ChEMBL_Kinases

>  <Ligand_Instance>  (337) 
nan

>  <PDB_ID>  (337) 
nan

>  <Standardized_SMILES>  (337) 
COc1cccc(F)c1CN1C[C@H](NC(=O)c2ccc3[nH]nc(-c4ccnc(C)c4)c3c2)CC[C@H]1C(=O)N1CCN(C(=O)OC2CCOCC2)CC1

>  <Name>  (337) 
nan

>  <Pocket>  (337) 
nan

>  <ATP_Site>  (337) 
nan

>  <Peripheral>  (337) 
nan

>  <Num_H_Atoms_ProtBoundConf>  (337) 
nan

>  <Num_Resolved_Atoms>  (337) 
nan

>  <Num_Not_Resolved_Atoms>  (337) 
nan

$$$$
CHEMBL3658447
     RDKit          3D

  0  0  0  0  0  0  0  0  0  0999 V3000
M  V30 BEGIN CTAB
M  V30 COUNTS 91 96 0 0 0
M  V30 BEGIN ATOM
M  V30 1 C 2.304526 -3.749489 0.762803 0
M  V30 2 O 2.723823 -2.433985 0.940060 0
M  V30 3 C 3.530359 -1.975597 1.971819 0
M  V30 4 C 3.960290 -2.901608 2.914030 0
M  V30 5 C 4.757671 -2.444258 3.932711 0
M  V30 6 C 5.134449 -1.121885 4.043241 0
M  V30 7 C 4.691497 -0.229447 3.092956 0
M  V30 8 F 5.024392 1.076495 3.134901 0
M  V30 9 C 3.890379 -0.627742 2.049322 0
M  V30 10 C 3.344285 0.233579 0.953835 0
M  V30 11 N 1.956643 0.477824 1.191359 0
M  V30 12 C 1.642657 1.133881 2.362175 0
M  V30 13 C 0.359566 1.920392 2.373853 0 CFG=2
M  V30 14 N -0.743116 1.244718 3.027194 0
M  V30 15 C -1.505708 1.642538 4.155303 0
M  V30 16 O -1.277252 2.707277 4.745851 0
M  V30 17 C -2.585696 0.792360 4.643514 0
M  V30 18 C -3.292375 1.259246 5.735467 0
M  V30 19 C -4.350299 0.512863 6.271837 0
M  V30 20 C -4.681020 -0.712684 5.685599 0
M  V30 21 N -5.612443 -1.646533 5.945159 0
M  V30 22 N -5.524674 -2.653088 5.087703 0
M  V30 23 C -4.516311 -2.421081 4.213770 0
M  V30 24 C -4.081119 -3.278511 3.107675 0
M  V30 25 C -3.970251 -4.637453 3.404050 0
M  V30 26 C -3.555516 -5.393522 2.320826 0
M  V30 27 N -3.274415 -4.932100 1.093645 0
M  V30 28 C -3.386602 -3.603306 0.817761 0
M  V30 29 C -3.069563 -3.132907 -0.539781 0
M  V30 30 C -3.795388 -2.814077 1.862933 0
M  V30 31 C -3.967350 -1.189909 4.578801 0
M  V30 32 C -2.934568 -0.420616 4.086100 0
M  V30 33 C -0.026682 2.359128 0.970392 0
M  V30 34 C -0.103932 1.186157 0.044418 0
M  V30 35 C 1.200910 0.460320 0.034646 0 CFG=1
M  V30 36 C 1.934126 0.857242 -1.221157 0
M  V30 37 O 3.027430 1.417843 -1.438833 0
M  V30 38 N 1.401891 0.606062 -2.517194 0
M  V30 39 C 2.198305 1.040342 -3.651930 0
M  V30 40 C 1.428733 1.846481 -4.658162 0
M  V30 41 N 0.210430 1.123433 -5.034832 0
M  V30 42 C -0.328377 0.597383 -6.239217 0
M  V30 43 O -1.457775 -0.002603 -6.276313 0
M  V30 44 O 0.224849 0.632831 -7.492151 0
M  V30 45 C -0.337465 0.098958 -8.654838 0
M  V30 46 C -0.657082 1.139338 -9.709013 0
M  V30 47 C 0.540068 -1.006694 -9.218878 0
M  V30 48 C -0.574804 0.936628 -3.826788 0
M  V30 49 C 0.208563 -0.027077 -2.967394 0
M  V30 50 H 1.510929 -4.014402 1.460183 0
M  V30 51 H 1.930745 -3.849182 -0.283005 0
M  V30 52 H 3.192503 -4.422447 0.813369 0
M  V30 53 H 3.722566 -3.941488 2.912912 0
M  V30 54 H 5.131880 -3.088438 4.698747 0
M  V30 55 H 5.760866 -0.775461 4.848232 0
M  V30 56 H 3.953380 1.175333 0.911290 0
M  V30 57 H 3.518217 -0.330829 -0.004907 0
M  V30 58 H 2.483809 1.786303 2.677166 0
M  V30 59 H 1.528771 0.384838 3.195440 0
M  V30 60 H 0.537802 2.854582 2.935352 0
M  V30 61 H -0.894481 0.358731 2.497549 0
M  V30 62 H -3.098452 2.182392 6.234703 0
M  V30 63 H -4.904199 0.877556 7.126201 0
M  V30 64 H -6.306271 -1.564134 6.730777 0
M  V30 65 H -4.178306 -5.072026 4.358578 0
M  V30 66 H -3.443423 -6.477903 2.474710 0
M  V30 67 H -2.734978 -2.068084 -0.575686 0
M  V30 68 H -3.905699 -3.289999 -1.252617 0
M  V30 69 H -2.209135 -3.727247 -0.967259 0
M  V30 70 H -3.883922 -1.760553 1.642208 0
M  V30 71 H -2.394857 -0.783868 3.248659 0
M  V30 72 H -1.062050 2.785892 1.061292 0
M  V30 73 H 0.677602 3.089738 0.577323 0
M  V30 74 H -0.980641 0.532369 0.238033 0
M  V30 75 H -0.286209 1.608484 -0.962290 0
M  V30 76 H 0.933256 -0.621652 -0.168656 0
M  V30 77 H 3.052009 1.682760 -3.330791 0
M  V30 78 H 2.606656 0.145487 -4.208356 0
M  V30 79 H 1.147936 2.793132 -4.159853 0
M  V30 80 H 2.024534 1.948251 -5.568341 0
M  V30 81 H -1.314016 -0.364782 -8.385197 0
M  V30 82 H 0.171501 1.832299 -9.919229 0
M  V30 83 H -1.571396 1.703554 -9.417939 0
M  V30 84 H -0.902537 0.566130 -10.634027 0
M  V30 85 H -0.071250 -1.859831 -9.521457 0
M  V30 86 H 1.226796 -1.344069 -8.390388 0
M  V30 87 H 1.113528 -0.570499 -10.066143 0
M  V30 88 H -1.578915 0.498981 -4.048951 0
M  V30 89 H -0.670215 1.887335 -3.282667 0
M  V30 90 H -0.473767 -0.406056 -2.185600 0
M  V30 91 H 0.506294 -0.883352 -3.652377 0
M  V30 END ATOM
M  V30 BEGIN BOND
M  V30 1 1 1 2
M  V30 2 1 2 3
M  V30 3 2 3 4
M  V30 4 1 4 5
M  V30 5 2 5 6
M  V30 6 1 6 7
M  V30 7 1 7 8
M  V30 8 2 7 9
M  V30 9 1 9 10
M  V30 10 1 10 11
M  V30 11 1 11 12
M  V30 12 1 12 13
M  V30 13 1 13 14
M  V30 14 1 14 15
M  V30 15 2 15 16
M  V30 16 1 15 17
M  V30 17 2 17 18
M  V30 18 1 18 19
M  V30 19 2 19 20
M  V30 20 1 20 21
M  V30 21 1 21 22
M  V30 22 2 22 23
M  V30 23 1 23 24
M  V30 24 2 24 25
M  V30 25 1 25 26
M  V30 26 2 26 27
M  V30 27 1 27 28
M  V30 28 1 28 29
M  V30 29 2 28 30
M  V30 30 1 23 31
M  V30 31 2 31 32
M  V30 32 1 13 33
M  V30 33 1 33 34
M  V30 34 1 34 35
M  V30 35 1 35 36
M  V30 36 2 36 37
M  V30 37 1 36 38
M  V30 38 1 38 39
M  V30 39 1 39 40
M  V30 40 1 40 41
M  V30 41 1 41 42
M  V30 42 2 42 43
M  V30 43 1 42 44
M  V30 44 1 44 45
M  V30 45 1 45 46
M  V30 46 1 45 47
M  V30 47 1 41 48
M  V30 48 1 48 49
M  V30 49 1 9 3
M  V30 50 1 35 11
M  V30 51 1 49 38
M  V30 52 1 32 17
M  V30 53 1 31 20
M  V30 54 1 30 24
M  V30 55 1 1 50
M  V30 56 1 1 51
M  V30 57 1 1 52
M  V30 58 1 4 53
M  V30 59 1 5 54
M  V30 60 1 6 55
M  V30 61 1 10 56
M  V30 62 1 10 57
M  V30 63 1 12 58
M  V30 64 1 12 59
M  V30 65 1 13 60 CFG=1
M  V30 66 1 14 61
M  V30 67 1 18 62
M  V30 68 1 19 63
M  V30 69 1 21 64
M  V30 70 1 25 65
M  V30 71 1 26 66
M  V30 72 1 29 67
M  V30 73 1 29 68
M  V30 74 1 29 69
M  V30 75 1 30 70
M  V30 76 1 32 71
M  V30 77 1 33 72
M  V30 78 1 33 73
M  V30 79 1 34 74
M  V30 80 1 34 75
M  V30 81 1 35 76 CFG=3
M  V30 82 1 39 77
M  V30 83 1 39 78
M  V30 84 1 40 79
M  V30 85 1 40 80
M  V30 86 1 45 81
M  V30 87 1 46 82
M  V30 88 1 46 83
M  V30 89 1 46 84
M  V30 90 1 47 85
M  V30 91 1 47 86
M  V30 92 1 47 87
M  V30 93 1 48 88
M  V30 94 1 48 89
M  V30 95 1 49 90
M  V30 96 1 49 91
M  V30 END BOND
M  V30 END CTAB
M  END
>  <Dataset>  (338) 
ChEMBL_Kinases

>  <Ligand_Instance>  (338) 
nan

>  <PDB_ID>  (338) 
nan

>  <Standardized_SMILES>  (338) 
COc1cccc(F)c1CN1C[C@H](NC(=O)c2ccc3[nH]nc(-c4ccnc(C)c4)c3c2)CC[C@H]1C(=O)N1CCN(C(=O)OC(C)C)CC1

>  <Name>  (338) 
nan

>  <Pocket>  (338) 
nan

>  <ATP_Site>  (338) 
nan

>  <Peripheral>  (338) 
nan

>  <Num_H_Atoms_ProtBoundConf>  (338) 
nan

>  <Num_Resolved_Atoms>  (338) 
nan

>  <Num_Not_Resolved_Atoms>  (338) 
nan

$$$$
CHEMBL3658446
     RDKit          3D

  0  0  0  0  0  0  0  0  0  0999 V3000
M  V30 BEGIN CTAB
M  V30 COUNTS 95 101 0 0 0
M  V30 BEGIN ATOM
M  V30 1 C 4.606743 -0.203623 -5.088072 0
M  V30 2 O 4.297850 0.758952 -4.104372 0
M  V30 3 C 5.347376 1.375306 -3.431270 0
M  V30 4 C 6.695037 1.090020 -3.680924 0
M  V30 5 C 7.723107 1.712034 -3.003492 0
M  V30 6 C 7.433292 2.667858 -2.025562 0
M  V30 7 C 6.112847 2.941835 -1.786962 0
M  V30 8 F 5.857213 3.894683 -0.825989 0
M  V30 9 C 5.057909 2.325045 -2.459077 0
M  V30 10 C 3.655819 2.630722 -2.196236 0
M  V30 11 N 2.932147 1.627963 -1.444428 0
M  V30 12 C 1.565368 2.120488 -1.313310 0
M  V30 13 C 0.940991 1.600294 -0.078505 0 CFG=2
M  V30 14 N -0.476704 1.897170 0.082235 0
M  V30 15 C -1.519476 1.065303 0.548234 0
M  V30 16 O -1.119076 -0.096471 0.861554 0
M  V30 17 C -2.903729 1.490924 0.661865 0
M  V30 18 C -3.394420 2.726602 0.220027 0
M  V30 19 C -4.721308 3.058544 0.382532 0
M  V30 20 C -5.625762 2.199727 0.982876 0
M  V30 21 N -6.948469 2.240757 1.280529 0
M  V30 22 N -7.323947 1.115853 1.879507 0
M  V30 23 C -6.232730 0.312735 1.981956 0
M  V30 24 C -6.263612 -1.008037 2.596830 0
M  V30 25 C -7.305045 -1.875925 2.297334 0
M  V30 26 C -7.450887 -3.149302 2.809691 0
M  V30 27 N -6.497794 -3.565420 3.665620 0
M  V30 28 C -5.458301 -2.773217 3.999773 0
M  V30 29 C -4.429086 -3.277032 4.944376 0
M  V30 30 C -5.313683 -1.496562 3.485524 0
M  V30 31 C -5.161751 0.979262 1.423989 0
M  V30 32 C -3.828214 0.654782 1.256210 0
M  V30 33 C 1.630136 2.286950 1.118989 0
M  V30 34 C 3.098968 2.325548 0.885028 0
M  V30 35 C 3.555914 1.373542 -0.188772 0 CFG=1
M  V30 36 C 3.490318 -0.040801 0.228161 0
M  V30 37 O 3.751025 -0.130899 1.477963 0
M  V30 38 N 3.252194 -1.347658 -0.207045 0
M  V30 39 C 3.277477 -2.404776 0.782303 0
M  V30 40 C 1.895119 -3.052536 0.760459 0
M  V30 41 N 1.422668 -3.232080 -0.607069 0
M  V30 42 C 0.112907 -3.484425 -1.062843 0
M  V30 43 O -0.108289 -3.638337 -2.310769 0
M  V30 44 O -1.045709 -3.598434 -0.329730 0
M  V30 45 C -2.312043 -3.858735 -0.898725 0
M  V30 46 C -3.080442 -4.952149 -0.237514 0
M  V30 47 C -4.550224 -4.664452 -0.531036 0
M  V30 48 C -4.575919 -3.274850 -1.157504 0
M  V30 49 C -3.250861 -2.674722 -0.704192 0
M  V30 50 C 2.492113 -3.107480 -1.609834 0
M  V30 51 C 3.008169 -1.673894 -1.614543 0
M  V30 52 H 5.337762 -0.905560 -4.655021 0
M  V30 53 H 3.719268 -0.804348 -5.380132 0
M  V30 54 H 5.037218 0.211288 -6.016847 0
M  V30 55 H 6.938246 0.353867 -4.434244 0
M  V30 56 H 8.754694 1.430087 -3.258902 0
M  V30 57 H 8.242884 3.148979 -1.499915 0
M  V30 58 H 3.167441 2.858265 -3.166837 0
M  V30 59 H 3.591158 3.595425 -1.614903 0
M  V30 60 H 1.618393 3.249477 -1.303583 0
M  V30 61 H 1.022623 1.885338 -2.242580 0
M  V30 62 H 1.159235 0.541731 0.057054 0
M  V30 63 H -0.690250 2.887396 -0.211300 0
M  V30 64 H -2.674082 3.377402 -0.243602 0
M  V30 65 H -5.082001 4.021809 0.032843 0
M  V30 66 H -7.554518 3.067312 1.051402 0
M  V30 67 H -8.067202 -1.545060 1.615260 0
M  V30 68 H -8.268069 -3.796212 2.560213 0
M  V30 69 H -4.854977 -4.126403 5.522635 0
M  V30 70 H -4.164896 -2.496349 5.709834 0
M  V30 71 H -3.501785 -3.575601 4.443437 0
M  V30 72 H -4.493493 -0.837680 3.735129 0
M  V30 73 H -3.508496 -0.308771 1.615004 0
M  V30 74 H 1.196868 3.306073 1.163176 0
M  V30 75 H 1.387073 1.748480 2.058369 0
M  V30 76 H 3.379763 3.340480 0.535173 0
M  V30 77 H 3.704013 2.148844 1.800226 0
M  V30 78 H 4.666171 1.571167 -0.288803 0
M  V30 79 H 4.066862 -3.164501 0.600255 0
M  V30 80 H 3.451196 -1.988624 1.787853 0
M  V30 81 H 1.841981 -3.981537 1.337007 0
M  V30 82 H 1.171484 -2.348586 1.231324 0
M  V30 83 H -2.163469 -3.981275 -1.996302 0
M  V30 84 H -2.784160 -5.939295 -0.659913 0
M  V30 85 H -2.938554 -4.901409 0.851991 0
M  V30 86 H -5.164058 -4.609091 0.375094 0
M  V30 87 H -4.969759 -5.434869 -1.192819 0
M  V30 88 H -4.574199 -3.384648 -2.242727 0
M  V30 89 H -5.418855 -2.657948 -0.767239 0
M  V30 90 H -3.269557 -2.328830 0.326966 0
M  V30 91 H -3.029783 -1.839563 -1.407803 0
M  V30 92 H 3.302782 -3.830908 -1.402883 0
M  V30 93 H 2.088127 -3.318070 -2.599709 0
M  V30 94 H 2.355803 -0.970724 -2.127075 0
M  V30 95 H 4.031351 -1.726620 -2.077974 0
M  V30 END ATOM
M  V30 BEGIN BOND
M  V30 1 1 1 2
M  V30 2 1 2 3
M  V30 3 2 3 4
M  V30 4 1 4 5
M  V30 5 2 5 6
M  V30 6 1 6 7
M  V30 7 1 7 8
M  V30 8 2 7 9
M  V30 9 1 9 10
M  V30 10 1 10 11
M  V30 11 1 11 12
M  V30 12 1 12 13
M  V30 13 1 13 14
M  V30 14 1 14 15
M  V30 15 2 15 16
M  V30 16 1 15 17
M  V30 17 2 17 18
M  V30 18 1 18 19
M  V30 19 2 19 20
M  V30 20 1 20 21
M  V30 21 1 21 22
M  V30 22 2 22 23
M  V30 23 1 23 24
M  V30 24 2 24 25
M  V30 25 1 25 26
M  V30 26 2 26 27
M  V30 27 1 27 28
M  V30 28 1 28 29
M  V30 29 2 28 30
M  V30 30 1 23 31
M  V30 31 2 31 32
M  V30 32 1 13 33
M  V30 33 1 33 34
M  V30 34 1 34 35
M  V30 35 1 35 36
M  V30 36 2 36 37
M  V30 37 1 36 38
M  V30 38 1 38 39
M  V30 39 1 39 40
M  V30 40 1 40 41
M  V30 41 1 41 42
M  V30 42 2 42 43
M  V30 43 1 42 44
M  V30 44 1 44 45
M  V30 45 1 45 46
M  V30 46 1 46 47
M  V30 47 1 47 48
M  V30 48 1 48 49
M  V30 49 1 41 50
M  V30 50 1 50 51
M  V30 51 1 9 3
M  V30 52 1 35 11
M  V30 53 1 51 38
M  V30 54 1 32 17
M  V30 55 1 49 45
M  V30 56 1 31 20
M  V30 57 1 30 24
M  V30 58 1 1 52
M  V30 59 1 1 53
M  V30 60 1 1 54
M  V30 61 1 4 55
M  V30 62 1 5 56
M  V30 63 1 6 57
M  V30 64 1 10 58
M  V30 65 1 10 59
M  V30 66 1 12 60
M  V30 67 1 12 61
M  V30 68 1 13 62 CFG=1
M  V30 69 1 14 63
M  V30 70 1 18 64
M  V30 71 1 19 65
M  V30 72 1 21 66
M  V30 73 1 25 67
M  V30 74 1 26 68
M  V30 75 1 29 69
M  V30 76 1 29 70
M  V30 77 1 29 71
M  V30 78 1 30 72
M  V30 79 1 32 73
M  V30 80 1 33 74
M  V30 81 1 33 75
M  V30 82 1 34 76
M  V30 83 1 34 77
M  V30 84 1 35 78 CFG=3
M  V30 85 1 39 79
M  V30 86 1 39 80
M  V30 87 1 40 81
M  V30 88 1 40 82
M  V30 89 1 45 83
M  V30 90 1 46 84
M  V30 91 1 46 85
M  V30 92 1 47 86
M  V30 93 1 47 87
M  V30 94 1 48 88
M  V30 95 1 48 89
M  V30 96 1 49 90
M  V30 97 1 49 91
M  V30 98 1 50 92
M  V30 99 1 50 93
M  V30 100 1 51 94
M  V30 101 1 51 95
M  V30 END BOND
M  V30 END CTAB
M  END
>  <Dataset>  (339) 
ChEMBL_Kinases

>  <Ligand_Instance>  (339) 
nan

>  <PDB_ID>  (339) 
nan

>  <Standardized_SMILES>  (339) 
COc1cccc(F)c1CN1C[C@H](NC(=O)c2ccc3[nH]nc(-c4ccnc(C)c4)c3c2)CC[C@H]1C(=O)N1CCN(C(=O)OC2CCCC2)CC1

>  <Name>  (339) 
nan

>  <Pocket>  (339) 
nan

>  <ATP_Site>  (339) 
nan

>  <Peripheral>  (339) 
nan

>  <Num_H_Atoms_ProtBoundConf>  (339) 
nan

>  <Num_Resolved_Atoms>  (339) 
nan

>  <Num_Not_Resolved_Atoms>  (339) 
nan

$$$$
CHEMBL3658445
     RDKit          3D

  0  0  0  0  0  0  0  0  0  0999 V3000
M  V30 BEGIN CTAB
M  V30 COUNTS 99 103 0 0 0
M  V30 BEGIN ATOM
M  V30 1 C 3.278606 -2.129244 -4.204131 0
M  V30 2 O 3.417054 -1.558700 -2.923384 0
M  V30 3 C 3.894762 -2.276428 -1.864467 0
M  V30 4 C 4.253100 -3.611787 -2.062795 0
M  V30 5 C 4.730374 -4.321714 -0.996525 0
M  V30 6 C 4.856742 -3.740369 0.241058 0
M  V30 7 C 4.491318 -2.422762 0.387377 0
M  V30 8 F 4.655333 -1.928312 1.634812 0
M  V30 9 C 3.992842 -1.619463 -0.647029 0
M  V30 10 C 3.608202 -0.203074 -0.441717 0
M  V30 11 N 2.201675 0.034688 -0.366611 0
M  V30 12 C 1.566966 -0.640310 0.732766 0
M  V30 13 C 1.876235 0.018921 2.030793 0 CFG=2
M  V30 14 N 1.142123 -0.708220 3.054260 0
M  V30 15 C 1.464496 -1.304830 4.296612 0
M  V30 16 O 2.635512 -1.265015 4.754559 0
M  V30 17 C 0.460517 -1.986144 5.095986 0
M  V30 18 C 0.809866 -2.367863 6.372486 0
M  V30 19 C -0.102802 -3.041863 7.186500 0
M  V30 20 C -1.390402 -3.344842 6.724767 0
M  V30 21 N -2.493038 -3.964918 7.222582 0
M  V30 22 N -3.456380 -3.968457 6.318683 0
M  V30 23 C -3.065494 -3.358508 5.172271 0
M  V30 24 C -3.831608 -3.153061 3.938680 0
M  V30 25 C -5.123057 -2.676512 3.861946 0
M  V30 26 C -5.719401 -2.541038 2.624892 0
M  V30 27 N -5.102320 -2.852561 1.470017 0
M  V30 28 C -3.837679 -3.325870 1.448319 0
M  V30 29 C -3.049887 -3.704431 0.242889 0
M  V30 30 C -3.248402 -3.457762 2.702549 0
M  V30 31 C -1.760963 -2.968229 5.439143 0
M  V30 32 C -0.814048 -2.306030 4.689048 0
M  V30 33 C 1.550543 1.505194 2.083431 0
M  V30 34 C 2.330594 2.118881 0.915352 0
M  V30 35 C 1.837147 1.423033 -0.308099 0 CFG=1
M  V30 36 C 1.945681 2.160276 -1.568899 0
M  V30 37 O 1.974390 3.399625 -1.312563 0
M  V30 38 N 2.050665 2.790604 -2.834513 0
M  V30 39 C 2.186418 4.226484 -2.840584 0
M  V30 40 C 1.942830 1.799875 -3.914770 0
M  V30 41 C 0.456667 1.696485 -4.319534 0
M  V30 42 C 0.275172 0.670541 -5.380861 0
M  V30 43 C -1.075373 0.483106 -5.971871 0
M  V30 44 N -2.145212 0.172622 -5.092609 0
M  V30 45 C -2.761502 0.915654 -4.071805 0
M  V30 46 O -2.481942 2.063607 -3.726739 0
M  V30 47 O -3.777384 0.616894 -3.220955 0
M  V30 48 C -4.292177 1.482759 -2.238523 0
M  V30 49 C -4.850932 2.777687 -2.763487 0
M  V30 50 C -3.242087 1.800008 -1.197834 0
M  V30 51 C -5.446319 0.800681 -1.501559 0
M  V30 52 H 4.242316 -2.584938 -4.545573 0
M  V30 53 H 2.927414 -1.342346 -4.916704 0
M  V30 54 H 2.550227 -2.962156 -4.160740 0
M  V30 55 H 4.159837 -4.081985 -3.035066 0
M  V30 56 H 5.000592 -5.352570 -1.179358 0
M  V30 57 H 5.237686 -4.334289 1.057080 0
M  V30 58 H 4.139804 0.421683 -1.161016 0
M  V30 59 H 4.035787 0.078740 0.566095 0
M  V30 60 H 0.472967 -0.561650 0.553849 0
M  V30 61 H 1.891745 -1.700230 0.829933 0
M  V30 62 H 2.934843 -0.038655 2.351570 0
M  V30 63 H 0.159890 -0.783157 2.776374 0
M  V30 64 H 1.762147 -2.177667 6.800140 0
M  V30 65 H 0.155158 -3.341543 8.173662 0
M  V30 66 H -2.487430 -4.347440 8.176581 0
M  V30 67 H -5.603809 -2.430740 4.796860 0
M  V30 68 H -6.734572 -2.166392 2.570623 0
M  V30 69 H -3.775756 -4.061096 -0.514722 0
M  V30 70 H -2.407279 -4.577967 0.484060 0
M  V30 71 H -2.482964 -2.891935 -0.208857 0
M  V30 72 H -2.218895 -3.850253 2.710618 0
M  V30 73 H -1.109025 -2.016699 3.711394 0
M  V30 74 H 2.005677 1.890685 3.028262 0
M  V30 75 H 0.495364 1.738400 1.972650 0
M  V30 76 H 1.993193 3.170996 0.867562 0
M  V30 77 H 3.404855 2.140167 1.070471 0
M  V30 78 H 0.694348 1.372216 -0.133296 0
M  V30 79 H 3.079849 4.594686 -2.282371 0
M  V30 80 H 1.255438 4.714048 -2.471478 0
M  V30 81 H 2.322331 4.595187 -3.868583 0
M  V30 82 H 2.474363 2.212025 -4.776437 0
M  V30 83 H 2.376971 0.857512 -3.624854 0
M  V30 84 H 0.044620 2.667753 -4.561092 0
M  V30 85 H -0.033455 1.326419 -3.373330 0
M  V30 86 H 0.540627 -0.345939 -4.926195 0
M  V30 87 H 1.024262 0.825112 -6.220739 0
M  V30 88 H -0.973665 -0.417328 -6.656944 0
M  V30 89 H -1.358817 1.339219 -6.651735 0
M  V30 90 H -2.652163 -0.752732 -5.108534 0
M  V30 91 H -4.082304 3.565855 -2.922484 0
M  V30 92 H -5.487270 3.180677 -1.920579 0
M  V30 93 H -5.554710 2.639703 -3.594411 0
M  V30 94 H -3.508457 1.394629 -0.179091 0
M  V30 95 H -3.161420 2.890164 -1.040994 0
M  V30 96 H -2.239491 1.431492 -1.491848 0
M  V30 97 H -6.334256 0.940432 -2.138398 0
M  V30 98 H -5.207896 -0.237062 -1.236967 0
M  V30 99 H -5.617149 1.445710 -0.596150 0
M  V30 END ATOM
M  V30 BEGIN BOND
M  V30 1 1 1 2
M  V30 2 1 2 3
M  V30 3 2 3 4
M  V30 4 1 4 5
M  V30 5 2 5 6
M  V30 6 1 6 7
M  V30 7 1 7 8
M  V30 8 2 7 9
M  V30 9 1 9 10
M  V30 10 1 10 11
M  V30 11 1 11 12
M  V30 12 1 12 13
M  V30 13 1 13 14
M  V30 14 1 14 15
M  V30 15 2 15 16
M  V30 16 1 15 17
M  V30 17 2 17 18
M  V30 18 1 18 19
M  V30 19 2 19 20
M  V30 20 1 20 21
M  V30 21 1 21 22
M  V30 22 2 22 23
M  V30 23 1 23 24
M  V30 24 2 24 25
M  V30 25 1 25 26
M  V30 26 2 26 27
M  V30 27 1 27 28
M  V30 28 1 28 29
M  V30 29 2 28 30
M  V30 30 1 23 31
M  V30 31 2 31 32
M  V30 32 1 13 33
M  V30 33 1 33 34
M  V30 34 1 34 35
M  V30 35 1 35 36
M  V30 36 2 36 37
M  V30 37 1 36 38
M  V30 38 1 38 39
M  V30 39 1 38 40
M  V30 40 1 40 41
M  V30 41 1 41 42
M  V30 42 1 42 43
M  V30 43 1 43 44
M  V30 44 1 44 45
M  V30 45 2 45 46
M  V30 46 1 45 47
M  V30 47 1 47 48
M  V30 48 1 48 49
M  V30 49 1 48 50
M  V30 50 1 48 51
M  V30 51 1 9 3
M  V30 52 1 35 11
M  V30 53 1 32 17
M  V30 54 1 31 20
M  V30 55 1 30 24
M  V30 56 1 1 52
M  V30 57 1 1 53
M  V30 58 1 1 54
M  V30 59 1 4 55
M  V30 60 1 5 56
M  V30 61 1 6 57
M  V30 62 1 10 58
M  V30 63 1 10 59
M  V30 64 1 12 60
M  V30 65 1 12 61
M  V30 66 1 13 62 CFG=1
M  V30 67 1 14 63
M  V30 68 1 18 64
M  V30 69 1 19 65
M  V30 70 1 21 66
M  V30 71 1 25 67
M  V30 72 1 26 68
M  V30 73 1 29 69
M  V30 74 1 29 70
M  V30 75 1 29 71
M  V30 76 1 30 72
M  V30 77 1 32 73
M  V30 78 1 33 74
M  V30 79 1 33 75
M  V30 80 1 34 76
M  V30 81 1 34 77
M  V30 82 1 35 78 CFG=1
M  V30 83 1 39 79
M  V30 84 1 39 80
M  V30 85 1 39 81
M  V30 86 1 40 82
M  V30 87 1 40 83
M  V30 88 1 41 84
M  V30 89 1 41 85
M  V30 90 1 42 86
M  V30 91 1 42 87
M  V30 92 1 43 88
M  V30 93 1 43 89
M  V30 94 1 44 90
M  V30 95 1 49 91
M  V30 96 1 49 92
M  V30 97 1 49 93
M  V30 98 1 50 94
M  V30 99 1 50 95
M  V30 100 1 50 96
M  V30 101 1 51 97
M  V30 102 1 51 98
M  V30 103 1 51 99
M  V30 END BOND
M  V30 END CTAB
M  END
>  <Dataset>  (340) 
ChEMBL_Kinases

>  <Ligand_Instance>  (340) 
nan

>  <PDB_ID>  (340) 
nan

>  <Standardized_SMILES>  (340) 
COc1cccc(F)c1CN1C[C@H](NC(=O)c2ccc3[nH]nc(-c4ccnc(C)c4)c3c2)CC[C@H]1C(=O)N(C)CCCCNC(=O)OC(C)(C)C

>  <Name>  (340) 
nan

>  <Pocket>  (340) 
nan

>  <ATP_Site>  (340) 
nan

>  <Peripheral>  (340) 
nan

>  <Num_H_Atoms_ProtBoundConf>  (340) 
nan

>  <Num_Resolved_Atoms>  (340) 
nan

>  <Num_Not_Resolved_Atoms>  (340) 
nan

$$$$
CHEMBL3658444
     RDKit          3D

  0  0  0  0  0  0  0  0  0  0999 V3000
M  V30 BEGIN CTAB
M  V30 COUNTS 80 84 0 0 0
M  V30 BEGIN ATOM
M  V30 1 C -0.485969 0.185514 4.017350 0
M  V30 2 O 0.580736 0.309648 3.139829 0
M  V30 3 C 1.813783 -0.265784 3.195128 0
M  V30 4 C 2.107524 -1.099198 4.250481 0
M  V30 5 C 3.331620 -1.701243 4.365046 0
M  V30 6 C 4.260831 -1.432783 3.369935 0
M  V30 7 C 3.934752 -0.583714 2.310665 0
M  V30 8 F 5.008337 -0.474778 1.479921 0
M  V30 9 C 2.685273 0.040435 2.177160 0
M  V30 10 C 2.521269 0.866480 0.983469 0
M  V30 11 N 1.887101 0.227877 -0.105953 0
M  V30 12 C 0.524288 -0.202901 0.070005 0
M  V30 13 C -0.462412 0.912945 0.104519 0 CFG=2
M  V30 14 N -1.799628 0.402006 0.310273 0
M  V30 15 C -2.752294 0.844877 1.252476 0
M  V30 16 O -2.445820 1.792606 2.016719 0
M  V30 17 C -4.083069 0.271393 1.401596 0
M  V30 18 C -4.911990 0.826883 2.375545 0
M  V30 19 C -6.197534 0.326877 2.574310 0
M  V30 20 C -6.635925 -0.710878 1.806322 0
M  V30 21 N -7.803836 -1.386373 1.774867 0
M  V30 22 N -7.751383 -2.311370 0.856812 0
M  V30 23 C -6.549018 -2.313802 0.216881 0
M  V30 24 C -6.101432 -3.188919 -0.860016 0
M  V30 25 C -5.455129 -2.572426 -1.935017 0
M  V30 26 C -5.033722 -3.417955 -2.949410 0
M  V30 27 N -5.216676 -4.754337 -2.937434 0
M  V30 28 C -5.839090 -5.333742 -1.898582 0
M  V30 29 C -6.109348 -6.793808 -1.751147 0
M  V30 30 C -6.286783 -4.558196 -0.851650 0
M  V30 31 C -5.842769 -1.301233 0.817422 0
M  V30 32 C -4.590790 -0.775104 0.662043 0
M  V30 33 C -0.372380 1.741238 -1.162865 0
M  V30 34 C 1.080039 2.254707 -1.212698 0
M  V30 35 C 1.911530 1.011928 -1.333942 0 CFG=1
M  V30 36 C 3.215617 1.161805 -1.952348 0
M  V30 37 O 3.080419 2.033348 -2.871465 0
M  V30 38 N 4.519786 0.645292 -1.834274 0
M  V30 39 O 5.337716 1.221841 -2.746038 0
M  V30 40 C 6.592668 0.644315 -2.551477 0
M  V30 41 C 7.644501 1.174723 -3.492460 0
M  V30 42 C 7.070751 0.843971 -1.126630 0
M  V30 43 C 6.462629 -0.851430 -2.793314 0
M  V30 44 H -0.263043 -0.188425 5.014315 0
M  V30 45 H -0.876340 1.234638 4.185291 0
M  V30 46 H -1.311212 -0.366077 3.507750 0
M  V30 47 H 1.393062 -1.307200 5.015698 0
M  V30 48 H 3.539486 -2.342103 5.188072 0
M  V30 49 H 5.214847 -1.935988 3.510790 0
M  V30 50 H 3.505092 1.252944 0.624181 0
M  V30 51 H 1.967468 1.803377 1.277426 0
M  V30 52 H 0.291572 -0.750346 -0.916920 0
M  V30 53 H 0.361329 -0.951394 0.833742 0
M  V30 54 H -0.241292 1.617714 0.921532 0
M  V30 55 H -2.063116 -0.385919 -0.326345 0
M  V30 56 H -4.606351 1.664985 3.020970 0
M  V30 57 H -6.817842 0.792372 3.351441 0
M  V30 58 H -8.611459 -1.168039 2.412283 0
M  V30 59 H -5.253605 -1.524230 -2.055849 0
M  V30 60 H -4.525405 -3.014079 -3.815634 0
M  V30 61 H -6.007448 -7.099117 -0.678368 0
M  V30 62 H -5.379598 -7.397328 -2.349938 0
M  V30 63 H -7.152243 -6.963775 -2.089113 0
M  V30 64 H -6.792485 -4.948999 0.012542 0
M  V30 65 H -3.945176 -1.192515 -0.080247 0
M  V30 66 H -0.464112 1.129748 -2.087517 0
M  V30 67 H -1.015241 2.618512 -1.116683 0
M  V30 68 H 1.228438 2.822863 -2.172284 0
M  V30 69 H 1.298793 2.867396 -0.333687 0
M  V30 70 H 1.319196 0.348485 -2.058992 0
M  V30 71 H 4.514897 -0.062449 -1.069890 0
M  V30 72 H 7.153155 1.498625 -4.422570 0
M  V30 73 H 8.351950 0.347153 -3.706033 0
M  V30 74 H 8.209550 1.982539 -2.985730 0
M  V30 75 H 6.519561 1.677414 -0.623806 0
M  V30 76 H 6.898511 -0.093768 -0.534784 0
M  V30 77 H 8.149056 1.085294 -1.060524 0
M  V30 78 H 5.481600 -1.150283 -3.171528 0
M  V30 79 H 6.644346 -1.435971 -1.875263 0
M  V30 80 H 7.211296 -1.205337 -3.542570 0
M  V30 END ATOM
M  V30 BEGIN BOND
M  V30 1 1 1 2
M  V30 2 1 2 3
M  V30 3 2 3 4
M  V30 4 1 4 5
M  V30 5 2 5 6
M  V30 6 1 6 7
M  V30 7 1 7 8
M  V30 8 2 7 9
M  V30 9 1 9 10
M  V30 10 1 10 11
M  V30 11 1 11 12
M  V30 12 1 12 13
M  V30 13 1 13 14
M  V30 14 1 14 15
M  V30 15 2 15 16
M  V30 16 1 15 17
M  V30 17 2 17 18
M  V30 18 1 18 19
M  V30 19 2 19 20
M  V30 20 1 20 21
M  V30 21 1 21 22
M  V30 22 2 22 23
M  V30 23 1 23 24
M  V30 24 2 24 25
M  V30 25 1 25 26
M  V30 26 2 26 27
M  V30 27 1 27 28
M  V30 28 1 28 29
M  V30 29 2 28 30
M  V30 30 1 23 31
M  V30 31 2 31 32
M  V30 32 1 13 33
M  V30 33 1 33 34
M  V30 34 1 34 35
M  V30 35 1 35 36
M  V30 36 2 36 37
M  V30 37 1 36 38
M  V30 38 1 38 39
M  V30 39 1 39 40
M  V30 40 1 40 41
M  V30 41 1 40 42
M  V30 42 1 40 43
M  V30 43 1 9 3
M  V30 44 1 35 11
M  V30 45 1 32 17
M  V30 46 1 31 20
M  V30 47 1 30 24
M  V30 48 1 1 44
M  V30 49 1 1 45
M  V30 50 1 1 46
M  V30 51 1 4 47
M  V30 52 1 5 48
M  V30 53 1 6 49
M  V30 54 1 10 50
M  V30 55 1 10 51
M  V30 56 1 12 52
M  V30 57 1 12 53
M  V30 58 1 13 54 CFG=1
M  V30 59 1 14 55
M  V30 60 1 18 56
M  V30 61 1 19 57
M  V30 62 1 21 58
M  V30 63 1 25 59
M  V30 64 1 26 60
M  V30 65 1 29 61
M  V30 66 1 29 62
M  V30 67 1 29 63
M  V30 68 1 30 64
M  V30 69 1 32 65
M  V30 70 1 33 66
M  V30 71 1 33 67
M  V30 72 1 34 68
M  V30 73 1 34 69
M  V30 74 1 35 70 CFG=3
M  V30 75 1 38 71
M  V30 76 1 41 72
M  V30 77 1 41 73
M  V30 78 1 41 74
M  V30 79 1 42 75
M  V30 80 1 42 76
M  V30 81 1 42 77
M  V30 82 1 43 78
M  V30 83 1 43 79
M  V30 84 1 43 80
M  V30 END BOND
M  V30 END CTAB
M  END
>  <Dataset>  (341) 
ChEMBL_Kinases

>  <Ligand_Instance>  (341) 
nan

>  <PDB_ID>  (341) 
nan

>  <Standardized_SMILES>  (341) 
COc1cccc(F)c1CN1C[C@H](NC(=O)c2ccc3[nH]nc(-c4ccnc(C)c4)c3c2)CC[C@H]1C(=O)NOC(C)(C)C

>  <Name>  (341) 
nan

>  <Pocket>  (341) 
nan

>  <ATP_Site>  (341) 
nan

>  <Peripheral>  (341) 
nan

>  <Num_H_Atoms_ProtBoundConf>  (341) 
nan

>  <Num_Resolved_Atoms>  (341) 
nan

>  <Num_Not_Resolved_Atoms>  (341) 
nan

$$$$
CHEMBL3658443
     RDKit          3D

  0  0  0  0  0  0  0  0  0  0999 V3000
M  V30 BEGIN CTAB
M  V30 COUNTS 97 102 0 0 0
M  V30 BEGIN ATOM
M  V30 1 C 1.141074 -4.011566 -0.993435 0
M  V30 2 O 2.175365 -3.147650 -0.597628 0
M  V30 3 C 3.186905 -3.640350 0.200624 0
M  V30 4 C 3.200275 -4.954219 0.610745 0
M  V30 5 C 4.174275 -5.490977 1.398965 0
M  V30 6 C 5.190675 -4.663163 1.797666 0
M  V30 7 C 5.179863 -3.349587 1.389321 0
M  V30 8 F 6.232853 -2.604997 1.835069 0
M  V30 9 C 4.192474 -2.776254 0.580981 0
M  V30 10 C 4.263762 -1.337803 0.180380 0
M  V30 11 N 3.315247 -0.624452 0.916315 0
M  V30 12 C 3.297648 -0.611106 2.296432 0
M  V30 13 C 3.028028 0.696038 2.914396 0 CFG=2
M  V30 14 N 1.745485 0.606809 3.633151 0
M  V30 15 C 1.468953 0.818419 4.986784 0
M  V30 16 O 2.391661 1.152013 5.791030 0
M  V30 17 C 0.144782 0.679350 5.575614 0
M  V30 18 C -0.067666 1.084144 6.875793 0
M  V30 19 C -1.317544 0.944705 7.475316 0
M  V30 20 C -2.401489 0.394799 6.794529 0
M  V30 21 N -3.686191 0.125779 7.061670 0
M  V30 22 N -4.283688 -0.419087 6.015943 0
M  V30 23 C -3.390186 -0.529044 5.001843 0
M  V30 24 C -3.683313 -1.086169 3.697495 0
M  V30 25 C -2.706150 -1.996738 3.289213 0
M  V30 26 C -2.823136 -2.635408 2.051558 0
M  V30 27 N -3.869602 -2.390121 1.232734 0
M  V30 28 C -4.818735 -1.505135 1.630344 0
M  V30 29 C -5.987525 -1.205969 0.762221 0
M  V30 30 C -4.735190 -0.856059 2.845823 0
M  V30 31 C -2.204500 -0.017151 5.486954 0
M  V30 32 C -0.952544 0.140630 4.937016 0
M  V30 33 C 3.025845 1.923669 2.077649 0
M  V30 34 C 3.063346 1.673067 0.596272 0
M  V30 35 C 2.457025 0.290939 0.304565 0 CFG=1
M  V30 36 C 2.150292 0.060907 -1.092316 0
M  V30 37 O 1.737926 1.178461 -1.524839 0
M  V30 38 N 1.790102 0.078709 -2.451080 0
M  V30 39 C 1.299159 1.017584 -3.430349 0
M  V30 40 C 0.073069 0.261500 -3.940392 0
M  V30 41 O -0.125480 0.539576 -5.267911 0
M  V30 42 Si -1.609669 1.312407 -5.604679 0 VAL=4
M  V30 43 C -1.916925 2.748524 -4.451918 0
M  V30 44 C -1.542091 1.989808 -7.344080 0
M  V30 45 C -3.061124 0.166655 -5.507997 0
M  V30 46 C -3.052154 -0.893358 -6.561893 0
M  V30 47 C -4.319118 1.007926 -5.741245 0
M  V30 48 C -3.233313 -0.415834 -4.104731 0
M  V30 49 C 0.580062 -1.166903 -3.801563 0
M  V30 50 O 1.859288 -1.056709 -3.223620 0
M  V30 51 H 0.754566 -4.485853 -0.067233 0
M  V30 52 H 1.453739 -4.837141 -1.655639 0
M  V30 53 H 0.375902 -3.434874 -1.532265 0
M  V30 54 H 2.402512 -5.642607 0.310237 0
M  V30 55 H 4.178496 -6.516963 1.715525 0
M  V30 56 H 5.970626 -5.069849 2.420354 0
M  V30 57 H 4.187835 -1.273329 -0.912630 0
M  V30 58 H 5.285713 -0.989138 0.499377 0
M  V30 59 H 4.232543 -1.057750 2.771209 0
M  V30 60 H 2.509625 -1.355796 2.676340 0
M  V30 61 H 3.767038 0.832425 3.772300 0
M  V30 62 H 0.897331 0.354142 3.098797 0
M  V30 63 H 0.738688 1.528496 7.477517 0
M  V30 64 H -1.479492 1.264914 8.503490 0
M  V30 65 H -4.059834 0.362684 8.021158 0
M  V30 66 H -1.791659 -2.359632 3.761582 0
M  V30 67 H -2.149972 -3.354013 1.614635 0
M  V30 68 H -6.868693 -1.750829 1.144850 0
M  V30 69 H -6.179331 -0.098209 0.771547 0
M  V30 70 H -5.711207 -1.538174 -0.270673 0
M  V30 71 H -5.444190 -0.140156 3.237655 0
M  V30 72 H -0.846158 -0.189588 3.917258 0
M  V30 73 H 3.907947 2.538868 2.341780 0
M  V30 74 H 2.135337 2.556774 2.273321 0
M  V30 75 H 2.540541 2.446408 0.003735 0
M  V30 76 H 4.101144 1.623137 0.222734 0
M  V30 77 H 1.445674 0.358391 0.835198 0
M  V30 78 H 1.057659 2.010342 -3.039154 0
M  V30 79 H 2.035071 1.142421 -4.272831 0
M  V30 80 H -0.734605 0.519001 -3.256924 0
M  V30 81 H -2.550726 3.502115 -4.967778 0
M  V30 82 H -0.955489 3.297066 -4.245055 0
M  V30 83 H -2.438215 2.459609 -3.522669 0
M  V30 84 H -2.125875 2.931907 -7.377524 0
M  V30 85 H -2.003628 1.277064 -8.063087 0
M  V30 86 H -0.469376 2.182310 -7.615482 0
M  V30 87 H -2.134241 -1.492099 -6.590716 0
M  V30 88 H -3.873715 -1.607422 -6.300134 0
M  V30 89 H -3.337138 -0.478305 -7.549083 0
M  V30 90 H -4.390949 1.335344 -6.789269 0
M  V30 91 H -4.334575 1.861067 -5.029782 0
M  V30 92 H -5.209967 0.382368 -5.509087 0
M  V30 93 H -2.398801 -1.106160 -3.854719 0
M  V30 94 H -3.128411 0.427050 -3.386601 0
M  V30 95 H -4.217769 -0.882413 -4.061052 0
M  V30 96 H 0.735523 -1.631664 -4.795039 0
M  V30 97 H -0.109370 -1.781068 -3.221366 0
M  V30 END ATOM
M  V30 BEGIN BOND
M  V30 1 1 1 2
M  V30 2 1 2 3
M  V30 3 2 3 4
M  V30 4 1 4 5
M  V30 5 2 5 6
M  V30 6 1 6 7
M  V30 7 1 7 8
M  V30 8 2 7 9
M  V30 9 1 9 10
M  V30 10 1 10 11
M  V30 11 1 11 12
M  V30 12 1 12 13
M  V30 13 1 13 14
M  V30 14 1 14 15
M  V30 15 2 15 16
M  V30 16 1 15 17
M  V30 17 2 17 18
M  V30 18 1 18 19
M  V30 19 2 19 20
M  V30 20 1 20 21
M  V30 21 1 21 22
M  V30 22 2 22 23
M  V30 23 1 23 24
M  V30 24 2 24 25
M  V30 25 1 25 26
M  V30 26 2 26 27
M  V30 27 1 27 28
M  V30 28 1 28 29
M  V30 29 2 28 30
M  V30 30 1 23 31
M  V30 31 2 31 32
M  V30 32 1 13 33
M  V30 33 1 33 34
M  V30 34 1 34 35
M  V30 35 1 35 36
M  V30 36 2 36 37
M  V30 37 1 36 38
M  V30 38 1 38 39
M  V30 39 1 39 40
M  V30 40 1 40 41
M  V30 41 1 41 42
M  V30 42 1 42 43
M  V30 43 1 42 44
M  V30 44 1 42 45
M  V30 45 1 45 46
M  V30 46 1 45 47
M  V30 47 1 45 48
M  V30 48 1 40 49
M  V30 49 1 49 50
M  V30 50 1 9 3
M  V30 51 1 35 11
M  V30 52 1 50 38
M  V30 53 1 32 17
M  V30 54 1 31 20
M  V30 55 1 30 24
M  V30 56 1 1 51
M  V30 57 1 1 52
M  V30 58 1 1 53
M  V30 59 1 4 54
M  V30 60 1 5 55
M  V30 61 1 6 56
M  V30 62 1 10 57
M  V30 63 1 10 58
M  V30 64 1 12 59
M  V30 65 1 12 60
M  V30 66 1 13 61 CFG=1
M  V30 67 1 14 62
M  V30 68 1 18 63
M  V30 69 1 19 64
M  V30 70 1 21 65
M  V30 71 1 25 66
M  V30 72 1 26 67
M  V30 73 1 29 68
M  V30 74 1 29 69
M  V30 75 1 29 70
M  V30 76 1 30 71
M  V30 77 1 32 72
M  V30 78 1 33 73
M  V30 79 1 33 74
M  V30 80 1 34 75
M  V30 81 1 34 76
M  V30 82 1 35 77 CFG=1
M  V30 83 1 39 78
M  V30 84 1 39 79
M  V30 85 1 40 80
M  V30 86 1 43 81
M  V30 87 1 43 82
M  V30 88 1 43 83
M  V30 89 1 44 84
M  V30 90 1 44 85
M  V30 91 1 44 86
M  V30 92 1 46 87
M  V30 93 1 46 88
M  V30 94 1 46 89
M  V30 95 1 47 90
M  V30 96 1 47 91
M  V30 97 1 47 92
M  V30 98 1 48 93
M  V30 99 1 48 94
M  V30 100 1 48 95
M  V30 101 1 49 96
M  V30 102 1 49 97
M  V30 END BOND
M  V30 END CTAB
M  END
>  <Dataset>  (342) 
ChEMBL_Kinases

>  <Ligand_Instance>  (342) 
nan

>  <PDB_ID>  (342) 
nan

>  <Standardized_SMILES>  (342) 
COc1cccc(F)c1CN1C[C@H](NC(=O)c2ccc3[nH]nc(-c4ccnc(C)c4)c3c2)CC[C@H]1C(=O)N1CC(O[Si](C)(C)C(C)(C)C)CO1

>  <Name>  (342) 
nan

>  <Pocket>  (342) 
nan

>  <ATP_Site>  (342) 
nan

>  <Peripheral>  (342) 
nan

>  <Num_H_Atoms_ProtBoundConf>  (342) 
nan

>  <Num_Resolved_Atoms>  (342) 
nan

>  <Num_Not_Resolved_Atoms>  (342) 
nan

$$$$
CHEMBL3658442
     RDKit          3D

  0  0  0  0  0  0  0  0  0  0999 V3000
M  V30 BEGIN CTAB
M  V30 COUNTS 92 98 0 0 0
M  V30 BEGIN ATOM
M  V30 1 C 1.168015 -3.572067 3.694106 0
M  V30 2 O 1.999465 -2.949686 2.769942 0
M  V30 3 C 3.365344 -2.932185 2.901197 0
M  V30 4 C 3.950499 -3.551094 3.975926 0
M  V30 5 C 5.298011 -3.563148 4.140825 0
M  V30 6 C 6.072001 -2.938727 3.203196 0
M  V30 7 C 5.454125 -2.325762 2.136320 0
M  V30 8 F 6.291457 -1.725822 1.245566 0
M  V30 9 C 4.072601 -2.280205 1.914579 0
M  V30 10 C 3.605667 -1.535802 0.727246 0
M  V30 11 N 3.249898 -0.179329 0.914432 0
M  V30 12 C 2.260993 0.015536 1.927650 0
M  V30 13 C 1.831238 1.432433 2.167928 0 CFG=2
M  V30 14 N 0.446597 1.363417 2.644006 0
M  V30 15 C -0.150603 1.700390 3.888185 0
M  V30 16 O 0.565995 2.143754 4.787591 0
M  V30 17 C -1.582936 1.509134 4.052573 0
M  V30 18 C -2.104344 1.875068 5.276053 0
M  V30 19 C -3.475337 1.718262 5.517852 0
M  V30 20 C -4.278604 1.191132 4.502081 0
M  V30 21 N -5.596795 0.922014 4.418336 0
M  V30 22 N -5.876664 0.424809 3.230485 0
M  V30 23 C -4.773954 0.331055 2.452999 0
M  V30 24 C -4.669355 -0.166189 1.079389 0
M  V30 25 C -3.627789 -1.043826 0.806921 0
M  V30 26 C -3.445482 -1.569716 -0.478092 0
M  V30 27 N -4.316384 -1.194624 -1.442290 0
M  V30 28 C -5.325621 -0.346127 -1.183875 0
M  V30 29 C -6.226010 0.008452 -2.292376 0
M  V30 30 C -5.547812 0.195593 0.052049 0
M  V30 31 C -3.781894 0.819898 3.276706 0
M  V30 32 C -2.426026 0.997706 3.097528 0
M  V30 33 C 1.988044 2.378622 1.031592 0
M  V30 34 C 2.965770 1.941922 -0.002862 0
M  V30 35 C 2.715055 0.456335 -0.274711 0 CFG=1
M  V30 36 C 3.336475 0.053603 -1.550223 0
M  V30 37 O 4.372443 -0.552682 -1.960755 0
M  V30 38 N 2.510497 0.480268 -2.671882 0
M  V30 39 C 1.226760 1.177788 -2.640242 0
M  V30 40 C 0.192757 0.189028 -3.147038 0
M  V30 41 N 0.529434 -0.165497 -4.486171 0
M  V30 42 C -0.547672 -0.870836 -5.045871 0
M  V30 43 O -1.420015 -0.913197 -4.113078 0
M  V30 44 O -1.062473 -1.524365 -6.142694 0
M  V30 45 C -2.373819 -2.106940 -6.102155 0
M  V30 46 C -2.565904 -3.168055 -5.056397 0
M  V30 47 C -3.551438 -1.241878 -6.352275 0
M  V30 48 C -3.095751 -2.198992 -7.390020 0
M  V30 49 C 1.808660 0.207713 -5.034001 0
M  V30 50 C 2.909794 0.246450 -4.047786 0
M  V30 51 H 1.433011 -3.308722 4.747620 0
M  V30 52 H 1.137196 -4.664420 3.599019 0
M  V30 53 H 0.124876 -3.217943 3.553299 0
M  V30 54 H 3.331272 -4.038524 4.705164 0
M  V30 55 H 5.715843 -4.059383 4.996767 0
M  V30 56 H 7.133541 -2.940462 3.320011 0
M  V30 57 H 2.701923 -2.081743 0.352846 0
M  V30 58 H 4.429238 -1.649545 -0.028363 0
M  V30 59 H 1.359473 -0.598837 1.671158 0
M  V30 60 H 2.656953 -0.383206 2.882229 0
M  V30 61 H 2.432867 1.823311 3.012900 0
M  V30 62 H -0.050018 0.986755 1.808889 0
M  V30 63 H -1.468086 2.287863 6.067096 0
M  V30 64 H -3.902584 1.998907 6.469970 0
M  V30 65 H -6.307336 1.085738 5.192570 0
M  V30 66 H -2.884949 -1.407672 1.496240 0
M  V30 67 H -2.665910 -2.252543 -0.769182 0
M  V30 68 H -6.318666 -0.829664 -3.028730 0
M  V30 69 H -7.236875 0.187470 -1.886551 0
M  V30 70 H -5.883838 0.938529 -2.798797 0
M  V30 71 H -6.347822 0.882503 0.304458 0
M  V30 72 H -2.014247 0.715446 2.141103 0
M  V30 73 H 1.014804 2.601783 0.510865 0
M  V30 74 H 2.308796 3.382337 1.394337 0
M  V30 75 H 3.994083 1.983226 0.467003 0
M  V30 76 H 2.940448 2.562412 -0.892097 0
M  V30 77 H 1.653856 0.191470 -0.301250 0
M  V30 78 H 1.266860 2.015774 -3.340546 0
M  V30 79 H 0.959399 1.554795 -1.633672 0
M  V30 80 H -0.835011 0.588234 -3.045619 0
M  V30 81 H 0.217676 -0.760499 -2.552956 0
M  V30 82 H -3.229443 -2.851399 -4.235045 0
M  V30 83 H -1.583737 -3.423129 -4.569589 0
M  V30 84 H -2.902203 -4.118087 -5.525775 0
M  V30 85 H -4.507115 -1.487864 -5.861950 0
M  V30 86 H -3.462320 -0.158224 -6.570310 0
M  V30 87 H -2.666075 -1.766464 -8.328209 0
M  V30 88 H -3.624458 -3.143161 -7.595289 0
M  V30 89 H 1.706809 1.220737 -5.520033 0
M  V30 90 H 2.048867 -0.502622 -5.848954 0
M  V30 91 H 3.516932 -0.698410 -4.062580 0
M  V30 92 H 3.620978 1.067187 -4.293161 0
M  V30 END ATOM
M  V30 BEGIN BOND
M  V30 1 1 1 2
M  V30 2 1 2 3
M  V30 3 2 3 4
M  V30 4 1 4 5
M  V30 5 2 5 6
M  V30 6 1 6 7
M  V30 7 1 7 8
M  V30 8 2 7 9
M  V30 9 1 9 10
M  V30 10 1 10 11
M  V30 11 1 11 12
M  V30 12 1 12 13
M  V30 13 1 13 14
M  V30 14 1 14 15
M  V30 15 2 15 16
M  V30 16 1 15 17
M  V30 17 2 17 18
M  V30 18 1 18 19
M  V30 19 2 19 20
M  V30 20 1 20 21
M  V30 21 1 21 22
M  V30 22 2 22 23
M  V30 23 1 23 24
M  V30 24 2 24 25
M  V30 25 1 25 26
M  V30 26 2 26 27
M  V30 27 1 27 28
M  V30 28 1 28 29
M  V30 29 2 28 30
M  V30 30 1 23 31
M  V30 31 2 31 32
M  V30 32 1 13 33
M  V30 33 1 33 34
M  V30 34 1 34 35
M  V30 35 1 35 36
M  V30 36 2 36 37
M  V30 37 1 36 38
M  V30 38 1 38 39
M  V30 39 1 39 40
M  V30 40 1 40 41
M  V30 41 1 41 42
M  V30 42 2 42 43
M  V30 43 1 42 44
M  V30 44 1 44 45
M  V30 45 1 45 46
M  V30 46 1 45 47
M  V30 47 1 47 48
M  V30 48 1 41 49
M  V30 49 1 49 50
M  V30 50 1 9 3
M  V30 51 1 35 11
M  V30 52 1 50 38
M  V30 53 1 32 17
M  V30 54 1 48 45
M  V30 55 1 31 20
M  V30 56 1 30 24
M  V30 57 1 1 51
M  V30 58 1 1 52
M  V30 59 1 1 53
M  V30 60 1 4 54
M  V30 61 1 5 55
M  V30 62 1 6 56
M  V30 63 1 10 57
M  V30 64 1 10 58
M  V30 65 1 12 59
M  V30 66 1 12 60
M  V30 67 1 13 61 CFG=1
M  V30 68 1 14 62
M  V30 69 1 18 63
M  V30 70 1 19 64
M  V30 71 1 21 65
M  V30 72 1 25 66
M  V30 73 1 26 67
M  V30 74 1 29 68
M  V30 75 1 29 69
M  V30 76 1 29 70
M  V30 77 1 30 71
M  V30 78 1 32 72
M  V30 79 1 33 73
M  V30 80 1 33 74
M  V30 81 1 34 75
M  V30 82 1 34 76
M  V30 83 1 35 77 CFG=3
M  V30 84 1 39 78
M  V30 85 1 39 79
M  V30 86 1 40 80
M  V30 87 1 40 81
M  V30 88 1 46 82
M  V30 89 1 46 83
M  V30 90 1 46 84
M  V30 91 1 47 85
M  V30 92 1 47 86
M  V30 93 1 48 87
M  V30 94 1 48 88
M  V30 95 1 49 89
M  V30 96 1 49 90
M  V30 97 1 50 91
M  V30 98 1 50 92
M  V30 END BOND
M  V30 END CTAB
M  END
>  <Dataset>  (343) 
ChEMBL_Kinases

>  <Ligand_Instance>  (343) 
nan

>  <PDB_ID>  (343) 
nan

>  <Standardized_SMILES>  (343) 
COc1cccc(F)c1CN1C[C@H](NC(=O)c2ccc3[nH]nc(-c4ccnc(C)c4)c3c2)CC[C@H]1C(=O)N1CCN(C(=O)OC2(C)CC2)CC1

>  <Name>  (343) 
nan

>  <Pocket>  (343) 
nan

>  <ATP_Site>  (343) 
nan

>  <Peripheral>  (343) 
nan

>  <Num_H_Atoms_ProtBoundConf>  (343) 
nan

>  <Num_Resolved_Atoms>  (343) 
nan

>  <Num_Not_Resolved_Atoms>  (343) 
nan

$$$$
CHEMBL3658441
     RDKit          3D

  0  0  0  0  0  0  0  0  0  0999 V3000
M  V30 BEGIN CTAB
M  V30 COUNTS 93 97 0 0 0
M  V30 BEGIN ATOM
M  V30 1 C 3.884240 -3.421634 -1.279452 0
M  V30 2 O 3.632803 -2.065349 -1.603516 0
M  V30 3 C 4.670771 -1.256872 -1.976833 0
M  V30 4 C 5.980499 -1.690124 -2.060803 0
M  V30 5 C 6.981286 -0.827926 -2.442563 0
M  V30 6 C 6.717622 0.493829 -2.754644 0
M  V30 7 C 5.387824 0.879456 -2.654931 0
M  V30 8 F 5.169819 2.185775 -2.970345 0
M  V30 9 C 4.330545 0.041928 -2.270879 0
M  V30 10 C 3.012745 0.687514 -2.250097 0
M  V30 11 N 2.495996 0.991227 -0.948609 0
M  V30 12 C 1.316584 1.729152 -0.998489 0
M  V30 13 C 1.041188 2.388539 0.339803 0 CFG=2
M  V30 14 N -0.197063 3.153984 0.226096 0
M  V30 15 C -1.357862 2.646727 0.854227 0
M  V30 16 O -1.271415 1.561016 1.482394 0
M  V30 17 C -2.562418 3.464951 0.695036 0
M  V30 18 C -2.703025 4.712749 0.125007 0
M  V30 19 C -3.942431 5.313447 0.052296 0
M  V30 20 C -5.078510 4.715317 0.532189 0
M  V30 21 N -6.378884 5.062798 0.582587 0
M  V30 22 N -7.079437 4.099678 1.156486 0
M  V30 23 C -6.251850 3.080483 1.503925 0
M  V30 24 C -6.565133 1.800080 2.148971 0
M  V30 25 C -5.894438 1.232527 3.209817 0
M  V30 26 C -6.317484 -0.007743 3.695419 0
M  V30 27 N -7.378495 -0.652984 3.132135 0
M  V30 28 C -8.047420 -0.112497 2.092617 0
M  V30 29 C -9.201652 -0.866215 1.502980 0
M  V30 30 C -7.639907 1.098645 1.613110 0
M  V30 31 C -4.961837 3.457758 1.111060 0
M  V30 32 C -3.721746 2.855806 1.184790 0
M  V30 33 C 2.224207 3.232594 0.656540 0
M  V30 34 C 3.454844 2.396224 0.826667 0
M  V30 35 C 3.405778 1.080182 0.105225 0 CFG=1
M  V30 36 C 3.125106 -0.033417 1.084705 0
M  V30 37 O 4.041377 -0.110781 1.977601 0
M  V30 38 N 2.013192 -0.932598 1.098893 0
M  V30 39 C 2.200394 -1.807232 2.229990 0
M  V30 40 C 1.111282 -2.799140 2.453256 0
M  V30 41 C 0.822966 -3.782759 1.395960 0
M  V30 42 N 0.408292 -3.292824 0.124509 0
M  V30 43 C 0.158120 -4.418892 -0.739527 0
M  V30 44 O 0.234514 -5.658529 -0.572770 0
M  V30 45 O -0.255908 -4.398128 -2.052507 0
M  V30 46 C -0.498815 -5.517891 -2.866231 0
M  V30 47 C -1.613015 -6.390804 -2.274547 0
M  V30 48 C 0.700105 -6.413058 -3.007078 0
M  V30 49 C -0.941924 -5.096516 -4.250058 0
M  V30 50 H 4.472757 -3.447954 -0.331471 0
M  V30 51 H 2.983432 -4.023796 -1.158506 0
M  V30 52 H 4.552946 -3.816081 -2.097769 0
M  V30 53 H 6.235173 -2.713904 -1.826271 0
M  V30 54 H 8.031701 -1.143537 -2.519715 0
M  V30 55 H 7.494581 1.174705 -3.053741 0
M  V30 56 H 2.964763 1.585589 -2.903077 0
M  V30 57 H 2.300261 -0.039611 -2.726465 0
M  V30 58 H 1.314551 2.477067 -1.824636 0
M  V30 59 H 0.450936 1.024260 -1.172736 0
M  V30 60 H 0.896991 1.570795 1.045427 0
M  V30 61 H -0.058934 4.023666 -0.334345 0
M  V30 62 H -1.767107 5.121074 -0.229543 0
M  V30 63 H -3.973480 6.292843 -0.408685 0
M  V30 64 H -6.713778 5.976552 0.203267 0
M  V30 65 H -5.065987 1.792960 3.613378 0
M  V30 66 H -5.762884 -0.421192 4.532673 0
M  V30 67 H -8.855001 -1.402430 0.574593 0
M  V30 68 H -10.024471 -0.193450 1.189336 0
M  V30 69 H -9.536983 -1.659494 2.192770 0
M  V30 70 H -8.198232 1.513569 0.771636 0
M  V30 71 H -3.715063 1.879649 1.646593 0
M  V30 72 H 2.374271 3.932066 -0.216179 0
M  V30 73 H 2.094630 3.910881 1.538893 0
M  V30 74 H 3.578999 2.176209 1.904817 0
M  V30 75 H 4.330565 3.003581 0.524471 0
M  V30 76 H 4.428005 0.872316 -0.268391 0
M  V30 77 H 1.443637 -0.641831 0.280235 0
M  V30 78 H 2.246947 -1.140595 3.146193 0
M  V30 79 H 3.206721 -2.287020 2.219236 0
M  V30 80 H 1.326555 -3.394686 3.395531 0
M  V30 81 H 0.193181 -2.217310 2.755132 0
M  V30 82 H 1.703667 -4.454059 1.270016 0
M  V30 83 H -0.018791 -4.436117 1.780554 0
M  V30 84 H 0.204175 -2.461916 -0.452503 0
M  V30 85 H -1.236957 -7.328022 -1.850078 0
M  V30 86 H -2.396584 -6.631352 -3.032454 0
M  V30 87 H -2.141739 -5.735832 -1.538217 0
M  V30 88 H 0.685908 -6.864836 -4.042052 0
M  V30 89 H 1.657287 -5.879276 -2.926769 0
M  V30 90 H 0.635130 -7.312388 -2.336796 0
M  V30 91 H -1.546068 -4.147742 -4.183958 0
M  V30 92 H -1.639602 -5.867587 -4.643138 0
M  V30 93 H -0.099106 -4.973384 -4.947854 0
M  V30 END ATOM
M  V30 BEGIN BOND
M  V30 1 1 1 2
M  V30 2 1 2 3
M  V30 3 2 3 4
M  V30 4 1 4 5
M  V30 5 2 5 6
M  V30 6 1 6 7
M  V30 7 1 7 8
M  V30 8 2 7 9
M  V30 9 1 9 10
M  V30 10 1 10 11
M  V30 11 1 11 12
M  V30 12 1 12 13
M  V30 13 1 13 14
M  V30 14 1 14 15
M  V30 15 2 15 16
M  V30 16 1 15 17
M  V30 17 2 17 18
M  V30 18 1 18 19
M  V30 19 2 19 20
M  V30 20 1 20 21
M  V30 21 1 21 22
M  V30 22 2 22 23
M  V30 23 1 23 24
M  V30 24 2 24 25
M  V30 25 1 25 26
M  V30 26 2 26 27
M  V30 27 1 27 28
M  V30 28 1 28 29
M  V30 29 2 28 30
M  V30 30 1 23 31
M  V30 31 2 31 32
M  V30 32 1 13 33
M  V30 33 1 33 34
M  V30 34 1 34 35
M  V30 35 1 35 36
M  V30 36 2 36 37
M  V30 37 1 36 38
M  V30 38 1 38 39
M  V30 39 1 39 40
M  V30 40 1 40 41
M  V30 41 1 41 42
M  V30 42 1 42 43
M  V30 43 2 43 44
M  V30 44 1 43 45
M  V30 45 1 45 46
M  V30 46 1 46 47
M  V30 47 1 46 48
M  V30 48 1 46 49
M  V30 49 1 9 3
M  V30 50 1 35 11
M  V30 51 1 32 17
M  V30 52 1 31 20
M  V30 53 1 30 24
M  V30 54 1 1 50
M  V30 55 1 1 51
M  V30 56 1 1 52
M  V30 57 1 4 53
M  V30 58 1 5 54
M  V30 59 1 6 55
M  V30 60 1 10 56
M  V30 61 1 10 57
M  V30 62 1 12 58
M  V30 63 1 12 59
M  V30 64 1 13 60 CFG=1
M  V30 65 1 14 61
M  V30 66 1 18 62
M  V30 67 1 19 63
M  V30 68 1 21 64
M  V30 69 1 25 65
M  V30 70 1 26 66
M  V30 71 1 29 67
M  V30 72 1 29 68
M  V30 73 1 29 69
M  V30 74 1 30 70
M  V30 75 1 32 71
M  V30 76 1 33 72
M  V30 77 1 33 73
M  V30 78 1 34 74
M  V30 79 1 34 75
M  V30 80 1 35 76 CFG=3
M  V30 81 1 38 77
M  V30 82 1 39 78
M  V30 83 1 39 79
M  V30 84 1 40 80
M  V30 85 1 40 81
M  V30 86 1 41 82
M  V30 87 1 41 83
M  V30 88 1 42 84
M  V30 89 1 47 85
M  V30 90 1 47 86
M  V30 91 1 47 87
M  V30 92 1 48 88
M  V30 93 1 48 89
M  V30 94 1 48 90
M  V30 95 1 49 91
M  V30 96 1 49 92
M  V30 97 1 49 93
M  V30 END BOND
M  V30 END CTAB
M  END
>  <Dataset>  (344) 
ChEMBL_Kinases

>  <Ligand_Instance>  (344) 
nan

>  <PDB_ID>  (344) 
nan

>  <Standardized_SMILES>  (344) 
COc1cccc(F)c1CN1C[C@H](NC(=O)c2ccc3[nH]nc(-c4ccnc(C)c4)c3c2)CC[C@H]1C(=O)NCCCNC(=O)OC(C)(C)C

>  <Name>  (344) 
nan

>  <Pocket>  (344) 
nan

>  <ATP_Site>  (344) 
nan

>  <Peripheral>  (344) 
nan

>  <Num_H_Atoms_ProtBoundConf>  (344) 
nan

>  <Num_Resolved_Atoms>  (344) 
nan

>  <Num_Not_Resolved_Atoms>  (344) 
nan

$$$$
CHEMBL3658440
     RDKit          3D

  0  0  0  0  0  0  0  0  0  0999 V3000
M  V30 BEGIN CTAB
M  V30 COUNTS 90 94 0 0 0
M  V30 BEGIN ATOM
M  V30 1 C 4.189082 -4.918781 -2.662844 0
M  V30 2 O 4.332651 -3.515432 -2.550534 0
M  V30 3 C 5.456091 -2.963065 -2.006906 0
M  V30 4 C 6.480039 -3.788406 -1.555060 0
M  V30 5 C 7.660392 -3.356665 -0.988734 0
M  V30 6 C 7.868229 -2.003422 -0.847195 0
M  V30 7 C 6.860629 -1.170146 -1.291531 0
M  V30 8 F 7.056753 0.180324 -1.153722 0
M  V30 9 C 5.658402 -1.582601 -1.867113 0
M  V30 10 C 4.622755 -0.669899 -2.322678 0
M  V30 11 N 3.471667 -0.548274 -1.459755 0
M  V30 12 C 2.494477 0.326080 -1.979906 0
M  V30 13 C 1.702845 0.946547 -0.874470 0 CFG=2
M  V30 14 N 0.711825 1.913053 -1.301351 0
M  V30 15 C -0.596743 1.861347 -0.731764 0
M  V30 16 O -0.790229 0.954986 0.116896 0
M  V30 17 C -1.531462 2.889353 -1.227784 0
M  V30 18 C -1.368785 3.821763 -2.213127 0
M  V30 19 C -2.402299 4.695644 -2.482696 0
M  V30 20 C -3.594852 4.669503 -1.800039 0
M  V30 21 N -4.700776 5.413305 -1.900279 0
M  V30 22 N -5.597291 4.998271 -1.003144 0
M  V30 23 C -5.035074 3.964187 -0.321975 0
M  V30 24 C -5.676578 3.221843 0.756148 0
M  V30 25 C -6.323875 4.031765 1.695964 0
M  V30 26 C -6.997129 3.513301 2.806996 0
M  V30 27 N -7.009315 2.185166 2.956591 0
M  V30 28 C -6.398755 1.381299 2.073607 0
M  V30 29 C -6.429403 -0.097516 2.267824 0
M  V30 30 C -5.727171 1.860865 0.968941 0
M  V30 31 C -3.765708 3.735232 -0.808327 0
M  V30 32 C -2.742342 2.853368 -0.526039 0
M  V30 33 C 2.700239 1.674912 0.019021 0
M  V30 34 C 3.611598 0.673371 0.694072 0
M  V30 35 C 3.735217 -0.597431 -0.085478 0 CFG=1
M  V30 36 C 2.963293 -1.697763 0.518491 0
M  V30 37 O 2.422975 -2.331494 -0.413515 0
M  V30 38 N 2.747362 -2.120956 1.835870 0
M  V30 39 C 2.071840 -3.110077 2.615404 0
M  V30 40 C 0.580115 -3.171421 2.496494 0
M  V30 41 N 0.105077 -3.525243 1.202023 0
M  V30 42 C -1.330642 -3.530035 1.224433 0
M  V30 43 O -2.021858 -3.252620 2.243715 0
M  V30 44 O -2.197790 -3.819559 0.208476 0
M  V30 45 C -3.586325 -3.826126 0.222078 0
M  V30 46 C -4.212680 -4.781718 1.210313 0
M  V30 47 C -4.156694 -2.449938 0.489920 0
M  V30 48 C -4.085576 -4.210011 -1.176908 0
M  V30 49 H 4.906239 -5.392099 -3.355792 0
M  V30 50 H 4.345132 -5.347703 -1.653838 0
M  V30 51 H 3.122372 -5.177009 -2.924872 0
M  V30 52 H 6.328181 -4.869475 -1.661888 0
M  V30 53 H 8.398620 -4.092652 -0.669057 0
M  V30 54 H 8.767333 -1.624293 -0.414367 0
M  V30 55 H 5.020979 0.366073 -2.474020 0
M  V30 56 H 4.223952 -0.976119 -3.327151 0
M  V30 57 H 2.931239 1.184839 -2.564267 0
M  V30 58 H 1.859571 -0.228271 -2.708027 0
M  V30 59 H 1.279698 0.160503 -0.228916 0
M  V30 60 H 1.094564 2.570482 -2.016097 0
M  V30 61 H -0.406286 3.766312 -2.689528 0
M  V30 62 H -2.188953 5.402397 -3.279889 0
M  V30 63 H -4.828050 6.187286 -2.574209 0
M  V30 64 H -6.355310 5.111623 1.640186 0
M  V30 65 H -7.490174 4.143964 3.522804 0
M  V30 66 H -5.670567 -0.402022 3.035264 0
M  V30 67 H -7.405252 -0.453271 2.662512 0
M  V30 68 H -6.231525 -0.621017 1.329471 0
M  V30 69 H -5.218880 1.288413 0.223236 0
M  V30 70 H -2.985062 2.161796 0.272044 0
M  V30 71 H 3.296601 2.336022 -0.634768 0
M  V30 72 H 2.142654 2.317573 0.721624 0
M  V30 73 H 3.137674 0.450254 1.667282 0
M  V30 74 H 4.592540 1.137710 0.903451 0
M  V30 75 H 4.822472 -0.906324 0.029927 0
M  V30 76 H 3.319885 -1.413607 2.385608 0
M  V30 77 H 2.287684 -2.901068 3.692955 0
M  V30 78 H 2.499304 -4.144851 2.381343 0
M  V30 79 H 0.215490 -2.123660 2.725657 0
M  V30 80 H 0.191123 -3.838388 3.299526 0
M  V30 81 H 0.357600 -3.792335 0.244987 0
M  V30 82 H -3.961333 -5.810503 0.873414 0
M  V30 83 H -5.317680 -4.700585 1.122552 0
M  V30 84 H -3.848537 -4.688598 2.232012 0
M  V30 85 H -4.182373 -2.219383 1.561516 0
M  V30 86 H -5.228984 -2.507409 0.151849 0
M  V30 87 H -3.659210 -1.659255 -0.113603 0
M  V30 88 H -5.068695 -3.734641 -1.338418 0
M  V30 89 H -3.362081 -3.769385 -1.891178 0
M  V30 90 H -4.149901 -5.313296 -1.280223 0
M  V30 END ATOM
M  V30 BEGIN BOND
M  V30 1 1 1 2
M  V30 2 1 2 3
M  V30 3 2 3 4
M  V30 4 1 4 5
M  V30 5 2 5 6
M  V30 6 1 6 7
M  V30 7 1 7 8
M  V30 8 2 7 9
M  V30 9 1 9 10
M  V30 10 1 10 11
M  V30 11 1 11 12
M  V30 12 1 12 13
M  V30 13 1 13 14
M  V30 14 1 14 15
M  V30 15 2 15 16
M  V30 16 1 15 17
M  V30 17 2 17 18
M  V30 18 1 18 19
M  V30 19 2 19 20
M  V30 20 1 20 21
M  V30 21 1 21 22
M  V30 22 2 22 23
M  V30 23 1 23 24
M  V30 24 2 24 25
M  V30 25 1 25 26
M  V30 26 2 26 27
M  V30 27 1 27 28
M  V30 28 1 28 29
M  V30 29 2 28 30
M  V30 30 1 23 31
M  V30 31 2 31 32
M  V30 32 1 13 33
M  V30 33 1 33 34
M  V30 34 1 34 35
M  V30 35 1 35 36
M  V30 36 2 36 37
M  V30 37 1 36 38
M  V30 38 1 38 39
M  V30 39 1 39 40
M  V30 40 1 40 41
M  V30 41 1 41 42
M  V30 42 2 42 43
M  V30 43 1 42 44
M  V30 44 1 44 45
M  V30 45 1 45 46
M  V30 46 1 45 47
M  V30 47 1 45 48
M  V30 48 1 9 3
M  V30 49 1 35 11
M  V30 50 1 32 17
M  V30 51 1 31 20
M  V30 52 1 30 24
M  V30 53 1 1 49
M  V30 54 1 1 50
M  V30 55 1 1 51
M  V30 56 1 4 52
M  V30 57 1 5 53
M  V30 58 1 6 54
M  V30 59 1 10 55
M  V30 60 1 10 56
M  V30 61 1 12 57
M  V30 62 1 12 58
M  V30 63 1 13 59 CFG=1
M  V30 64 1 14 60
M  V30 65 1 18 61
M  V30 66 1 19 62
M  V30 67 1 21 63
M  V30 68 1 25 64
M  V30 69 1 26 65
M  V30 70 1 29 66
M  V30 71 1 29 67
M  V30 72 1 29 68
M  V30 73 1 30 69
M  V30 74 1 32 70
M  V30 75 1 33 71
M  V30 76 1 33 72
M  V30 77 1 34 73
M  V30 78 1 34 74
M  V30 79 1 35 75 CFG=3
M  V30 80 1 38 76
M  V30 81 1 39 77
M  V30 82 1 39 78
M  V30 83 1 40 79
M  V30 84 1 40 80
M  V30 85 1 41 81
M  V30 86 1 46 82
M  V30 87 1 46 83
M  V30 88 1 46 84
M  V30 89 1 47 85
M  V30 90 1 47 86
M  V30 91 1 47 87
M  V30 92 1 48 88
M  V30 93 1 48 89
M  V30 94 1 48 90
M  V30 END BOND
M  V30 END CTAB
M  END
>  <Dataset>  (345) 
ChEMBL_Kinases

>  <Ligand_Instance>  (345) 
nan

>  <PDB_ID>  (345) 
nan

>  <Standardized_SMILES>  (345) 
COc1cccc(F)c1CN1C[C@H](NC(=O)c2ccc3[nH]nc(-c4ccnc(C)c4)c3c2)CC[C@H]1C(=O)NCCNC(=O)OC(C)(C)C

>  <Name>  (345) 
nan

>  <Pocket>  (345) 
nan

>  <ATP_Site>  (345) 
nan

>  <Peripheral>  (345) 
nan

>  <Num_H_Atoms_ProtBoundConf>  (345) 
nan

>  <Num_Resolved_Atoms>  (345) 
nan

>  <Num_Not_Resolved_Atoms>  (345) 
nan

$$$$
CHEMBL3658439
     RDKit          3D

  0  0  0  0  0  0  0  0  0  0999 V3000
M  V30 BEGIN CTAB
M  V30 COUNTS 88 93 0 0 0
M  V30 BEGIN ATOM
M  V30 1 C 1.178374 -5.461055 -1.317886 0
M  V30 2 C 0.274258 -5.651657 -2.508323 0
M  V30 3 O -0.187636 -4.416316 -3.035483 0
M  V30 4 C 0.646051 -3.453659 -3.512328 0
M  V30 5 O 1.650075 -4.149044 -3.250794 0
M  V30 6 N 1.209248 -2.296733 -4.061873 0
M  V30 7 C 2.660983 -2.371631 -4.107111 0
M  V30 8 C 3.206135 -0.939148 -4.195314 0
M  V30 9 N 2.299302 -0.117961 -3.415711 0
M  V30 10 C 2.624860 0.271715 -2.061065 0
M  V30 11 O 3.711025 -0.357967 -2.041335 0
M  V30 12 C 1.708416 1.133398 -1.301831 0 CFG=2
M  V30 13 C 1.732018 2.570762 -1.853829 0
M  V30 14 C 0.497173 3.252743 -1.300765 0
M  V30 15 C 0.539484 3.146136 0.196422 0 CFG=1
M  V30 16 N -0.641821 2.556088 0.765567 0
M  V30 17 C -1.434648 3.153175 1.768068 0
M  V30 18 O -1.023557 4.277281 2.156319 0
M  V30 19 C -2.637846 2.541492 2.327597 0
M  V30 20 C -3.290486 3.111561 3.384437 0
M  V30 21 C -4.453440 2.578219 3.951408 0
M  V30 22 C -4.934017 1.402281 3.372240 0
M  V30 23 N -6.000210 0.635759 3.654905 0
M  V30 24 N -6.054468 -0.387903 2.832769 0
M  V30 25 C -5.020999 -0.332653 1.971343 0
M  V30 26 C -4.752301 -1.293701 0.912665 0
M  V30 27 C -4.435678 -0.770502 -0.345676 0
M  V30 28 C -4.161338 -1.584096 -1.421495 0
M  V30 29 N -4.197351 -2.933144 -1.263729 0
M  V30 30 C -4.503213 -3.472554 -0.051148 0
M  V30 31 C -4.528225 -4.955343 0.071318 0
M  V30 32 C -4.780868 -2.665934 1.035452 0
M  V30 33 C -4.282984 0.807276 2.294929 0
M  V30 34 C -3.140769 1.380182 1.781795 0
M  V30 35 C 1.832836 2.494618 0.670844 0
M  V30 36 N 1.987643 1.203592 0.116105 0
M  V30 37 C 3.095721 0.442147 0.534386 0
M  V30 38 C 3.190902 0.287309 2.000237 0
M  V30 39 C 3.725878 1.221450 2.868323 0
M  V30 40 F 4.266871 2.366211 2.412189 0
M  V30 41 C 3.781847 1.070951 4.235793 0
M  V30 42 C 3.284895 -0.072823 4.826772 0
M  V30 43 C 2.750194 -1.014970 3.994834 0
M  V30 44 C 2.693845 -0.863822 2.630601 0
M  V30 45 O 2.140025 -1.858180 1.866832 0
M  V30 46 C 1.602591 -3.062097 2.323694 0
M  V30 47 C 1.107071 0.168719 -4.232612 0
M  V30 48 C 0.441176 -1.165151 -4.530266 0
M  V30 49 H 2.210316 -5.746647 -1.624034 0
M  V30 50 H 1.188319 -4.424100 -0.952222 0
M  V30 51 H 0.900478 -6.163218 -0.482656 0
M  V30 52 H 0.721528 -6.291370 -3.289809 0
M  V30 53 H -0.634999 -6.169304 -2.145881 0
M  V30 54 H 3.012807 -2.969411 -4.957487 0
M  V30 55 H 3.039043 -2.798193 -3.153843 0
M  V30 56 H 4.217591 -0.903770 -3.782589 0
M  V30 57 H 3.262485 -0.618809 -5.266993 0
M  V30 58 H 0.678999 0.771754 -1.428225 0
M  V30 59 H 2.664854 3.084053 -1.518063 0
M  V30 60 H 1.687866 2.573526 -2.935946 0
M  V30 61 H -0.364890 2.667873 -1.729119 0
M  V30 62 H 0.454254 4.287395 -1.673477 0
M  V30 63 H 0.589359 4.181424 0.607370 0
M  V30 64 H -0.895443 1.619723 0.386193 0
M  V30 65 H -2.872941 4.009536 3.779179 0
M  V30 66 H -4.939722 3.062401 4.786899 0
M  V30 67 H -6.669884 0.848843 4.425484 0
M  V30 68 H -4.371024 0.273877 -0.618338 0
M  V30 69 H -3.913827 -1.253890 -2.419109 0
M  V30 70 H -5.434719 -5.305406 -0.475558 0
M  V30 71 H -3.628091 -5.431713 -0.397639 0
M  V30 72 H -4.640777 -5.209109 1.144960 0
M  V30 73 H -5.027667 -3.060531 2.012225 0
M  V30 74 H -2.696813 0.870604 0.961361 0
M  V30 75 H 1.697868 2.388028 1.783672 0
M  V30 76 H 2.652858 3.213820 0.508371 0
M  V30 77 H 4.080438 0.824778 0.168603 0
M  V30 78 H 3.029140 -0.604452 0.136275 0
M  V30 79 H 4.204371 1.816073 4.896399 0
M  V30 80 H 3.319443 -0.206032 5.884474 0
M  V30 81 H 2.352975 -1.919596 4.431172 0
M  V30 82 H 1.004448 -3.475859 1.479346 0
M  V30 83 H 1.020640 -2.933568 3.238788 0
M  V30 84 H 2.388020 -3.844552 2.504493 0
M  V30 85 H 0.371805 0.780871 -3.715437 0
M  V30 86 H 1.405109 0.593150 -5.216043 0
M  V30 87 H -0.569336 -1.203189 -4.045014 0
M  V30 88 H 0.252609 -1.301894 -5.612402 0
M  V30 END ATOM
M  V30 BEGIN BOND
M  V30 1 1 1 2
M  V30 2 1 2 3
M  V30 3 1 3 4
M  V30 4 2 4 5
M  V30 5 1 4 6
M  V30 6 1 6 7
M  V30 7 1 7 8
M  V30 8 1 8 9
M  V30 9 1 9 10
M  V30 10 2 10 11
M  V30 11 1 10 12
M  V30 12 1 12 13
M  V30 13 1 13 14
M  V30 14 1 14 15
M  V30 15 1 15 16
M  V30 16 1 16 17
M  V30 17 2 17 18
M  V30 18 1 17 19
M  V30 19 2 19 20
M  V30 20 1 20 21
M  V30 21 2 21 22
M  V30 22 1 22 23
M  V30 23 1 23 24
M  V30 24 2 24 25
M  V30 25 1 25 26
M  V30 26 2 26 27
M  V30 27 1 27 28
M  V30 28 2 28 29
M  V30 29 1 29 30
M  V30 30 1 30 31
M  V30 31 2 30 32
M  V30 32 1 25 33
M  V30 33 2 33 34
M  V30 34 1 15 35
M  V30 35 1 35 36
M  V30 36 1 36 37
M  V30 37 1 37 38
M  V30 38 2 38 39
M  V30 39 1 39 40
M  V30 40 1 39 41
M  V30 41 2 41 42
M  V30 42 1 42 43
M  V30 43 2 43 44
M  V30 44 1 44 45
M  V30 45 1 45 46
M  V30 46 1 9 47
M  V30 47 1 47 48
M  V30 48 1 48 6
M  V30 49 1 36 12
M  V30 50 1 44 38
M  V30 51 1 34 19
M  V30 52 1 33 22
M  V30 53 1 32 26
M  V30 54 1 1 49
M  V30 55 1 1 50
M  V30 56 1 1 51
M  V30 57 1 2 52
M  V30 58 1 2 53
M  V30 59 1 7 54
M  V30 60 1 7 55
M  V30 61 1 8 56
M  V30 62 1 8 57
M  V30 63 1 12 58 CFG=1
M  V30 64 1 13 59
M  V30 65 1 13 60
M  V30 66 1 14 61
M  V30 67 1 14 62
M  V30 68 1 15 63 CFG=1
M  V30 69 1 16 64
M  V30 70 1 20 65
M  V30 71 1 21 66
M  V30 72 1 23 67
M  V30 73 1 27 68
M  V30 74 1 28 69
M  V30 75 1 31 70
M  V30 76 1 31 71
M  V30 77 1 31 72
M  V30 78 1 32 73
M  V30 79 1 34 74
M  V30 80 1 35 75
M  V30 81 1 35 76
M  V30 82 1 37 77
M  V30 83 1 37 78
M  V30 84 1 41 79
M  V30 85 1 42 80
M  V30 86 1 43 81
M  V30 87 1 46 82
M  V30 88 1 46 83
M  V30 89 1 46 84
M  V30 90 1 47 85
M  V30 91 1 47 86
M  V30 92 1 48 87
M  V30 93 1 48 88
M  V30 END BOND
M  V30 END CTAB
M  END
>  <Dataset>  (346) 
ChEMBL_Kinases

>  <Ligand_Instance>  (346) 
nan

>  <PDB_ID>  (346) 
nan

>  <Standardized_SMILES>  (346) 
CCOC(=O)N1CCN(C(=O)[C@@H]2CC[C@@H](NC(=O)c3ccc4[nH]nc(-c5ccnc(C)c5)c4c3)CN2Cc2c(F)cccc2OC)CC1

>  <Name>  (346) 
nan

>  <Pocket>  (346) 
nan

>  <ATP_Site>  (346) 
nan

>  <Peripheral>  (346) 
nan

>  <Num_H_Atoms_ProtBoundConf>  (346) 
nan

>  <Num_Resolved_Atoms>  (346) 
nan

>  <Num_Not_Resolved_Atoms>  (346) 
nan

$$$$
CHEMBL3658438
     RDKit          3D

  0  0  0  0  0  0  0  0  0  0999 V3000
M  V30 BEGIN CTAB
M  V30 COUNTS 85 90 0 0 0
M  V30 BEGIN ATOM
M  V30 1 C 1.985009 -7.818924 -2.203738 0
M  V30 2 O 1.618329 -6.605163 -1.565024 0
M  V30 3 C 2.054633 -6.239327 -0.304788 0
M  V30 4 O 2.818544 -6.970889 0.372457 0
M  V30 5 N 1.619615 -4.998500 0.229629 0
M  V30 6 C 2.006602 -4.507994 1.534245 0
M  V30 7 C 2.766140 -3.227224 1.345241 0
M  V30 8 N 1.999426 -2.290838 0.509982 0
M  V30 9 C 2.654985 -1.028190 0.224861 0
M  V30 10 O 3.537189 -1.569571 0.937961 0
M  V30 11 C 1.908546 -0.081279 -0.615224 0 CFG=2
M  V30 12 C 2.114832 -0.540308 -2.054113 0
M  V30 13 C 1.112773 0.195518 -2.908060 0
M  V30 14 C 1.035062 1.651733 -2.562848 0 CFG=1
M  V30 15 N -0.295418 2.089608 -2.189323 0
M  V30 16 C -1.107628 3.137915 -2.701653 0
M  V30 17 O -0.591694 3.806960 -3.626412 0
M  V30 18 C -2.428860 3.360464 -2.145513 0
M  V30 19 C -3.125047 4.486742 -2.510225 0
M  V30 20 C -4.390451 4.678555 -1.985343 0
M  V30 21 C -5.006228 3.786294 -1.098734 0
M  V30 22 N -6.186388 3.738419 -0.462438 0
M  V30 23 N -6.220799 2.626191 0.268383 0
M  V30 24 C -5.079453 1.921864 0.132519 0
M  V30 25 C -4.737935 0.652124 0.764471 0
M  V30 26 C -4.843916 0.244925 2.074169 0
M  V30 27 C -4.463338 -1.025677 2.434690 0
M  V30 28 N -3.977658 -1.900671 1.508786 0
M  V30 29 C -3.848319 -1.560485 0.201203 0
M  V30 30 C -3.311660 -2.539345 -0.788785 0
M  V30 31 C -4.234432 -0.273095 -0.162311 0
M  V30 32 C -4.287772 2.664989 -0.748421 0
M  V30 33 C -3.012595 2.477964 -1.281253 0
M  V30 34 C 2.067523 2.117414 -1.601936 0
M  V30 35 N 2.464620 1.255829 -0.547828 0
M  V30 36 C 2.111254 1.882054 0.701009 0
M  V30 37 C 2.539655 1.197376 1.916267 0
M  V30 38 C 3.913642 1.399906 2.129609 0
M  V30 39 F 4.758158 2.119885 1.338746 0
M  V30 40 C 4.541836 0.833247 3.243263 0
M  V30 41 C 3.846295 0.068664 4.155831 0
M  V30 42 C 2.501358 -0.109490 3.917449 0
M  V30 43 C 1.843854 0.434085 2.828302 0
M  V30 44 O 0.518193 0.313778 2.509497 0
M  V30 45 C -0.293894 -0.466601 3.400526 0
M  V30 46 C 0.706280 -2.733803 0.093314 0
M  V30 47 C 0.724841 -4.115198 -0.518911 0
M  V30 48 H 1.667088 -7.720513 -3.276146 0
M  V30 49 H 1.442454 -8.699671 -1.817125 0
M  V30 50 H 3.084896 -7.981529 -2.199002 0
M  V30 51 H 1.088542 -4.252804 2.105645 0
M  V30 52 H 2.648644 -5.243694 2.049290 0
M  V30 53 H 3.059872 -2.763804 2.314160 0
M  V30 54 H 3.707967 -3.480282 0.816346 0
M  V30 55 H 0.859682 -0.152332 -0.357818 0
M  V30 56 H 1.944341 -1.625260 -2.080239 0
M  V30 57 H 3.139452 -0.343927 -2.409341 0
M  V30 58 H 1.331956 -0.014787 -3.971141 0
M  V30 59 H 0.116931 -0.247089 -2.705494 0
M  V30 60 H 1.243175 2.217549 -3.523566 0
M  V30 61 H -0.549613 1.441790 -1.426171 0
M  V30 62 H -2.700199 5.207903 -3.187615 0
M  V30 63 H -4.963905 5.568267 -2.262047 0
M  V30 64 H -6.933716 4.472708 -0.549114 0
M  V30 65 H -5.242567 1.015176 2.714418 0
M  V30 66 H -4.567690 -1.294456 3.487731 0
M  V30 67 H -2.593643 -3.189782 -0.244751 0
M  V30 68 H -4.083909 -3.173724 -1.248847 0
M  V30 69 H -2.700894 -2.011063 -1.581704 0
M  V30 70 H -4.102480 -0.095717 -1.227679 0
M  V30 71 H -2.500578 1.605149 -0.970277 0
M  V30 72 H 1.673689 3.077230 -1.183083 0
M  V30 73 H 2.990441 2.466670 -2.163667 0
M  V30 74 H 0.983908 1.954943 0.767387 0
M  V30 75 H 2.441669 2.938760 0.760623 0
M  V30 76 H 5.610854 0.967999 3.441371 0
M  V30 77 H 4.340946 -0.362687 5.008458 0
M  V30 78 H 1.881454 -0.696123 4.584011 0
M  V30 79 H -1.321015 -0.599074 3.019461 0
M  V30 80 H -0.343217 -0.000810 4.398310 0
M  V30 81 H 0.156766 -1.482621 3.538769 0
M  V30 82 H 0.066998 -2.770038 1.027229 0
M  V30 83 H 0.180468 -2.059096 -0.581811 0
M  V30 84 H 0.963348 -4.119595 -1.590720 0
M  V30 85 H -0.291418 -4.546944 -0.402634 0
M  V30 END ATOM
M  V30 BEGIN BOND
M  V30 1 1 1 2
M  V30 2 1 2 3
M  V30 3 2 3 4
M  V30 4 1 3 5
M  V30 5 1 5 6
M  V30 6 1 6 7
M  V30 7 1 7 8
M  V30 8 1 8 9
M  V30 9 2 9 10
M  V30 10 1 9 11
M  V30 11 1 11 12
M  V30 12 1 12 13
M  V30 13 1 13 14
M  V30 14 1 14 15
M  V30 15 1 15 16
M  V30 16 2 16 17
M  V30 17 1 16 18
M  V30 18 2 18 19
M  V30 19 1 19 20
M  V30 20 2 20 21
M  V30 21 1 21 22
M  V30 22 1 22 23
M  V30 23 2 23 24
M  V30 24 1 24 25
M  V30 25 2 25 26
M  V30 26 1 26 27
M  V30 27 2 27 28
M  V30 28 1 28 29
M  V30 29 1 29 30
M  V30 30 2 29 31
M  V30 31 1 24 32
M  V30 32 2 32 33
M  V30 33 1 14 34
M  V30 34 1 34 35
M  V30 35 1 35 36
M  V30 36 1 36 37
M  V30 37 2 37 38
M  V30 38 1 38 39
M  V30 39 1 38 40
M  V30 40 2 40 41
M  V30 41 1 41 42
M  V30 42 2 42 43
M  V30 43 1 43 44
M  V30 44 1 44 45
M  V30 45 1 8 46
M  V30 46 1 46 47
M  V30 47 1 47 5
M  V30 48 1 35 11
M  V30 49 1 43 37
M  V30 50 1 33 18
M  V30 51 1 32 21
M  V30 52 1 31 25
M  V30 53 1 1 48
M  V30 54 1 1 49
M  V30 55 1 1 50
M  V30 56 1 6 51
M  V30 57 1 6 52
M  V30 58 1 7 53
M  V30 59 1 7 54
M  V30 60 1 11 55 CFG=1
M  V30 61 1 12 56
M  V30 62 1 12 57
M  V30 63 1 13 58
M  V30 64 1 13 59
M  V30 65 1 14 60 CFG=3
M  V30 66 1 15 61
M  V30 67 1 19 62
M  V30 68 1 20 63
M  V30 69 1 22 64
M  V30 70 1 26 65
M  V30 71 1 27 66
M  V30 72 1 30 67
M  V30 73 1 30 68
M  V30 74 1 30 69
M  V30 75 1 31 70
M  V30 76 1 33 71
M  V30 77 1 34 72
M  V30 78 1 34 73
M  V30 79 1 36 74
M  V30 80 1 36 75
M  V30 81 1 40 76
M  V30 82 1 41 77
M  V30 83 1 42 78
M  V30 84 1 45 79
M  V30 85 1 45 80
M  V30 86 1 45 81
M  V30 87 1 46 82
M  V30 88 1 46 83
M  V30 89 1 47 84
M  V30 90 1 47 85
M  V30 END BOND
M  V30 END CTAB
M  END
>  <Dataset>  (347) 
ChEMBL_Kinases

>  <Ligand_Instance>  (347) 
nan

>  <PDB_ID>  (347) 
nan

>  <Standardized_SMILES>  (347) 
COC(=O)N1CCN(C(=O)[C@@H]2CC[C@@H](NC(=O)c3ccc4[nH]nc(-c5ccnc(C)c5)c4c3)CN2Cc2c(F)cccc2OC)CC1

>  <Name>  (347) 
nan

>  <Pocket>  (347) 
nan

>  <ATP_Site>  (347) 
nan

>  <Peripheral>  (347) 
nan

>  <Num_H_Atoms_ProtBoundConf>  (347) 
nan

>  <Num_Resolved_Atoms>  (347) 
nan

>  <Num_Not_Resolved_Atoms>  (347) 
nan

$$$$
CHEMBL3658437
     RDKit          3D

  0  0  0  0  0  0  0  0  0  0999 V3000
M  V30 BEGIN CTAB
M  V30 COUNTS 84 89 0 0 0
M  V30 BEGIN ATOM
M  V30 1 C 4.070044 -4.958540 -0.181922 0
M  V30 2 O 3.349193 -3.871921 -0.773653 0
M  V30 3 C 4.052588 -2.792612 -1.332226 0
M  V30 4 C 5.451014 -2.815564 -1.292533 0
M  V30 5 C 6.198365 -1.783052 -1.826431 0
M  V30 6 C 5.533900 -0.731509 -2.398611 0
M  V30 7 C 4.155918 -0.721498 -2.431234 0
M  V30 8 F 3.619134 0.378133 -3.032727 0
M  V30 9 C 3.369171 -1.740807 -1.904793 0
M  V30 10 C 1.912860 -1.685539 -1.966684 0
M  V30 11 N 1.226162 -1.364566 -0.756931 0
M  V30 12 C -0.231458 -1.373909 -0.991215 0
M  V30 13 C -0.846212 -1.638215 0.342006 0 CFG=2
M  V30 14 N -2.257619 -1.769992 0.406976 0
M  V30 15 C -2.879338 -2.947634 0.867959 0
M  V30 16 O -2.140520 -3.870948 1.212205 0
M  V30 17 C -4.315270 -3.133995 0.959577 0
M  V30 18 C -4.756969 -4.400152 1.357530 0
M  V30 19 C -6.120692 -4.689194 1.484358 0
M  V30 20 C -7.047977 -3.703877 1.208615 0
M  V30 21 N -8.399065 -3.712953 1.250154 0
M  V30 22 N -8.799019 -2.508665 0.895411 0
M  V30 23 C -7.759998 -1.705956 0.621225 0
M  V30 24 C -7.819652 -0.313329 0.198454 0
M  V30 25 C -8.621600 0.252419 -0.773238 0
M  V30 26 C -8.533046 1.625069 -1.022477 0
M  V30 27 N -7.673627 2.383256 -0.320301 0
M  V30 28 C -6.887340 1.864860 0.623976 0
M  V30 29 C -5.989444 2.831372 1.319255 0
M  V30 30 C -6.939330 0.514255 0.905910 0
M  V30 31 C -6.615487 -2.464056 0.818903 0
M  V30 32 C -5.277360 -2.182506 0.695998 0
M  V30 33 C -0.434515 -0.487198 1.227913 0
M  V30 34 C 0.500257 0.493751 0.604643 0
M  V30 35 C 1.620358 -0.113356 -0.201088 0 CFG=1
M  V30 36 C 2.784733 -0.250576 0.719141 0
M  V30 37 O 3.573701 -1.021785 1.316386 0
M  V30 38 N 3.367873 0.971104 1.225394 0
M  V30 39 C 4.506929 0.906057 2.136228 0
M  V30 40 C 5.779450 1.337324 1.417894 0
M  V30 41 N 5.397851 2.432312 0.538736 0
M  V30 42 C 6.295330 2.597170 -0.534800 0
M  V30 43 C 6.339050 3.553046 -1.664024 0
M  V30 44 O 7.218883 1.727242 -0.457219 0
M  V30 45 C 4.233760 3.240434 0.761591 0
M  V30 46 C 3.031060 2.359595 0.987335 0
M  V30 47 H 4.546187 -4.691405 0.765240 0
M  V30 48 H 3.404994 -5.819926 -0.000044 0
M  V30 49 H 4.788080 -5.287895 -0.972184 0
M  V30 50 H 6.025277 -3.632042 -0.847331 0
M  V30 51 H 7.282688 -1.810953 -1.787883 0
M  V30 52 H 6.139442 0.062056 -2.806233 0
M  V30 53 H 1.558322 -2.673559 -2.349459 0
M  V30 54 H 1.599805 -0.943770 -2.761528 0
M  V30 55 H -0.356561 -2.169616 -1.747632 0
M  V30 56 H -0.498118 -0.370390 -1.349437 0
M  V30 57 H -0.310793 -2.550684 0.750028 0
M  V30 58 H -2.841576 -0.958382 0.099122 0
M  V30 59 H -4.077350 -5.227911 1.590567 0
M  V30 60 H -6.429506 -5.673126 1.795314 0
M  V30 61 H -8.983672 -4.549341 1.520421 0
M  V30 62 H -9.263802 -0.469644 -1.259122 0
M  V30 63 H -9.213271 1.929117 -1.799667 0
M  V30 64 H -5.527344 3.498646 0.589930 0
M  V30 65 H -6.628532 3.385044 2.055705 0
M  V30 66 H -5.195821 2.325342 1.918424 0
M  V30 67 H -6.241293 0.247560 1.703504 0
M  V30 68 H -4.917312 -1.229927 0.394210 0
M  V30 69 H 0.060146 -0.842775 2.170475 0
M  V30 70 H -1.343065 0.073999 1.522522 0
M  V30 71 H 0.914856 1.109208 1.423133 0
M  V30 72 H -0.084281 1.142705 -0.074424 0
M  V30 73 H 1.866309 0.586236 -1.020108 0
M  V30 74 H 4.280525 1.543656 3.019504 0
M  V30 75 H 4.715613 -0.090796 2.524945 0
M  V30 76 H 6.480966 1.741307 2.172482 0
M  V30 77 H 6.256145 0.502551 0.897508 0
M  V30 78 H 6.821611 4.523176 -1.359687 0
M  V30 79 H 6.848404 3.087512 -2.509434 0
M  V30 80 H 5.320754 3.841645 -2.006649 0
M  V30 81 H 4.471073 3.890242 1.653386 0
M  V30 82 H 4.080467 3.959068 -0.072915 0
M  V30 83 H 2.500191 2.821228 1.870776 0
M  V30 84 H 2.374666 2.495185 0.095209 0
M  V30 END ATOM
M  V30 BEGIN BOND
M  V30 1 1 1 2
M  V30 2 1 2 3
M  V30 3 2 3 4
M  V30 4 1 4 5
M  V30 5 2 5 6
M  V30 6 1 6 7
M  V30 7 1 7 8
M  V30 8 2 7 9
M  V30 9 1 9 10
M  V30 10 1 10 11
M  V30 11 1 11 12
M  V30 12 1 12 13
M  V30 13 1 13 14
M  V30 14 1 14 15
M  V30 15 2 15 16
M  V30 16 1 15 17
M  V30 17 2 17 18
M  V30 18 1 18 19
M  V30 19 2 19 20
M  V30 20 1 20 21
M  V30 21 1 21 22
M  V30 22 2 22 23
M  V30 23 1 23 24
M  V30 24 2 24 25
M  V30 25 1 25 26
M  V30 26 2 26 27
M  V30 27 1 27 28
M  V30 28 1 28 29
M  V30 29 2 28 30
M  V30 30 1 23 31
M  V30 31 2 31 32
M  V30 32 1 13 33
M  V30 33 1 33 34
M  V30 34 1 34 35
M  V30 35 1 35 36
M  V30 36 2 36 37
M  V30 37 1 36 38
M  V30 38 1 38 39
M  V30 39 1 39 40
M  V30 40 1 40 41
M  V30 41 1 41 42
M  V30 42 1 42 43
M  V30 43 2 42 44
M  V30 44 1 41 45
M  V30 45 1 45 46
M  V30 46 1 9 3
M  V30 47 1 35 11
M  V30 48 1 46 38
M  V30 49 1 32 17
M  V30 50 1 31 20
M  V30 51 1 30 24
M  V30 52 1 1 47
M  V30 53 1 1 48
M  V30 54 1 1 49
M  V30 55 1 4 50
M  V30 56 1 5 51
M  V30 57 1 6 52
M  V30 58 1 10 53
M  V30 59 1 10 54
M  V30 60 1 12 55
M  V30 61 1 12 56
M  V30 62 1 13 57 CFG=1
M  V30 63 1 14 58
M  V30 64 1 18 59
M  V30 65 1 19 60
M  V30 66 1 21 61
M  V30 67 1 25 62
M  V30 68 1 26 63
M  V30 69 1 29 64
M  V30 70 1 29 65
M  V30 71 1 29 66
M  V30 72 1 30 67
M  V30 73 1 32 68
M  V30 74 1 33 69
M  V30 75 1 33 70
M  V30 76 1 34 71
M  V30 77 1 34 72
M  V30 78 1 35 73 CFG=3
M  V30 79 1 39 74
M  V30 80 1 39 75
M  V30 81 1 40 76
M  V30 82 1 40 77
M  V30 83 1 43 78
M  V30 84 1 43 79
M  V30 85 1 43 80
M  V30 86 1 45 81
M  V30 87 1 45 82
M  V30 88 1 46 83
M  V30 89 1 46 84
M  V30 END BOND
M  V30 END CTAB
M  END
>  <Dataset>  (348) 
ChEMBL_Kinases

>  <Ligand_Instance>  (348) 
nan

>  <PDB_ID>  (348) 
nan

>  <Standardized_SMILES>  (348) 
COc1cccc(F)c1CN1C[C@H](NC(=O)c2ccc3[nH]nc(-c4ccnc(C)c4)c3c2)CC[C@H]1C(=O)N1CCN(C(C)=O)CC1

>  <Name>  (348) 
nan

>  <Pocket>  (348) 
nan

>  <ATP_Site>  (348) 
nan

>  <Peripheral>  (348) 
nan

>  <Num_H_Atoms_ProtBoundConf>  (348) 
nan

>  <Num_Resolved_Atoms>  (348) 
nan

>  <Num_Not_Resolved_Atoms>  (348) 
nan

$$$$
CHEMBL3658436
     RDKit          3D

  0  0  0  0  0  0  0  0  0  0999 V3000
M  V30 BEGIN CTAB
M  V30 COUNTS 82 87 0 0 0
M  V30 BEGIN ATOM
M  V30 1 C -1.634560 -4.177263 -2.275224 0
M  V30 2 O -0.668533 -3.215578 -2.577062 0
M  V30 3 C 0.637232 -3.461757 -2.886194 0
M  V30 4 C 1.143838 -4.742632 -2.934125 0
M  V30 5 C 2.458864 -5.016411 -3.246715 0
M  V30 6 C 3.289355 -3.945682 -3.520332 0
M  V30 7 C 2.756193 -2.675999 -3.464484 0
M  V30 8 F 3.643822 -1.672950 -3.749781 0
M  V30 9 C 1.423606 -2.364723 -3.149866 0
M  V30 10 C 1.087780 -0.929265 -3.135846 0
M  V30 11 N 1.039573 -0.287159 -1.868066 0
M  V30 12 C 0.098427 -0.702763 -0.929785 0
M  V30 13 C 0.028433 0.300231 0.197051 0 CFG=2
M  V30 14 N -0.733986 -0.214597 1.291786 0
M  V30 15 C -0.386515 -0.467534 2.620833 0
M  V30 16 O 0.785482 -0.228716 2.999249 0
M  V30 17 C -1.301238 -1.000574 3.624272 0
M  V30 18 C -0.797645 -1.248850 4.896785 0
M  V30 19 C -1.643725 -1.755447 5.880087 0
M  V30 20 C -2.994838 -2.026297 5.633386 0
M  V30 21 N -4.035573 -2.496695 6.327914 0
M  V30 22 N -5.095258 -2.525223 5.513411 0
M  V30 23 C -4.731165 -2.077536 4.315074 0
M  V30 24 C -5.753581 -2.029703 3.276332 0
M  V30 25 C -6.647231 -3.044202 3.013087 0
M  V30 26 C -7.614587 -2.989985 2.033704 0
M  V30 27 N -7.676225 -1.865625 1.295905 0
M  V30 28 C -6.850805 -0.820691 1.473731 0
M  V30 29 C -6.905259 0.432033 0.668955 0
M  V30 30 C -5.896888 -0.908943 2.460448 0
M  V30 31 C -3.383903 -1.742634 4.341408 0
M  V30 32 C -2.621547 -1.242783 3.307374 0
M  V30 33 C -0.539145 1.550851 -0.411227 0
M  V30 34 C 0.451461 2.075338 -1.423848 0
M  V30 35 C 1.435414 1.059640 -1.880022 0 CFG=1
M  V30 36 C 2.743014 1.186848 -1.193107 0
M  V30 37 O 3.373686 0.203379 -0.718947 0
M  V30 38 N 3.696101 2.162345 -0.811854 0
M  V30 39 C 4.764650 1.456860 -0.128162 0
M  V30 40 C 5.802985 2.471566 0.254099 0
M  V30 41 N 6.210054 3.175507 -0.945285 0
M  V30 42 C 6.802547 2.284260 -1.909511 0
M  V30 43 C 5.163244 4.006430 -1.485628 0
M  V30 44 C 3.796205 3.612846 -0.965194 0
M  V30 45 H -2.125404 -4.538525 -3.186029 0
M  V30 46 H -1.242356 -4.986683 -1.620267 0
M  V30 47 H -2.399676 -3.653466 -1.638279 0
M  V30 48 H 0.467466 -5.568011 -2.714736 0
M  V30 49 H 2.826151 -6.031398 -3.275696 0
M  V30 50 H 4.324877 -4.122786 -3.771164 0
M  V30 51 H 1.791638 -0.376078 -3.823331 0
M  V30 52 H 0.089520 -0.797115 -3.665918 0
M  V30 53 H 0.245722 -1.736215 -0.532265 0
M  V30 54 H -0.919726 -0.758430 -1.424615 0
M  V30 55 H 1.029434 0.544773 0.598592 0
M  V30 56 H -1.703056 -0.408592 0.952889 0
M  V30 57 H 0.234268 -1.063163 5.166908 0
M  V30 58 H -1.282540 -1.962788 6.881392 0
M  V30 59 H -3.998168 -2.783145 7.326821 0
M  V30 60 H -6.573587 -3.933639 3.619652 0
M  V30 61 H -8.302863 -3.810156 1.855799 0
M  V30 62 H -7.034859 1.289050 1.390480 0
M  V30 63 H -7.668226 0.408593 -0.116020 0
M  V30 64 H -5.878207 0.579950 0.244551 0
M  V30 65 H -5.219877 -0.064156 2.613778 0
M  V30 66 H -3.044344 -1.062896 2.338628 0
M  V30 67 H -1.468597 1.267039 -0.941860 0
M  V30 68 H -0.701370 2.273721 0.412005 0
M  V30 69 H -0.100970 2.505478 -2.277438 0
M  V30 70 H 0.993613 2.913254 -0.949456 0
M  V30 71 H 1.686299 1.300562 -2.960214 0
M  V30 72 H 5.212135 0.755239 -0.855412 0
M  V30 73 H 4.341097 0.951452 0.765947 0
M  V30 74 H 5.426241 3.206426 0.991797 0
M  V30 75 H 6.712132 1.981895 0.660165 0
M  V30 76 H 6.170700 2.077490 -2.782467 0
M  V30 77 H 7.775886 2.690747 -2.312275 0
M  V30 78 H 7.090267 1.316314 -1.420358 0
M  V30 79 H 5.186641 4.088949 -2.592748 0
M  V30 80 H 5.357752 5.043123 -1.100531 0
M  V30 81 H 3.618554 4.118393 0.006286 0
M  V30 82 H 3.057294 3.985715 -1.705516 0
M  V30 END ATOM
M  V30 BEGIN BOND
M  V30 1 1 1 2
M  V30 2 1 2 3
M  V30 3 2 3 4
M  V30 4 1 4 5
M  V30 5 2 5 6
M  V30 6 1 6 7
M  V30 7 1 7 8
M  V30 8 2 7 9
M  V30 9 1 9 10
M  V30 10 1 10 11
M  V30 11 1 11 12
M  V30 12 1 12 13
M  V30 13 1 13 14
M  V30 14 1 14 15
M  V30 15 2 15 16
M  V30 16 1 15 17
M  V30 17 2 17 18
M  V30 18 1 18 19
M  V30 19 2 19 20
M  V30 20 1 20 21
M  V30 21 1 21 22
M  V30 22 2 22 23
M  V30 23 1 23 24
M  V30 24 2 24 25
M  V30 25 1 25 26
M  V30 26 2 26 27
M  V30 27 1 27 28
M  V30 28 1 28 29
M  V30 29 2 28 30
M  V30 30 1 23 31
M  V30 31 2 31 32
M  V30 32 1 13 33
M  V30 33 1 33 34
M  V30 34 1 34 35
M  V30 35 1 35 36
M  V30 36 2 36 37
M  V30 37 1 36 38
M  V30 38 1 38 39
M  V30 39 1 39 40
M  V30 40 1 40 41
M  V30 41 1 41 42
M  V30 42 1 41 43
M  V30 43 1 43 44
M  V30 44 1 9 3
M  V30 45 1 35 11
M  V30 46 1 44 38
M  V30 47 1 32 17
M  V30 48 1 31 20
M  V30 49 1 30 24
M  V30 50 1 1 45
M  V30 51 1 1 46
M  V30 52 1 1 47
M  V30 53 1 4 48
M  V30 54 1 5 49
M  V30 55 1 6 50
M  V30 56 1 10 51
M  V30 57 1 10 52
M  V30 58 1 12 53
M  V30 59 1 12 54
M  V30 60 1 13 55 CFG=1
M  V30 61 1 14 56
M  V30 62 1 18 57
M  V30 63 1 19 58
M  V30 64 1 21 59
M  V30 65 1 25 60
M  V30 66 1 26 61
M  V30 67 1 29 62
M  V30 68 1 29 63
M  V30 69 1 29 64
M  V30 70 1 30 65
M  V30 71 1 32 66
M  V30 72 1 33 67
M  V30 73 1 33 68
M  V30 74 1 34 69
M  V30 75 1 34 70
M  V30 76 1 35 71 CFG=3
M  V30 77 1 39 72
M  V30 78 1 39 73
M  V30 79 1 40 74
M  V30 80 1 40 75
M  V30 81 1 42 76
M  V30 82 1 42 77
M  V30 83 1 42 78
M  V30 84 1 43 79
M  V30 85 1 43 80
M  V30 86 1 44 81
M  V30 87 1 44 82
M  V30 END BOND
M  V30 END CTAB
M  END
>  <Dataset>  (349) 
ChEMBL_Kinases

>  <Ligand_Instance>  (349) 
nan

>  <PDB_ID>  (349) 
nan

>  <Standardized_SMILES>  (349) 
COc1cccc(F)c1CN1C[C@H](NC(=O)c2ccc3[nH]nc(-c4ccnc(C)c4)c3c2)CC[C@H]1C(=O)N1CCN(C)CC1

>  <Name>  (349) 
nan

>  <Pocket>  (349) 
nan

>  <ATP_Site>  (349) 
nan

>  <Peripheral>  (349) 
nan

>  <Num_H_Atoms_ProtBoundConf>  (349) 
nan

>  <Num_Resolved_Atoms>  (349) 
nan

>  <Num_Not_Resolved_Atoms>  (349) 
nan

$$$$
CHEMBL3658435
     RDKit          3D

  0  0  0  0  0  0  0  0  0  0999 V3000
M  V30 BEGIN CTAB
M  V30 COUNTS 78 83 0 0 0
M  V30 BEGIN ATOM
M  V30 1 C 0.277768 -3.286803 3.394448 0
M  V30 2 O 0.837322 -2.911222 2.163235 0
M  V30 3 C 2.130764 -3.254999 1.824850 0
M  V30 4 C 2.904693 -3.985891 2.701329 0
M  V30 5 C 4.188370 -4.314648 2.336918 0
M  V30 6 C 4.706206 -3.930687 1.127951 0
M  V30 7 C 3.864346 -3.193055 0.292586 0
M  V30 8 F 4.432281 -2.834944 -0.909631 0
M  V30 9 C 2.545399 -2.818196 0.591767 0
M  V30 10 C 1.856690 -2.035082 -0.450749 0
M  V30 11 N 1.773486 -0.628227 -0.240492 0
M  V30 12 C 1.013636 -0.130142 0.799898 0
M  V30 13 C 0.484686 1.288517 0.610993 0 CFG=2
M  V30 14 N -0.848252 1.222245 -0.008139 0
M  V30 15 C -2.132837 1.045058 0.609293 0
M  V30 16 O -2.047619 0.931479 1.837758 0
M  V30 17 C -3.247741 1.037599 -0.363366 0
M  V30 18 C -3.201317 1.656167 -1.598015 0
M  V30 19 C -4.299151 1.527978 -2.416115 0
M  V30 20 C -5.401911 0.802846 -2.013857 0
M  V30 21 N -6.570608 0.532280 -2.620250 0
M  V30 22 N -7.310625 -0.216761 -1.826925 0
M  V30 23 C -6.615099 -0.444138 -0.662593 0
M  V30 24 C -7.084129 -1.244649 0.460108 0
M  V30 25 C -7.633168 -2.472537 0.064119 0
M  V30 26 C -8.153041 -3.437060 0.905275 0
M  V30 27 N -8.122385 -3.152582 2.231784 0
M  V30 28 C -7.587385 -1.955563 2.625062 0
M  V30 29 C -7.587762 -1.718380 4.101255 0
M  V30 30 C -7.071315 -0.991528 1.821319 0
M  V30 31 C -5.398271 0.207011 -0.776199 0
M  V30 32 C -4.338152 0.292706 0.098533 0
M  V30 33 C 1.412979 2.172204 -0.112959 0
M  V30 34 C 2.089355 1.521244 -1.296298 0
M  V30 35 C 2.680849 0.166879 -0.965603 0 CFG=1
M  V30 36 C 3.994363 0.356665 -0.255517 0
M  V30 37 O 3.713910 -0.032592 0.920920 0
M  V30 38 N 5.134227 0.861185 -0.939550 0
M  V30 39 C 5.238785 1.203601 -2.352105 0
M  V30 40 C 6.539773 0.644071 -2.914406 0
M  V30 41 C 7.479629 0.279231 -1.774563 0
M  V30 42 C 7.282747 1.272915 -0.639170 0
M  V30 43 O 6.096646 0.953278 -0.000325 0
M  V30 44 H 0.825468 -2.905118 4.281448 0
M  V30 45 H -0.760618 -2.903153 3.454231 0
M  V30 46 H 0.287972 -4.411110 3.432714 0
M  V30 47 H 2.441482 -4.266162 3.639387 0
M  V30 48 H 4.752073 -4.889481 3.066658 0
M  V30 49 H 5.708834 -4.184027 0.825449 0
M  V30 50 H 0.786006 -2.414078 -0.584149 0
M  V30 51 H 2.311211 -2.224761 -1.444043 0
M  V30 52 H 1.519600 -0.260983 1.768764 0
M  V30 53 H 0.063159 -0.740565 0.865311 0
M  V30 54 H 0.325510 1.638669 1.636503 0
M  V30 55 H -0.717286 1.327970 -1.055861 0
M  V30 56 H -2.324830 2.222026 -1.883540 0
M  V30 57 H -4.239257 2.032683 -3.388885 0
M  V30 58 H -6.788722 0.903170 -3.598002 0
M  V30 59 H -7.698150 -2.790873 -0.989118 0
M  V30 60 H -8.577083 -4.365363 0.617113 0
M  V30 61 H -6.566598 -1.852333 4.515255 0
M  V30 62 H -8.334832 -2.368272 4.613845 0
M  V30 63 H -7.911012 -0.667086 4.247183 0
M  V30 64 H -6.640671 -0.058210 2.079431 0
M  V30 65 H -4.388354 -0.208518 1.068614 0
M  V30 66 H 2.169178 2.698663 0.504014 0
M  V30 67 H 0.801371 3.019049 -0.559165 0
M  V30 68 H 1.435328 1.467311 -2.190597 0
M  V30 69 H 2.944088 2.175059 -1.575207 0
M  V30 70 H 2.927831 -0.320647 -1.930860 0
M  V30 71 H 4.379724 0.783346 -2.887307 0
M  V30 72 H 5.244890 2.293255 -2.489298 0
M  V30 73 H 6.324550 -0.276014 -3.476088 0
M  V30 74 H 7.044042 1.351687 -3.584698 0
M  V30 75 H 8.546602 0.322800 -2.077502 0
M  V30 76 H 7.274037 -0.731184 -1.360350 0
M  V30 77 H 8.156739 1.196550 0.038221 0
M  V30 78 H 7.184433 2.269763 -1.140130 0
M  V30 END ATOM
M  V30 BEGIN BOND
M  V30 1 1 1 2
M  V30 2 1 2 3
M  V30 3 2 3 4
M  V30 4 1 4 5
M  V30 5 2 5 6
M  V30 6 1 6 7
M  V30 7 1 7 8
M  V30 8 2 7 9
M  V30 9 1 9 10
M  V30 10 1 10 11
M  V30 11 1 11 12
M  V30 12 1 12 13
M  V30 13 1 13 14
M  V30 14 1 14 15
M  V30 15 2 15 16
M  V30 16 1 15 17
M  V30 17 2 17 18
M  V30 18 1 18 19
M  V30 19 2 19 20
M  V30 20 1 20 21
M  V30 21 1 21 22
M  V30 22 2 22 23
M  V30 23 1 23 24
M  V30 24 2 24 25
M  V30 25 1 25 26
M  V30 26 2 26 27
M  V30 27 1 27 28
M  V30 28 1 28 29
M  V30 29 2 28 30
M  V30 30 1 23 31
M  V30 31 2 31 32
M  V30 32 1 13 33
M  V30 33 1 33 34
M  V30 34 1 34 35
M  V30 35 1 35 36
M  V30 36 2 36 37
M  V30 37 1 36 38
M  V30 38 1 38 39
M  V30 39 1 39 40
M  V30 40 1 40 41
M  V30 41 1 41 42
M  V30 42 1 42 43
M  V30 43 1 9 3
M  V30 44 1 35 11
M  V30 45 1 43 38
M  V30 46 1 32 17
M  V30 47 1 31 20
M  V30 48 1 30 24
M  V30 49 1 1 44
M  V30 50 1 1 45
M  V30 51 1 1 46
M  V30 52 1 4 47
M  V30 53 1 5 48
M  V30 54 1 6 49
M  V30 55 1 10 50
M  V30 56 1 10 51
M  V30 57 1 12 52
M  V30 58 1 12 53
M  V30 59 1 13 54 CFG=1
M  V30 60 1 14 55
M  V30 61 1 18 56
M  V30 62 1 19 57
M  V30 63 1 21 58
M  V30 64 1 25 59
M  V30 65 1 26 60
M  V30 66 1 29 61
M  V30 67 1 29 62
M  V30 68 1 29 63
M  V30 69 1 30 64
M  V30 70 1 32 65
M  V30 71 1 33 66
M  V30 72 1 33 67
M  V30 73 1 34 68
M  V30 74 1 34 69
M  V30 75 1 35 70 CFG=3
M  V30 76 1 39 71
M  V30 77 1 39 72
M  V30 78 1 40 73
M  V30 79 1 40 74
M  V30 80 1 41 75
M  V30 81 1 41 76
M  V30 82 1 42 77
M  V30 83 1 42 78
M  V30 END BOND
M  V30 END CTAB
M  END
>  <Dataset>  (350) 
ChEMBL_Kinases

>  <Ligand_Instance>  (350) 
nan

>  <PDB_ID>  (350) 
nan

>  <Standardized_SMILES>  (350) 
COc1cccc(F)c1CN1C[C@H](NC(=O)c2ccc3[nH]nc(-c4ccnc(C)c4)c3c2)CC[C@H]1C(=O)N1CCCCO1

>  <Name>  (350) 
nan

>  <Pocket>  (350) 
nan

>  <ATP_Site>  (350) 
nan

>  <Peripheral>  (350) 
nan

>  <Num_H_Atoms_ProtBoundConf>  (350) 
nan

>  <Num_Resolved_Atoms>  (350) 
nan

>  <Num_Not_Resolved_Atoms>  (350) 
nan

$$$$
CHEMBL3658417
     RDKit          3D

  0  0  0  0  0  0  0  0  0  0999 V3000
M  V30 BEGIN CTAB
M  V30 COUNTS 70 75 0 0 0
M  V30 BEGIN ATOM
M  V30 1 C 7.939143 0.545566 2.168518 0
M  V30 2 O 6.703253 -0.067639 1.948120 0
M  V30 3 C 6.021990 -0.894845 2.801149 0
M  V30 4 C 6.539390 -1.214338 4.032793 0
M  V30 5 C 5.879246 -2.044862 4.904466 0
M  V30 6 C 4.663662 -2.553047 4.494034 0
M  V30 7 C 4.190731 -2.200289 3.249876 0
M  V30 8 F 2.977792 -2.776848 2.977202 0
M  V30 9 C 4.822748 -1.354791 2.318610 0
M  V30 10 C 4.064467 -1.130328 1.098839 0
M  V30 11 N 3.246798 0.053359 1.093690 0
M  V30 12 C 2.431432 -0.040443 -0.122708 0
M  V30 13 C 1.233789 0.831461 0.052682 0 CFG=2
M  V30 14 N 0.298265 0.748619 -1.044929 0
M  V30 15 C -0.974107 0.153634 -0.877606 0
M  V30 16 O -1.286388 -0.311453 0.248851 0
M  V30 17 C -1.786338 0.160522 -2.089034 0
M  V30 18 C -1.509054 0.686932 -3.308935 0
M  V30 19 C -2.393595 0.606656 -4.363629 0
M  V30 20 C -3.618999 -0.014640 -4.244283 0
M  V30 21 N -4.641151 -0.228076 -5.091278 0
M  V30 22 N -5.573509 -0.887021 -4.428448 0
M  V30 23 C -5.162344 -1.104518 -3.147790 0
M  V30 24 C -5.952616 -1.809292 -2.150140 0
M  V30 25 C -5.446869 -2.793284 -1.296876 0
M  V30 26 C -6.208418 -3.453930 -0.358815 0
M  V30 27 C -7.560385 -3.148066 -0.226856 0
M  V30 28 N -8.379618 -3.710886 0.628995 0
M  V30 29 C -9.560235 -3.443599 0.743624 0
M  V30 30 C -10.649496 -3.932106 1.611641 0
M  V30 31 S -9.793307 -2.084689 -0.588596 0
M  V30 32 C -8.013942 -2.164049 -1.096892 0
M  V30 33 C -7.281431 -1.474500 -2.055727 0
M  V30 34 C -3.900150 -0.550519 -2.998871 0
M  V30 35 C -3.021097 -0.480427 -1.922978 0
M  V30 36 C 1.665723 2.214898 0.406562 0
M  V30 37 C 3.148888 2.341694 0.239453 0
M  V30 38 C 3.922796 1.305886 1.050109 0 CFG=1
M  V30 39 C 4.143590 1.796072 2.435189 0
M  V30 40 N 3.872329 1.410856 3.795654 0
M  V30 41 O 4.754882 2.890213 2.552299 0
M  V30 42 H 8.650323 -0.085782 2.748895 0
M  V30 43 H 7.774772 1.480471 2.743298 0
M  V30 44 H 8.483109 0.735007 1.202021 0
M  V30 45 H 7.501633 -0.773982 4.285216 0
M  V30 46 H 6.356148 -2.239357 5.845615 0
M  V30 47 H 4.148929 -3.203426 5.179509 0
M  V30 48 H 3.439943 -2.044014 0.889838 0
M  V30 49 H 4.801277 -1.093642 0.242281 0
M  V30 50 H 2.975045 0.252100 -1.032404 0
M  V30 51 H 2.092538 -1.111130 -0.241770 0
M  V30 52 H 0.679758 0.410581 0.947337 0
M  V30 53 H 0.777586 1.190535 -1.857311 0
M  V30 54 H -0.547860 1.169282 -3.390100 0
M  V30 55 H -2.066547 1.057167 -5.282246 0
M  V30 56 H -4.599734 0.112052 -6.076700 0
M  V30 57 H -4.379840 -3.046298 -1.391304 0
M  V30 58 H -5.681039 -4.205715 0.246033 0
M  V30 59 H -11.569497 -3.287872 1.515872 0
M  V30 60 H -10.990628 -4.966287 1.320826 0
M  V30 61 H -10.308017 -3.897031 2.644462 0
M  V30 62 H -7.825386 -0.753467 -2.623637 0
M  V30 63 H -3.338469 -0.928105 -0.997910 0
M  V30 64 H 1.417114 2.513006 1.452086 0
M  V30 65 H 1.211454 2.992544 -0.252059 0
M  V30 66 H 3.448084 2.208983 -0.817027 0
M  V30 67 H 3.558934 3.328076 0.537191 0
M  V30 68 H 4.885607 1.210733 0.549553 0
M  V30 69 H 4.589520 1.019841 4.437608 0
M  V30 70 H 2.989150 1.443525 4.355363 0
M  V30 END ATOM
M  V30 BEGIN BOND
M  V30 1 1 1 2
M  V30 2 1 2 3
M  V30 3 2 3 4
M  V30 4 1 4 5
M  V30 5 2 5 6
M  V30 6 1 6 7
M  V30 7 1 7 8
M  V30 8 2 7 9
M  V30 9 1 9 10
M  V30 10 1 10 11
M  V30 11 1 11 12
M  V30 12 1 12 13
M  V30 13 1 13 14
M  V30 14 1 14 15
M  V30 15 2 15 16
M  V30 16 1 15 17
M  V30 17 2 17 18
M  V30 18 1 18 19
M  V30 19 2 19 20
M  V30 20 1 20 21
M  V30 21 1 21 22
M  V30 22 2 22 23
M  V30 23 1 23 24
M  V30 24 2 24 25
M  V30 25 1 25 26
M  V30 26 2 26 27
M  V30 27 1 27 28
M  V30 28 2 28 29
M  V30 29 1 29 30
M  V30 30 1 29 31
M  V30 31 1 31 32
M  V30 32 2 32 33
M  V30 33 1 23 34
M  V30 34 2 34 35
M  V30 35 1 13 36
M  V30 36 1 36 37
M  V30 37 1 37 38
M  V30 38 1 38 39
M  V30 39 1 39 40
M  V30 40 2 39 41
M  V30 41 1 9 3
M  V30 42 1 38 11
M  V30 43 1 35 17
M  V30 44 1 34 20
M  V30 45 1 33 24
M  V30 46 1 32 27
M  V30 47 1 1 42
M  V30 48 1 1 43
M  V30 49 1 1 44
M  V30 50 1 4 45
M  V30 51 1 5 46
M  V30 52 1 6 47
M  V30 53 1 10 48
M  V30 54 1 10 49
M  V30 55 1 12 50
M  V30 56 1 12 51
M  V30 57 1 13 52 CFG=1
M  V30 58 1 14 53
M  V30 59 1 18 54
M  V30 60 1 19 55
M  V30 61 1 21 56
M  V30 62 1 25 57
M  V30 63 1 26 58
M  V30 64 1 30 59
M  V30 65 1 30 60
M  V30 66 1 30 61
M  V30 67 1 33 62
M  V30 68 1 35 63
M  V30 69 1 36 64
M  V30 70 1 36 65
M  V30 71 1 37 66
M  V30 72 1 37 67
M  V30 73 1 38 68 CFG=3
M  V30 74 1 40 69
M  V30 75 1 40 70
M  V30 END BOND
M  V30 END CTAB
M  END
>  <Dataset>  (351) 
ChEMBL_Kinases

>  <Ligand_Instance>  (351) 
nan

>  <PDB_ID>  (351) 
nan

>  <Standardized_SMILES>  (351) 
COc1cccc(F)c1CN1C[C@H](NC(=O)c2ccc3[nH]nc(-c4ccc5nc(C)sc5c4)c3c2)CC[C@H]1C(N)=O

>  <Name>  (351) 
nan

>  <Pocket>  (351) 
nan

>  <ATP_Site>  (351) 
nan

>  <Peripheral>  (351) 
nan

>  <Num_H_Atoms_ProtBoundConf>  (351) 
nan

>  <Num_Resolved_Atoms>  (351) 
nan

>  <Num_Not_Resolved_Atoms>  (351) 
nan

$$$$
CHEMBL3658418
     RDKit          3D

  0  0  0  0  0  0  0  0  0  0999 V3000
M  V30 BEGIN CTAB
M  V30 COUNTS 67 71 0 0 0
M  V30 BEGIN ATOM
M  V30 1 C 5.685595 -1.201726 -1.422997 0
M  V30 2 O 4.915840 -0.164191 -0.888366 0
M  V30 3 C 5.367640 0.873166 -0.100500 0
M  V30 4 C 6.678663 1.044081 0.283437 0
M  V30 5 C 7.086352 2.097207 1.068968 0
M  V30 6 C 6.129751 2.997207 1.471316 0
M  V30 7 C 4.829494 2.800063 1.072325 0
M  V30 8 F 3.986367 3.778294 1.549524 0
M  V30 9 C 4.371972 1.741739 0.273648 0
M  V30 10 C 2.924982 1.780314 0.029180 0
M  V30 11 N 2.094701 1.041678 0.852811 0
M  V30 12 C 0.667499 1.195994 0.533885 0
M  V30 13 C 0.330078 0.501286 -0.765334 0 CFG=2
M  V30 14 N -1.065323 0.054022 -0.716108 0
M  V30 15 C -2.095496 0.600489 -1.511421 0
M  V30 16 O -1.838984 1.530631 -2.326814 0
M  V30 17 C -3.481314 0.130283 -1.434256 0
M  V30 18 C -4.413801 0.734801 -2.262632 0
M  V30 19 C -5.714354 0.283184 -2.176165 0
M  V30 20 C -6.142304 -0.718206 -1.330283 0
M  V30 21 N -7.305150 -1.332972 -1.049189 0
M  V30 22 N -7.110403 -2.254181 -0.113145 0
M  V30 23 C -5.822858 -2.295823 0.268812 0
M  V30 24 C -5.220240 -3.169808 1.271513 0
M  V30 25 C -4.035679 -3.784166 0.918043 0
M  V30 26 C -3.391748 -4.634212 1.825779 0
M  V30 27 N -3.936404 -4.844002 3.037527 0
M  V30 28 C -5.090602 -4.246129 3.382989 0
M  V30 29 C -5.610608 -4.537505 4.736956 0
M  V30 30 C -5.762363 -3.398731 2.520078 0
M  V30 31 C -5.185024 -1.314617 -0.503316 0
M  V30 32 C -3.870300 -0.876939 -0.572237 0
M  V30 33 C 1.186010 -0.683063 -1.078713 0
M  V30 34 C 1.940849 -1.263220 0.061333 0
M  V30 35 C 2.238265 -0.311821 1.175430 0 CFG=1
M  V30 36 C 3.416499 -0.635910 1.972917 0
M  V30 37 N 4.601830 -0.528766 2.709260 0
M  V30 38 O 3.373209 -1.904990 2.141454 0
M  V30 39 H 5.897848 -1.056611 -2.521936 0
M  V30 40 H 5.146755 -2.194341 -1.371737 0
M  V30 41 H 6.660033 -1.368148 -0.950905 0
M  V30 42 H 7.390407 0.306938 -0.061802 0
M  V30 43 H 8.134588 2.126999 1.305080 0
M  V30 44 H 6.463911 3.818014 2.086692 0
M  V30 45 H 2.823990 1.537871 -1.074909 0
M  V30 46 H 2.548136 2.858995 0.037484 0
M  V30 47 H 0.109365 0.729948 1.349869 0
M  V30 48 H 0.459402 2.279713 0.526885 0
M  V30 49 H 0.484729 1.297974 -1.524496 0
M  V30 50 H -1.239922 -0.714627 -0.033435 0
M  V30 51 H -4.157889 1.520951 -2.947905 0
M  V30 52 H -6.434719 0.759343 -2.825393 0
M  V30 53 H -8.209092 -1.095535 -1.517465 0
M  V30 54 H -3.491929 -3.710213 -0.010809 0
M  V30 55 H -2.447483 -5.153155 1.605828 0
M  V30 56 H -5.671303 -5.650802 4.921717 0
M  V30 57 H -4.917538 -4.176475 5.551984 0
M  V30 58 H -6.603004 -4.106126 4.943875 0
M  V30 59 H -6.684264 -2.917875 2.788865 0
M  V30 60 H -3.154221 -1.353732 0.079698 0
M  V30 61 H 1.865534 -0.476075 -1.930394 0
M  V30 62 H 0.549549 -1.521535 -1.498900 0
M  V30 63 H 1.365581 -2.127827 0.519101 0
M  V30 64 H 2.882621 -1.740960 -0.252157 0
M  V30 65 H 1.362124 -0.501513 1.930988 0
M  V30 66 H 4.582816 -0.301253 3.740811 0
M  V30 67 H 5.562097 -0.653617 2.332429 0
M  V30 END ATOM
M  V30 BEGIN BOND
M  V30 1 1 1 2
M  V30 2 1 2 3
M  V30 3 2 3 4
M  V30 4 1 4 5
M  V30 5 2 5 6
M  V30 6 1 6 7
M  V30 7 1 7 8
M  V30 8 2 7 9
M  V30 9 1 9 10
M  V30 10 1 10 11
M  V30 11 1 11 12
M  V30 12 1 12 13
M  V30 13 1 13 14
M  V30 14 1 14 15
M  V30 15 2 15 16
M  V30 16 1 15 17
M  V30 17 2 17 18
M  V30 18 1 18 19
M  V30 19 2 19 20
M  V30 20 1 20 21
M  V30 21 1 21 22
M  V30 22 2 22 23
M  V30 23 1 23 24
M  V30 24 2 24 25
M  V30 25 1 25 26
M  V30 26 2 26 27
M  V30 27 1 27 28
M  V30 28 1 28 29
M  V30 29 2 28 30
M  V30 30 1 23 31
M  V30 31 2 31 32
M  V30 32 1 13 33
M  V30 33 1 33 34
M  V30 34 1 34 35
M  V30 35 1 35 36
M  V30 36 1 36 37
M  V30 37 2 36 38
M  V30 38 1 9 3
M  V30 39 1 35 11
M  V30 40 1 32 17
M  V30 41 1 31 20
M  V30 42 1 30 24
M  V30 43 1 1 39
M  V30 44 1 1 40
M  V30 45 1 1 41
M  V30 46 1 4 42
M  V30 47 1 5 43
M  V30 48 1 6 44
M  V30 49 1 10 45
M  V30 50 1 10 46
M  V30 51 1 12 47
M  V30 52 1 12 48
M  V30 53 1 13 49 CFG=3
M  V30 54 1 14 50
M  V30 55 1 18 51
M  V30 56 1 19 52
M  V30 57 1 21 53
M  V30 58 1 25 54
M  V30 59 1 26 55
M  V30 60 1 29 56
M  V30 61 1 29 57
M  V30 62 1 29 58
M  V30 63 1 30 59
M  V30 64 1 32 60
M  V30 65 1 33 61
M  V30 66 1 33 62
M  V30 67 1 34 63
M  V30 68 1 34 64
M  V30 69 1 35 65 CFG=1
M  V30 70 1 37 66
M  V30 71 1 37 67
M  V30 END BOND
M  V30 END CTAB
M  END
>  <Dataset>  (352) 
ChEMBL_Kinases

>  <Ligand_Instance>  (352) 
nan

>  <PDB_ID>  (352) 
nan

>  <Standardized_SMILES>  (352) 
COc1cccc(F)c1CN1C[C@H](NC(=O)c2ccc3[nH]nc(-c4ccnc(C)c4)c3c2)CC[C@H]1C(N)=O

>  <Name>  (352) 
nan

>  <Pocket>  (352) 
nan

>  <ATP_Site>  (352) 
nan

>  <Peripheral>  (352) 
nan

>  <Num_H_Atoms_ProtBoundConf>  (352) 
nan

>  <Num_Resolved_Atoms>  (352) 
nan

>  <Num_Not_Resolved_Atoms>  (352) 
nan

$$$$
CHEMBL3658419
     RDKit          3D

  0  0  0  0  0  0  0  0  0  0999 V3000
M  V30 BEGIN CTAB
M  V30 COUNTS 69 73 0 0 0
M  V30 BEGIN ATOM
M  V30 1 C 4.603066 1.042880 -0.729822 0
M  V30 2 O 3.984588 1.752651 0.297429 0
M  V30 3 C 4.216079 1.597541 1.648739 0
M  V30 4 C 5.111919 0.702793 2.183354 0
M  V30 5 C 5.337198 0.559373 3.525809 0
M  V30 6 C 4.616950 1.364832 4.371196 0
M  V30 7 C 3.716207 2.263362 3.829869 0
M  V30 8 F 3.055122 3.014386 4.768101 0
M  V30 9 C 3.472057 2.423612 2.457178 0
M  V30 10 C 2.439288 3.430250 2.138753 0
M  V30 11 N 1.173495 2.835373 1.919412 0
M  V30 12 C 1.000492 1.932820 0.883001 0
M  V30 13 C -0.484089 1.691977 0.632322 0 CFG=2
M  V30 14 N -0.684938 0.673425 -0.364775 0
M  V30 15 C -1.391607 -0.552613 -0.400944 0
M  V30 16 O -1.980535 -0.822634 0.673039 0
M  V30 17 C -1.396899 -1.377371 -1.599242 0
M  V30 18 C -0.741468 -1.047677 -2.757910 0
M  V30 19 C -0.751775 -1.837342 -3.886776 0
M  V30 20 C -1.459928 -3.019384 -3.842880 0
M  V30 21 N -1.694806 -4.016965 -4.714301 0
M  V30 22 N -2.453929 -4.929322 -4.148962 0
M  V30 23 C -2.748854 -4.562229 -2.873841 0
M  V30 24 C -3.577751 -5.389565 -2.011568 0
M  V30 25 C -4.594490 -4.948334 -1.215955 0
M  V30 26 C -5.340993 -5.808892 -0.420703 0
M  V30 27 N -5.057930 -7.117119 -0.430854 0
M  V30 28 C -4.056127 -7.614596 -1.203456 0
M  V30 29 C -3.678172 -9.064711 -1.270467 0
M  V30 30 C -3.307553 -6.743575 -2.002378 0
M  V30 31 C -2.127331 -3.351482 -2.658256 0
M  V30 32 C -2.113438 -2.553740 -1.526194 0
M  V30 33 C -1.007098 3.039760 0.177177 0
M  V30 34 C -0.991872 3.922046 1.399213 0
M  V30 35 C 0.060876 3.579218 2.391456 0 CFG=1
M  V30 36 C -0.548376 2.866141 3.544957 0
M  V30 37 O -1.545603 3.554335 3.954279 0
M  V30 38 N -0.235680 1.653002 4.211931 0
M  V30 39 N -1.201623 1.522563 5.244489 0
M  V30 40 H 5.566188 0.586388 -0.438879 0
M  V30 41 H 3.931538 0.262865 -1.146449 0
M  V30 42 H 4.804383 1.748510 -1.588807 0
M  V30 43 H 5.681669 0.065838 1.520459 0
M  V30 44 H 6.051753 -0.158657 3.891705 0
M  V30 45 H 4.778681 1.268143 5.421813 0
M  V30 46 H 2.436359 4.230557 2.909620 0
M  V30 47 H 2.827631 3.970701 1.215000 0
M  V30 48 H 1.380955 2.335904 -0.077941 0
M  V30 49 H 1.523098 0.969725 1.062722 0
M  V30 50 H -1.019076 1.405212 1.535152 0
M  V30 51 H -0.144503 1.043010 -1.177758 0
M  V30 52 H -0.184421 -0.139928 -2.826007 0
M  V30 53 H -0.223020 -1.540755 -4.775928 0
M  V30 54 H -1.321686 -4.047601 -5.692242 0
M  V30 55 H -4.797332 -3.880622 -1.231916 0
M  V30 56 H -6.141567 -5.432692 0.200081 0
M  V30 57 H -3.812982 -9.437530 -2.308823 0
M  V30 58 H -4.301570 -9.650059 -0.565058 0
M  V30 59 H -2.618854 -9.148458 -0.925826 0
M  V30 60 H -2.502640 -7.146816 -2.622599 0
M  V30 61 H -2.663000 -2.888516 -0.640904 0
M  V30 62 H -0.308756 3.483474 -0.561273 0
M  V30 63 H -2.042095 2.978257 -0.227401 0
M  V30 64 H -0.905600 4.971031 1.031762 0
M  V30 65 H -2.006509 3.858263 1.845449 0
M  V30 66 H 0.460776 4.539507 2.812919 0
M  V30 67 H 0.613404 1.216987 3.743396 0
M  V30 68 H -0.953181 0.797150 5.921634 0
M  V30 69 H -2.115276 1.269548 4.808007 0
M  V30 END ATOM
M  V30 BEGIN BOND
M  V30 1 1 1 2
M  V30 2 1 2 3
M  V30 3 2 3 4
M  V30 4 1 4 5
M  V30 5 2 5 6
M  V30 6 1 6 7
M  V30 7 1 7 8
M  V30 8 2 7 9
M  V30 9 1 9 10
M  V30 10 1 10 11
M  V30 11 1 11 12
M  V30 12 1 12 13
M  V30 13 1 13 14
M  V30 14 1 14 15
M  V30 15 2 15 16
M  V30 16 1 15 17
M  V30 17 2 17 18
M  V30 18 1 18 19
M  V30 19 2 19 20
M  V30 20 1 20 21
M  V30 21 1 21 22
M  V30 22 2 22 23
M  V30 23 1 23 24
M  V30 24 2 24 25
M  V30 25 1 25 26
M  V30 26 2 26 27
M  V30 27 1 27 28
M  V30 28 1 28 29
M  V30 29 2 28 30
M  V30 30 1 23 31
M  V30 31 2 31 32
M  V30 32 1 13 33
M  V30 33 1 33 34
M  V30 34 1 34 35
M  V30 35 1 35 36
M  V30 36 2 36 37
M  V30 37 1 36 38
M  V30 38 1 38 39
M  V30 39 1 9 3
M  V30 40 1 35 11
M  V30 41 1 32 17
M  V30 42 1 31 20
M  V30 43 1 30 24
M  V30 44 1 1 40
M  V30 45 1 1 41
M  V30 46 1 1 42
M  V30 47 1 4 43
M  V30 48 1 5 44
M  V30 49 1 6 45
M  V30 50 1 10 46
M  V30 51 1 10 47
M  V30 52 1 12 48
M  V30 53 1 12 49
M  V30 54 1 13 50 CFG=1
M  V30 55 1 14 51
M  V30 56 1 18 52
M  V30 57 1 19 53
M  V30 58 1 21 54
M  V30 59 1 25 55
M  V30 60 1 26 56
M  V30 61 1 29 57
M  V30 62 1 29 58
M  V30 63 1 29 59
M  V30 64 1 30 60
M  V30 65 1 32 61
M  V30 66 1 33 62
M  V30 67 1 33 63
M  V30 68 1 34 64
M  V30 69 1 34 65
M  V30 70 1 35 66 CFG=1
M  V30 71 1 38 67
M  V30 72 1 39 68
M  V30 73 1 39 69
M  V30 END BOND
M  V30 END CTAB
M  END
>  <Dataset>  (353) 
ChEMBL_Kinases

>  <Ligand_Instance>  (353) 
nan

>  <PDB_ID>  (353) 
nan

>  <Standardized_SMILES>  (353) 
COc1cccc(F)c1CN1C[C@H](NC(=O)c2ccc3[nH]nc(-c4ccnc(C)c4)c3c2)CC[C@H]1C(=O)NN

>  <Name>  (353) 
nan

>  <Pocket>  (353) 
nan

>  <ATP_Site>  (353) 
nan

>  <Peripheral>  (353) 
nan

>  <Num_H_Atoms_ProtBoundConf>  (353) 
nan

>  <Num_Resolved_Atoms>  (353) 
nan

>  <Num_Not_Resolved_Atoms>  (353) 
nan

$$$$
CHEMBL3658420
     RDKit          3D

  0  0  0  0  0  0  0  0  0  0999 V3000
M  V30 BEGIN CTAB
M  V30 COUNTS 75 79 0 0 0
M  V30 BEGIN ATOM
M  V30 1 C 1.901734 -3.844503 -1.191555 0
M  V30 2 O 2.532804 -2.593121 -1.061147 0
M  V30 3 C 3.251596 -2.238580 0.048996 0
M  V30 4 C 3.342201 -3.169014 1.059291 0
M  V30 5 C 4.056803 -2.861990 2.194397 0
M  V30 6 C 4.655095 -1.622725 2.266526 0
M  V30 7 C 4.531440 -0.731516 1.226013 0
M  V30 8 F 5.207453 0.419061 1.509638 0
M  V30 9 C 3.818707 -0.975471 0.040426 0
M  V30 10 C 3.761840 0.068367 -0.969713 0
M  V30 11 N 2.655576 0.896347 -1.094849 0
M  V30 12 C 1.365209 0.419044 -1.376990 0
M  V30 13 C 0.529835 0.270527 -0.119351 0 CFG=2
M  V30 14 N -0.813993 -0.109142 -0.416141 0
M  V30 15 C -1.744793 -1.147028 -0.143852 0
M  V30 16 O -1.284261 -2.055209 0.597101 0
M  V30 17 C -3.086905 -1.091658 -0.705775 0
M  V30 18 C -3.638243 -0.150038 -1.552392 0
M  V30 19 C -4.928901 -0.244696 -1.985496 0
M  V30 20 C -5.732614 -1.272709 -1.602458 0
M  V30 21 N -7.007876 -1.598799 -1.872162 0
M  V30 22 N -7.275041 -2.716277 -1.221142 0
M  V30 23 C -6.210260 -3.148478 -0.520522 0
M  V30 24 C -6.185981 -4.339301 0.295180 0
M  V30 25 C -6.749716 -5.469281 -0.262011 0
M  V30 26 C -6.814759 -6.696082 0.377163 0
M  V30 27 N -6.288080 -6.759322 1.616580 0
M  V30 28 C -5.728488 -5.678274 2.196162 0
M  V30 29 C -5.159383 -5.789555 3.563877 0
M  V30 30 C -5.662459 -4.450395 1.557970 0
M  V30 31 C -5.198224 -2.230746 -0.751219 0
M  V30 32 C -3.897069 -2.136153 -0.314388 0
M  V30 33 C 0.538576 1.558589 0.678867 0
M  V30 34 C 1.949154 1.956046 0.986887 0
M  V30 35 C 2.646429 2.141729 -0.350206 0 CFG=1
M  V30 36 C 3.983363 2.700046 -0.259268 0
M  V30 37 O 5.234932 2.903376 -0.337995 0
M  V30 38 N 3.814563 3.987063 0.422964 0
M  V30 39 N 4.960975 4.762260 0.654559 0
M  V30 40 C 5.139625 5.618768 -0.500476 0
M  V30 41 C 4.957458 5.509281 1.860689 0
M  V30 42 H 1.265380 -4.105494 -0.326169 0
M  V30 43 H 2.653334 -4.678301 -1.240265 0
M  V30 44 H 1.321570 -3.824986 -2.142092 0
M  V30 45 H 2.860474 -4.126305 0.962735 0
M  V30 46 H 4.111739 -3.602312 2.966598 0
M  V30 47 H 5.192040 -1.466791 3.189313 0
M  V30 48 H 4.683656 0.692839 -0.855428 0
M  V30 49 H 3.935352 -0.420930 -1.989384 0
M  V30 50 H 0.828583 1.254306 -1.951555 0
M  V30 51 H 1.353096 -0.451812 -2.001750 0
M  V30 52 H 0.992458 -0.502439 0.507254 0
M  V30 53 H -1.114501 0.686466 -1.024351 0
M  V30 54 H -2.968235 0.643061 -1.828643 0
M  V30 55 H -5.284360 0.526294 -2.643515 0
M  V30 56 H -7.604354 -1.013143 -2.496819 0
M  V30 57 H -7.186746 -5.469512 -1.256105 0
M  V30 58 H -7.243092 -7.588582 -0.025356 0
M  V30 59 H -4.085572 -5.571050 3.560551 0
M  V30 60 H -5.355409 -6.797381 3.982885 0
M  V30 61 H -5.626241 -5.046424 4.260008 0
M  V30 62 H -5.223390 -3.567524 1.988380 0
M  V30 63 H -3.575590 -2.936251 0.348132 0
M  V30 64 H 0.065058 2.388299 0.138749 0
M  V30 65 H 0.026102 1.327568 1.632824 0
M  V30 66 H 1.985286 2.934903 1.504032 0
M  V30 67 H 2.466275 1.248894 1.656594 0
M  V30 68 H 2.002028 2.828168 -0.944422 0
M  V30 69 H 2.989734 4.548180 0.824693 0
M  V30 70 H 4.163522 6.174172 -0.602450 0
M  V30 71 H 5.234006 5.042694 -1.432485 0
M  V30 72 H 5.905656 6.385356 -0.354203 0
M  V30 73 H 5.125037 4.945185 2.774325 0
M  V30 74 H 5.791087 6.244744 1.793541 0
M  V30 75 H 4.043810 6.126551 1.981048 0
M  V30 END ATOM
M  V30 BEGIN BOND
M  V30 1 1 1 2
M  V30 2 1 2 3
M  V30 3 2 3 4
M  V30 4 1 4 5
M  V30 5 2 5 6
M  V30 6 1 6 7
M  V30 7 1 7 8
M  V30 8 2 7 9
M  V30 9 1 9 10
M  V30 10 1 10 11
M  V30 11 1 11 12
M  V30 12 1 12 13
M  V30 13 1 13 14
M  V30 14 1 14 15
M  V30 15 2 15 16
M  V30 16 1 15 17
M  V30 17 2 17 18
M  V30 18 1 18 19
M  V30 19 2 19 20
M  V30 20 1 20 21
M  V30 21 1 21 22
M  V30 22 2 22 23
M  V30 23 1 23 24
M  V30 24 2 24 25
M  V30 25 1 25 26
M  V30 26 2 26 27
M  V30 27 1 27 28
M  V30 28 1 28 29
M  V30 29 2 28 30
M  V30 30 1 23 31
M  V30 31 2 31 32
M  V30 32 1 13 33
M  V30 33 1 33 34
M  V30 34 1 34 35
M  V30 35 1 35 36
M  V30 36 2 36 37
M  V30 37 1 36 38
M  V30 38 1 38 39
M  V30 39 1 39 40
M  V30 40 1 39 41
M  V30 41 1 9 3
M  V30 42 1 35 11
M  V30 43 1 32 17
M  V30 44 1 31 20
M  V30 45 1 30 24
M  V30 46 1 1 42
M  V30 47 1 1 43
M  V30 48 1 1 44
M  V30 49 1 4 45
M  V30 50 1 5 46
M  V30 51 1 6 47
M  V30 52 1 10 48
M  V30 53 1 10 49
M  V30 54 1 12 50
M  V30 55 1 12 51
M  V30 56 1 13 52 CFG=1
M  V30 57 1 14 53
M  V30 58 1 18 54
M  V30 59 1 19 55
M  V30 60 1 21 56
M  V30 61 1 25 57
M  V30 62 1 26 58
M  V30 63 1 29 59
M  V30 64 1 29 60
M  V30 65 1 29 61
M  V30 66 1 30 62
M  V30 67 1 32 63
M  V30 68 1 33 64
M  V30 69 1 33 65
M  V30 70 1 34 66
M  V30 71 1 34 67
M  V30 72 1 35 68 CFG=3
M  V30 73 1 38 69
M  V30 74 1 40 70
M  V30 75 1 40 71
M  V30 76 1 40 72
M  V30 77 1 41 73
M  V30 78 1 41 74
M  V30 79 1 41 75
M  V30 END BOND
M  V30 END CTAB
M  END
>  <Dataset>  (354) 
ChEMBL_Kinases

>  <Ligand_Instance>  (354) 
nan

>  <PDB_ID>  (354) 
nan

>  <Standardized_SMILES>  (354) 
COc1cccc(F)c1CN1C[C@H](NC(=O)c2ccc3[nH]nc(-c4ccnc(C)c4)c3c2)CC[C@H]1C(=O)NN(C)C

>  <Name>  (354) 
nan

>  <Pocket>  (354) 
nan

>  <ATP_Site>  (354) 
nan

>  <Peripheral>  (354) 
nan

>  <Num_H_Atoms_ProtBoundConf>  (354) 
nan

>  <Num_Resolved_Atoms>  (354) 
nan

>  <Num_Not_Resolved_Atoms>  (354) 
nan

$$$$
CHEMBL3658421
     RDKit          3D

  0  0  0  0  0  0  0  0  0  0999 V3000
M  V30 BEGIN CTAB
M  V30 COUNTS 76 80 0 0 0
M  V30 BEGIN ATOM
M  V30 1 C -0.084527 -1.891808 3.906520 0
M  V30 2 O 0.844815 -1.122968 3.180523 0
M  V30 3 C 0.813597 0.266657 3.363976 0
M  V30 4 C -0.069462 0.894453 4.213635 0
M  V30 5 C -0.082667 2.268524 4.389194 0
M  V30 6 C 0.831962 3.006861 3.675008 0
M  V30 7 C 1.707870 2.367719 2.828988 0
M  V30 8 F 2.585537 3.181635 2.156037 0
M  V30 9 C 1.757953 0.984162 2.618699 0
M  V30 10 C 2.730255 0.493650 1.636834 0
M  V30 11 N 2.134492 0.427429 0.315882 0
M  V30 12 C 0.882060 -0.242532 0.309517 0
M  V30 13 C 0.261672 -0.098012 -1.095151 0 CFG=2
M  V30 14 N -1.110241 -0.480498 -1.036970 0
M  V30 15 C -2.093182 0.464846 -1.385443 0
M  V30 16 O -1.720508 1.613120 -1.737949 0
M  V30 17 C -3.532206 0.197050 -1.364212 0
M  V30 18 C -4.372613 1.213965 -1.782307 0
M  V30 19 C -5.750547 1.018624 -1.780003 0
M  V30 20 C -6.265223 -0.204713 -1.354067 0
M  V30 21 N -7.510257 -0.675181 -1.245577 0
M  V30 22 N -7.482720 -1.915729 -0.786433 0
M  V30 23 C -6.229805 -2.324785 -0.569840 0
M  V30 24 C -5.760496 -3.608949 -0.074150 0
M  V30 25 C -6.149403 -4.869807 -0.487587 0
M  V30 26 C -5.589179 -5.991109 0.122848 0
M  V30 27 N -4.669499 -5.820656 1.114778 0
M  V30 28 C -4.275774 -4.620796 1.533949 0
M  V30 29 C -3.263722 -4.475186 2.627342 0
M  V30 30 C -4.821115 -3.490415 0.939738 0
M  V30 31 C -5.444705 -1.225449 -0.935135 0
M  V30 32 C -4.063278 -1.005213 -0.946937 0
M  V30 33 C 1.124420 -0.946801 -2.000893 0
M  V30 34 C 2.469265 -0.201462 -1.998023 0
M  V30 35 C 3.070715 -0.180840 -0.616922 0 CFG=1
M  V30 36 C 4.287438 0.706022 -0.749370 0
M  V30 37 O 4.546489 1.854183 -0.244093 0
M  V30 38 N 5.400471 0.263665 -1.567899 0
M  V30 39 C 6.421867 1.281071 -1.526217 0
M  V30 40 C 7.651729 1.011216 -2.308421 0
M  V30 41 C 8.391038 -0.209085 -1.840239 0
M  V30 42 Cl 7.462257 -1.691892 -1.953308 0
M  V30 43 H 0.166905 -1.730735 4.987225 0
M  V30 44 H -1.099548 -1.522047 3.743908 0
M  V30 45 H -0.007447 -2.971099 3.659105 0
M  V30 46 H -0.775760 0.282057 4.760185 0
M  V30 47 H -0.805246 2.661835 5.069795 0
M  V30 48 H 0.843816 4.076470 3.792684 0
M  V30 49 H 3.106485 -0.538935 1.917358 0
M  V30 50 H 3.618180 1.129106 1.708810 0
M  V30 51 H 0.149409 0.198109 1.034219 0
M  V30 52 H 0.952782 -1.330034 0.472831 0
M  V30 53 H 0.409560 0.964154 -1.378809 0
M  V30 54 H -1.380954 -1.428511 -0.745986 0
M  V30 55 H -4.009885 2.166124 -2.114866 0
M  V30 56 H -6.411435 1.811811 -2.106750 0
M  V30 57 H -8.358480 -0.137390 -1.488023 0
M  V30 58 H -6.883768 -4.878697 -1.280771 0
M  V30 59 H -5.927415 -6.966851 -0.237737 0
M  V30 60 H -3.725914 -4.821672 3.564363 0
M  V30 61 H -2.946024 -3.415158 2.723679 0
M  V30 62 H -2.404046 -5.113705 2.398402 0
M  V30 63 H -4.455633 -2.537306 1.338649 0
M  V30 64 H -3.381357 -1.779552 -0.631229 0
M  V30 65 H 1.340337 -1.936098 -1.557924 0
M  V30 66 H 0.804704 -0.950286 -3.045173 0
M  V30 67 H 2.175470 0.859128 -2.236576 0
M  V30 68 H 3.142799 -0.594508 -2.759926 0
M  V30 69 H 3.381529 -1.190943 -0.288365 0
M  V30 70 H 5.209471 -0.686153 -2.006454 0
M  V30 71 H 5.931653 2.201407 -1.960998 0
M  V30 72 H 6.680545 1.460453 -0.448897 0
M  V30 73 H 7.458840 0.991529 -3.404003 0
M  V30 74 H 8.364984 1.876698 -2.156054 0
M  V30 75 H 8.674619 -0.052076 -0.763035 0
M  V30 76 H 9.358656 -0.297920 -2.418506 0
M  V30 END ATOM
M  V30 BEGIN BOND
M  V30 1 1 1 2
M  V30 2 1 2 3
M  V30 3 2 3 4
M  V30 4 1 4 5
M  V30 5 2 5 6
M  V30 6 1 6 7
M  V30 7 1 7 8
M  V30 8 2 7 9
M  V30 9 1 9 10
M  V30 10 1 10 11
M  V30 11 1 11 12
M  V30 12 1 12 13
M  V30 13 1 13 14
M  V30 14 1 14 15
M  V30 15 2 15 16
M  V30 16 1 15 17
M  V30 17 2 17 18
M  V30 18 1 18 19
M  V30 19 2 19 20
M  V30 20 1 20 21
M  V30 21 1 21 22
M  V30 22 2 22 23
M  V30 23 1 23 24
M  V30 24 2 24 25
M  V30 25 1 25 26
M  V30 26 2 26 27
M  V30 27 1 27 28
M  V30 28 1 28 29
M  V30 29 2 28 30
M  V30 30 1 23 31
M  V30 31 2 31 32
M  V30 32 1 13 33
M  V30 33 1 33 34
M  V30 34 1 34 35
M  V30 35 1 35 36
M  V30 36 2 36 37
M  V30 37 1 36 38
M  V30 38 1 38 39
M  V30 39 1 39 40
M  V30 40 1 40 41
M  V30 41 1 41 42
M  V30 42 1 9 3
M  V30 43 1 35 11
M  V30 44 1 32 17
M  V30 45 1 31 20
M  V30 46 1 30 24
M  V30 47 1 1 43
M  V30 48 1 1 44
M  V30 49 1 1 45
M  V30 50 1 4 46
M  V30 51 1 5 47
M  V30 52 1 6 48
M  V30 53 1 10 49
M  V30 54 1 10 50
M  V30 55 1 12 51
M  V30 56 1 12 52
M  V30 57 1 13 53 CFG=3
M  V30 58 1 14 54
M  V30 59 1 18 55
M  V30 60 1 19 56
M  V30 61 1 21 57
M  V30 62 1 25 58
M  V30 63 1 26 59
M  V30 64 1 29 60
M  V30 65 1 29 61
M  V30 66 1 29 62
M  V30 67 1 30 63
M  V30 68 1 32 64
M  V30 69 1 33 65
M  V30 70 1 33 66
M  V30 71 1 34 67
M  V30 72 1 34 68
M  V30 73 1 35 69 CFG=1
M  V30 74 1 38 70
M  V30 75 1 39 71
M  V30 76 1 39 72
M  V30 77 1 40 73
M  V30 78 1 40 74
M  V30 79 1 41 75
M  V30 80 1 41 76
M  V30 END BOND
M  V30 END CTAB
M  END
>  <Dataset>  (355) 
ChEMBL_Kinases

>  <Ligand_Instance>  (355) 
nan

>  <PDB_ID>  (355) 
nan

>  <Standardized_SMILES>  (355) 
COc1cccc(F)c1CN1C[C@H](NC(=O)c2ccc3[nH]nc(-c4ccnc(C)c4)c3c2)CC[C@H]1C(=O)NCCCCl

>  <Name>  (355) 
nan

>  <Pocket>  (355) 
nan

>  <ATP_Site>  (355) 
nan

>  <Peripheral>  (355) 
nan

>  <Num_H_Atoms_ProtBoundConf>  (355) 
nan

>  <Num_Resolved_Atoms>  (355) 
nan

>  <Num_Not_Resolved_Atoms>  (355) 
nan

$$$$
CHEMBL3658422
     RDKit          3D

  0  0  0  0  0  0  0  0  0  0999 V3000
M  V30 BEGIN CTAB
M  V30 COUNTS 80 85 0 0 0
M  V30 BEGIN ATOM
M  V30 1 C -1.424660 -4.309727 -0.887333 0
M  V30 2 O -0.332272 -3.518987 -1.297698 0
M  V30 3 C 0.918813 -3.806745 -0.771753 0
M  V30 4 C 1.080397 -4.849579 0.128129 0
M  V30 5 C 2.305533 -5.168316 0.664814 0
M  V30 6 C 3.369019 -4.406328 0.270090 0
M  V30 7 C 3.222123 -3.354717 -0.632980 0
M  V30 8 F 4.390532 -2.750146 -0.877036 0
M  V30 9 C 2.001766 -3.016070 -1.183780 0
M  V30 10 C 1.939609 -1.865006 -2.090930 0
M  V30 11 N 1.632377 -0.593068 -1.493815 0
M  V30 12 C 0.530106 -0.737487 -0.583397 0
M  V30 13 C 0.436524 0.593363 0.177816 0 CFG=2
M  V30 14 N -0.520270 0.363168 1.243296 0
M  V30 15 C -0.323189 0.429943 2.648115 0
M  V30 16 O 0.804750 0.724126 3.121564 0
M  V30 17 C -1.414493 0.160718 3.572795 0
M  V30 18 C -1.188673 0.260438 4.929619 0
M  V30 19 C -2.211964 0.006361 5.840746 0
M  V30 20 C -3.495733 -0.355544 5.440094 0
M  V30 21 N -4.654937 -0.657571 6.010150 0
M  V30 22 N -5.580954 -0.936197 5.114847 0
M  V30 23 C -5.061675 -0.828312 3.868449 0
M  V30 24 C -5.727361 -1.049450 2.580864 0
M  V30 25 C -6.518170 -2.195236 2.483780 0
M  V30 26 C -7.176642 -2.470609 1.301974 0
M  V30 27 N -7.076365 -1.659817 0.234019 0
M  V30 28 C -6.309063 -0.534024 0.305099 0
M  V30 29 C -6.199108 0.356632 -0.876646 0
M  V30 30 C -5.639271 -0.233506 1.474664 0
M  V30 31 C -3.723554 -0.456394 4.062969 0
M  V30 32 C -2.683025 -0.196162 3.200978 0
M  V30 33 C -0.123455 1.553376 -0.810995 0
M  V30 34 C 0.414369 1.469571 -2.172507 0
M  V30 35 C 1.305464 0.357492 -2.550435 0 CFG=1
M  V30 36 C 2.548628 0.913858 -3.128087 0
M  V30 37 O 2.118066 1.619450 -4.115707 0
M  V30 38 N 3.955599 0.907357 -2.939143 0
M  V30 39 C 4.786758 0.238318 -1.931857 0
M  V30 40 C 6.015882 1.009867 -1.600282 0
M  V30 41 C 5.922610 2.489542 -1.776344 0
M  V30 42 Cl 7.588359 3.128662 -1.544096 0
M  V30 43 C 5.397464 2.876801 -3.142697 0
M  V30 44 C 4.791272 1.663304 -3.846935 0
M  V30 45 H -2.387735 -3.947222 -1.293386 0
M  V30 46 H -1.209685 -5.375396 -1.191713 0
M  V30 47 H -1.517878 -4.347059 0.223575 0
M  V30 48 H 0.199638 -5.427239 0.410915 0
M  V30 49 H 2.329561 -5.994728 1.354950 0
M  V30 50 H 4.315091 -4.709365 0.731956 0
M  V30 51 H 1.168687 -2.134870 -2.884630 0
M  V30 52 H 2.878822 -1.792755 -2.726547 0
M  V30 53 H -0.420838 -0.844095 -1.127088 0
M  V30 54 H 0.720366 -1.559196 0.133065 0
M  V30 55 H 1.444757 0.839339 0.505494 0
M  V30 56 H -1.437939 0.124490 0.808704 0
M  V30 57 H -0.221709 0.535973 5.365513 0
M  V30 58 H -2.024076 0.086522 6.917770 0
M  V30 59 H -4.761822 -0.657179 7.062793 0
M  V30 60 H -6.687764 -2.938243 3.270799 0
M  V30 61 H -7.819464 -3.328095 1.102663 0
M  V30 62 H -5.205215 0.865202 -0.784643 0
M  V30 63 H -6.254674 -0.257941 -1.798066 0
M  V30 64 H -6.968160 1.131294 -0.813273 0
M  V30 65 H -5.033872 0.639044 1.561280 0
M  V30 66 H -2.907168 -0.286761 2.147341 0
M  V30 67 H 0.001618 2.579451 -0.354334 0
M  V30 68 H -1.242167 1.406030 -0.793686 0
M  V30 69 H -0.461005 1.475617 -2.894036 0
M  V30 70 H 0.894719 2.474039 -2.397846 0
M  V30 71 H 0.828947 -0.292390 -3.347977 0
M  V30 72 H 4.212595 -0.072268 -1.049430 0
M  V30 73 H 5.118712 -0.707301 -2.446680 0
M  V30 74 H 6.209551 0.836591 -0.499974 0
M  V30 75 H 6.926938 0.580876 -2.089704 0
M  V30 76 H 5.311256 2.921761 -0.957386 0
M  V30 77 H 6.238260 3.261980 -3.732281 0
M  V30 78 H 4.583529 3.622744 -2.991916 0
M  V30 79 H 5.640299 1.031241 -4.166007 0
M  V30 80 H 4.218053 2.058006 -4.712823 0
M  V30 END ATOM
M  V30 BEGIN BOND
M  V30 1 1 1 2
M  V30 2 1 2 3
M  V30 3 2 3 4
M  V30 4 1 4 5
M  V30 5 2 5 6
M  V30 6 1 6 7
M  V30 7 1 7 8
M  V30 8 2 7 9
M  V30 9 1 9 10
M  V30 10 1 10 11
M  V30 11 1 11 12
M  V30 12 1 12 13
M  V30 13 1 13 14
M  V30 14 1 14 15
M  V30 15 2 15 16
M  V30 16 1 15 17
M  V30 17 2 17 18
M  V30 18 1 18 19
M  V30 19 2 19 20
M  V30 20 1 20 21
M  V30 21 1 21 22
M  V30 22 2 22 23
M  V30 23 1 23 24
M  V30 24 2 24 25
M  V30 25 1 25 26
M  V30 26 2 26 27
M  V30 27 1 27 28
M  V30 28 1 28 29
M  V30 29 2 28 30
M  V30 30 1 23 31
M  V30 31 2 31 32
M  V30 32 1 13 33
M  V30 33 1 33 34
M  V30 34 1 34 35
M  V30 35 1 35 36
M  V30 36 2 36 37
M  V30 37 1 36 38
M  V30 38 1 38 39
M  V30 39 1 39 40
M  V30 40 1 40 41
M  V30 41 1 41 42
M  V30 42 1 41 43
M  V30 43 1 43 44
M  V30 44 1 9 3
M  V30 45 1 35 11
M  V30 46 1 44 38
M  V30 47 1 32 17
M  V30 48 1 31 20
M  V30 49 1 30 24
M  V30 50 1 1 45
M  V30 51 1 1 46
M  V30 52 1 1 47
M  V30 53 1 4 48
M  V30 54 1 5 49
M  V30 55 1 6 50
M  V30 56 1 10 51
M  V30 57 1 10 52
M  V30 58 1 12 53
M  V30 59 1 12 54
M  V30 60 1 13 55 CFG=1
M  V30 61 1 14 56
M  V30 62 1 18 57
M  V30 63 1 19 58
M  V30 64 1 21 59
M  V30 65 1 25 60
M  V30 66 1 26 61
M  V30 67 1 29 62
M  V30 68 1 29 63
M  V30 69 1 29 64
M  V30 70 1 30 65
M  V30 71 1 32 66
M  V30 72 1 33 67
M  V30 73 1 33 68
M  V30 74 1 34 69
M  V30 75 1 34 70
M  V30 76 1 35 71 CFG=3
M  V30 77 1 39 72
M  V30 78 1 39 73
M  V30 79 1 40 74
M  V30 80 1 40 75
M  V30 81 1 41 76
M  V30 82 1 43 77
M  V30 83 1 43 78
M  V30 84 1 44 79
M  V30 85 1 44 80
M  V30 END BOND
M  V30 END CTAB
M  END
>  <Dataset>  (356) 
ChEMBL_Kinases

>  <Ligand_Instance>  (356) 
nan

>  <PDB_ID>  (356) 
nan

>  <Standardized_SMILES>  (356) 
COc1cccc(F)c1CN1C[C@H](NC(=O)c2ccc3[nH]nc(-c4ccnc(C)c4)c3c2)CC[C@H]1C(=O)N1CCC(Cl)CC1

>  <Name>  (356) 
nan

>  <Pocket>  (356) 
nan

>  <ATP_Site>  (356) 
nan

>  <Peripheral>  (356) 
nan

>  <Num_H_Atoms_ProtBoundConf>  (356) 
nan

>  <Num_Resolved_Atoms>  (356) 
nan

>  <Num_Not_Resolved_Atoms>  (356) 
nan

$$$$
CHEMBL3658423
     RDKit          3D

  0  0  0  0  0  0  0  0  0  0999 V3000
M  V30 BEGIN CTAB
M  V30 COUNTS 74 78 0 0 0
M  V30 BEGIN ATOM
M  V30 1 C 4.827262 -3.214001 -0.521107 0
M  V30 2 O 4.036539 -2.214305 0.077796 0
M  V30 3 C 4.436049 -1.582942 1.244501 0
M  V30 4 C 5.652514 -1.973363 1.805532 0
M  V30 5 C 6.179874 -1.437464 2.960729 0
M  V30 6 C 5.426162 -0.461861 3.562007 0
M  V30 7 C 4.228559 -0.063937 3.027502 0
M  V30 8 F 3.470546 0.890297 3.610495 0
M  V30 9 C 3.678241 -0.581335 1.875939 0
M  V30 10 C 2.425945 -0.295560 1.164955 0
M  V30 11 N 2.513601 0.522964 -0.014678 0
M  V30 12 C 1.243466 0.286537 -0.752444 0
M  V30 13 C 0.108768 0.486606 0.165879 0 CFG=2
M  V30 14 N -1.186853 0.377292 -0.494568 0
M  V30 15 C -2.198910 -0.573417 -0.304652 0
M  V30 16 O -1.957091 -1.458721 0.555454 0
M  V30 17 C -3.435924 -0.500580 -1.077878 0
M  V30 18 C -3.743454 0.454871 -2.024351 0
M  V30 19 C -4.940761 0.448230 -2.709984 0
M  V30 20 C -5.884400 -0.537513 -2.461445 0
M  V30 21 N -7.089058 -0.788468 -2.953547 0
M  V30 22 N -7.597586 -1.873710 -2.372934 0
M  V30 23 C -6.713035 -2.347330 -1.482228 0
M  V30 24 C -6.893021 -3.521685 -0.638857 0
M  V30 25 C -5.847804 -4.416565 -0.538752 0
M  V30 26 C -5.911352 -5.565873 0.238009 0
M  V30 27 N -7.049162 -5.828181 0.933045 0
M  V30 28 C -8.086952 -4.969026 0.852677 0
M  V30 29 C -9.287375 -5.310721 1.628812 0
M  V30 30 C -8.018531 -3.827158 0.078525 0
M  V30 31 C -5.609367 -1.516778 -1.514711 0
M  V30 32 C -4.403934 -1.484008 -0.845099 0
M  V30 33 C 0.070117 1.735477 0.962477 0
M  V30 34 C 1.402054 2.381605 1.187835 0
M  V30 35 C 2.459223 1.950146 0.243049 0 CFG=1
M  V30 36 C 3.733929 2.611765 0.519663 0
M  V30 37 O 3.534280 3.772390 1.035793 0
M  V30 38 N 5.109373 2.239398 0.334829 0
M  V30 39 C 5.823534 1.119317 -0.204381 0
M  V30 40 O 6.069339 3.106913 0.756202 0
M  V30 41 C 6.368050 3.958042 -0.303052 0
M  V30 42 H 5.761196 -2.840026 -0.979911 0
M  V30 43 H 5.152621 -4.013767 0.183426 0
M  V30 44 H 4.281361 -3.750275 -1.323276 0
M  V30 45 H 6.268841 -2.755871 1.333696 0
M  V30 46 H 7.122093 -1.754667 3.375312 0
M  V30 47 H 5.760759 0.004594 4.458304 0
M  V30 48 H 1.722552 0.223207 1.885120 0
M  V30 49 H 1.937802 -1.262900 0.849857 0
M  V30 50 H 1.228332 0.986628 -1.589622 0
M  V30 51 H 1.311004 -0.785829 -1.022281 0
M  V30 52 H 0.095498 -0.387126 0.883627 0
M  V30 53 H -1.241637 1.168494 -1.171880 0
M  V30 54 H -2.998026 1.214798 -2.205757 0
M  V30 55 H -5.105889 1.234874 -3.438495 0
M  V30 56 H -7.546002 -0.206267 -3.684898 0
M  V30 57 H -4.894397 -4.331361 -1.035227 0
M  V30 58 H -5.108364 -6.286373 0.335956 0
M  V30 59 H -9.351022 -6.399789 1.820724 0
M  V30 60 H -10.223697 -4.983155 1.131184 0
M  V30 61 H -9.287136 -4.816794 2.637227 0
M  V30 62 H -8.855962 -3.131957 0.012381 0
M  V30 63 H -4.195241 -2.233593 -0.119970 0
M  V30 64 H -0.334411 1.513088 1.995013 0
M  V30 65 H -0.676601 2.440213 0.543646 0
M  V30 66 H 1.247485 3.487554 0.989975 0
M  V30 67 H 1.744721 2.337143 2.220394 0
M  V30 68 H 2.118108 2.371283 -0.776749 0
M  V30 69 H 6.300482 0.570743 0.612750 0
M  V30 70 H 5.113079 0.398618 -0.707329 0
M  V30 71 H 6.586144 1.457700 -0.962153 0
M  V30 72 H 5.499281 4.066377 -0.982346 0
M  V30 73 H 7.305739 3.679902 -0.826044 0
M  V30 74 H 6.554648 4.971981 0.141774 0
M  V30 END ATOM
M  V30 BEGIN BOND
M  V30 1 1 1 2
M  V30 2 1 2 3
M  V30 3 2 3 4
M  V30 4 1 4 5
M  V30 5 2 5 6
M  V30 6 1 6 7
M  V30 7 1 7 8
M  V30 8 2 7 9
M  V30 9 1 9 10
M  V30 10 1 10 11
M  V30 11 1 11 12
M  V30 12 1 12 13
M  V30 13 1 13 14
M  V30 14 1 14 15
M  V30 15 2 15 16
M  V30 16 1 15 17
M  V30 17 2 17 18
M  V30 18 1 18 19
M  V30 19 2 19 20
M  V30 20 1 20 21
M  V30 21 1 21 22
M  V30 22 2 22 23
M  V30 23 1 23 24
M  V30 24 2 24 25
M  V30 25 1 25 26
M  V30 26 2 26 27
M  V30 27 1 27 28
M  V30 28 1 28 29
M  V30 29 2 28 30
M  V30 30 1 23 31
M  V30 31 2 31 32
M  V30 32 1 13 33
M  V30 33 1 33 34
M  V30 34 1 34 35
M  V30 35 1 35 36
M  V30 36 2 36 37
M  V30 37 1 36 38
M  V30 38 1 38 39
M  V30 39 1 38 40
M  V30 40 1 40 41
M  V30 41 1 9 3
M  V30 42 1 35 11
M  V30 43 1 32 17
M  V30 44 1 31 20
M  V30 45 1 30 24
M  V30 46 1 1 42
M  V30 47 1 1 43
M  V30 48 1 1 44
M  V30 49 1 4 45
M  V30 50 1 5 46
M  V30 51 1 6 47
M  V30 52 1 10 48
M  V30 53 1 10 49
M  V30 54 1 12 50
M  V30 55 1 12 51
M  V30 56 1 13 52 CFG=1
M  V30 57 1 14 53
M  V30 58 1 18 54
M  V30 59 1 19 55
M  V30 60 1 21 56
M  V30 61 1 25 57
M  V30 62 1 26 58
M  V30 63 1 29 59
M  V30 64 1 29 60
M  V30 65 1 29 61
M  V30 66 1 30 62
M  V30 67 1 32 63
M  V30 68 1 33 64
M  V30 69 1 33 65
M  V30 70 1 34 66
M  V30 71 1 34 67
M  V30 72 1 35 68 CFG=3
M  V30 73 1 39 69
M  V30 74 1 39 70
M  V30 75 1 39 71
M  V30 76 1 41 72
M  V30 77 1 41 73
M  V30 78 1 41 74
M  V30 END BOND
M  V30 END CTAB
M  END
>  <Dataset>  (357) 
ChEMBL_Kinases

>  <Ligand_Instance>  (357) 
nan

>  <PDB_ID>  (357) 
nan

>  <Standardized_SMILES>  (357) 
COc1cccc(F)c1CN1C[C@H](NC(=O)c2ccc3[nH]nc(-c4ccnc(C)c4)c3c2)CC[C@H]1C(=O)N(C)OC

>  <Name>  (357) 
nan

>  <Pocket>  (357) 
nan

>  <ATP_Site>  (357) 
nan

>  <Peripheral>  (357) 
nan

>  <Num_H_Atoms_ProtBoundConf>  (357) 
nan

>  <Num_Resolved_Atoms>  (357) 
nan

>  <Num_Not_Resolved_Atoms>  (357) 
nan

$$$$
CHEMBL3658424
     RDKit          3D

  0  0  0  0  0  0  0  0  0  0999 V3000
M  V30 BEGIN CTAB
M  V30 COUNTS 72 76 0 0 0
M  V30 BEGIN ATOM
M  V30 1 C 2.473493 -3.898357 2.923206 0
M  V30 2 N 2.848238 -4.166941 1.558501 0
M  V30 3 N 2.205000 -3.256611 0.713585 0
M  V30 4 C 2.796284 -1.987167 0.340384 0
M  V30 5 O 3.903735 -2.049536 0.970688 0
M  V30 6 C 1.829546 -1.301772 -0.553010 0 CFG=2
M  V30 7 C 1.495966 -2.138606 -1.762548 0
M  V30 8 C 0.626372 -1.357197 -2.664920 0
M  V30 9 C 0.065694 -0.078705 -2.166067 0 CFG=1
M  V30 10 N -1.201275 -0.358365 -1.520572 0
M  V30 11 C -2.421634 0.137276 -2.013501 0
M  V30 12 O -2.386282 0.855410 -3.074312 0
M  V30 13 C -3.757410 -0.072997 -1.448338 0
M  V30 14 C -4.845044 0.469587 -2.098215 0
M  V30 15 C -6.102566 0.263143 -1.540959 0
M  V30 16 C -6.353036 -0.432797 -0.402629 0
M  V30 17 N -7.399041 -0.792628 0.358220 0
M  V30 18 N -7.008251 -1.514142 1.420179 0
M  V30 19 C -5.666130 -1.621733 1.339155 0
M  V30 20 C -4.916490 -2.344728 2.341182 0
M  V30 21 C -3.913090 -3.243899 2.049698 0
M  V30 22 C -3.187096 -3.940494 2.994841 0
M  V30 23 N -3.474447 -3.730948 4.296744 0
M  V30 24 C -4.438938 -2.869785 4.661594 0
M  V30 25 C -4.710339 -2.676155 6.117628 0
M  V30 26 C -5.163005 -2.174914 3.711753 0
M  V30 27 C -5.210509 -0.954825 0.205397 0
M  V30 28 C -3.910047 -0.793183 -0.289123 0
M  V30 29 C 1.020590 0.710349 -1.302764 0
M  V30 30 N 2.213938 -0.007751 -1.003957 0
M  V30 31 C 3.068007 0.641226 -0.085278 0
M  V30 32 C 3.526790 1.998970 -0.443958 0
M  V30 33 C 2.852873 3.194334 -0.282871 0
M  V30 34 F 1.655534 3.196004 0.308192 0
M  V30 35 C 3.333323 4.403689 -0.665165 0
M  V30 36 C 4.564585 4.529618 -1.257829 0
M  V30 37 C 5.310097 3.385847 -1.457655 0
M  V30 38 C 4.778753 2.174949 -1.052103 0
M  V30 39 O 5.533537 1.041785 -1.257883 0
M  V30 40 C 6.805096 1.055341 -1.854382 0
M  V30 41 H 1.922828 -4.766204 3.392326 0
M  V30 42 H 3.368660 -3.623263 3.519932 0
M  V30 43 H 1.774956 -3.043320 3.019001 0
M  V30 44 H 2.799075 -5.143386 1.261179 0
M  V30 45 H 1.268555 -3.697462 0.448887 0
M  V30 46 H 0.875516 -1.168197 0.032787 0
M  V30 47 H 1.009629 -3.099237 -1.482999 0
M  V30 48 H 2.433143 -2.394183 -2.331945 0
M  V30 49 H -0.252992 -2.010293 -2.952849 0
M  V30 50 H 1.106496 -1.160562 -3.673008 0
M  V30 51 H -0.180135 0.559415 -3.050190 0
M  V30 52 H -1.365632 -0.928140 -0.660641 0
M  V30 53 H -4.774944 1.045956 -3.015401 0
M  V30 54 H -6.956532 0.699652 -2.065490 0
M  V30 55 H -8.350625 -0.494105 0.064696 0
M  V30 56 H -3.647882 -3.444663 1.023729 0
M  V30 57 H -2.409454 -4.639913 2.805890 0
M  V30 58 H -4.900858 -1.605222 6.370542 0
M  V30 59 H -3.842278 -2.969182 6.734883 0
M  V30 60 H -5.614649 -3.250281 6.388471 0
M  V30 61 H -5.943533 -1.476219 3.981221 0
M  V30 62 H -3.122681 -1.236272 0.261883 0
M  V30 63 H 0.476851 0.918199 -0.364180 0
M  V30 64 H 1.261245 1.660351 -1.788491 0
M  V30 65 H 4.011808 0.022792 -0.014227 0
M  V30 66 H 2.594368 0.680620 0.924093 0
M  V30 67 H 2.787205 5.319129 -0.529499 0
M  V30 68 H 4.992963 5.446016 -1.579337 0
M  V30 69 H 6.277782 3.421993 -1.914465 0
M  V30 70 H 7.321505 0.078373 -1.741206 0
M  V30 71 H 7.420422 1.826499 -1.363346 0
M  V30 72 H 6.698637 1.259690 -2.944525 0
M  V30 END ATOM
M  V30 BEGIN BOND
M  V30 1 1 1 2
M  V30 2 1 2 3
M  V30 3 1 3 4
M  V30 4 2 4 5
M  V30 5 1 4 6
M  V30 6 1 6 7
M  V30 7 1 7 8
M  V30 8 1 8 9
M  V30 9 1 9 10
M  V30 10 1 10 11
M  V30 11 2 11 12
M  V30 12 1 11 13
M  V30 13 2 13 14
M  V30 14 1 14 15
M  V30 15 2 15 16
M  V30 16 1 16 17
M  V30 17 1 17 18
M  V30 18 2 18 19
M  V30 19 1 19 20
M  V30 20 2 20 21
M  V30 21 1 21 22
M  V30 22 2 22 23
M  V30 23 1 23 24
M  V30 24 1 24 25
M  V30 25 2 24 26
M  V30 26 1 19 27
M  V30 27 2 27 28
M  V30 28 1 9 29
M  V30 29 1 29 30
M  V30 30 1 30 31
M  V30 31 1 31 32
M  V30 32 2 32 33
M  V30 33 1 33 34
M  V30 34 1 33 35
M  V30 35 2 35 36
M  V30 36 1 36 37
M  V30 37 2 37 38
M  V30 38 1 38 39
M  V30 39 1 39 40
M  V30 40 1 30 6
M  V30 41 1 38 32
M  V30 42 1 28 13
M  V30 43 1 27 16
M  V30 44 1 26 20
M  V30 45 1 1 41
M  V30 46 1 1 42
M  V30 47 1 1 43
M  V30 48 1 2 44
M  V30 49 1 3 45
M  V30 50 1 6 46 CFG=1
M  V30 51 1 7 47
M  V30 52 1 7 48
M  V30 53 1 8 49
M  V30 54 1 8 50
M  V30 55 1 9 51 CFG=3
M  V30 56 1 10 52
M  V30 57 1 14 53
M  V30 58 1 15 54
M  V30 59 1 17 55
M  V30 60 1 21 56
M  V30 61 1 22 57
M  V30 62 1 25 58
M  V30 63 1 25 59
M  V30 64 1 25 60
M  V30 65 1 26 61
M  V30 66 1 28 62
M  V30 67 1 29 63
M  V30 68 1 29 64
M  V30 69 1 31 65
M  V30 70 1 31 66
M  V30 71 1 35 67
M  V30 72 1 36 68
M  V30 73 1 37 69
M  V30 74 1 40 70
M  V30 75 1 40 71
M  V30 76 1 40 72
M  V30 END BOND
M  V30 END CTAB
M  END
>  <Dataset>  (358) 
ChEMBL_Kinases

>  <Ligand_Instance>  (358) 
nan

>  <PDB_ID>  (358) 
nan

>  <Standardized_SMILES>  (358) 
CNNC(=O)[C@@H]1CC[C@@H](NC(=O)c2ccc3[nH]nc(-c4ccnc(C)c4)c3c2)CN1Cc1c(F)cccc1OC

>  <Name>  (358) 
nan

>  <Pocket>  (358) 
nan

>  <ATP_Site>  (358) 
nan

>  <Peripheral>  (358) 
nan

>  <Num_H_Atoms_ProtBoundConf>  (358) 
nan

>  <Num_Resolved_Atoms>  (358) 
nan

>  <Num_Not_Resolved_Atoms>  (358) 
nan

$$$$
CHEMBL3658434
     RDKit          3D

  0  0  0  0  0  0  0  0  0  0999 V3000
M  V30 BEGIN CTAB
M  V30 COUNTS 75 80 0 0 0
M  V30 BEGIN ATOM
M  V30 1 C 0.538675 -2.660451 2.728919 0
M  V30 2 O 1.521926 -1.872123 2.134162 0
M  V30 3 C 2.021275 -0.756053 2.749750 0
M  V30 4 C 1.542444 -0.400376 3.991151 0
M  V30 5 C 2.028362 0.703780 4.617520 0
M  V30 6 C 2.996507 1.469268 4.019530 0
M  V30 7 C 3.425953 1.051107 2.778437 0
M  V30 8 F 4.402798 1.839682 2.214139 0
M  V30 9 C 2.992209 -0.069417 2.044297 0
M  V30 10 C 3.579324 -0.320523 0.743172 0
M  V30 11 N 2.964413 -0.003030 -0.444684 0
M  V30 12 C 1.711160 -0.538313 -0.819153 0
M  V30 13 C 0.572666 0.345142 -0.413946 0 CFG=2
M  V30 14 N -0.547030 -0.041174 -1.300099 0
M  V30 15 C -1.709775 -0.673562 -0.792686 0
M  V30 16 O -1.699407 -0.873922 0.464815 0
M  V30 17 C -2.823314 -1.058763 -1.658456 0
M  V30 18 C -2.865314 -0.823670 -3.022688 0
M  V30 19 C -3.962799 -1.228038 -3.754342 0
M  V30 20 C -5.020722 -1.866045 -3.136456 0
M  V30 21 N -6.202162 -2.375850 -3.528945 0
M  V30 22 N -6.856235 -2.893875 -2.490394 0
M  V30 23 C -6.126529 -2.739437 -1.393318 0
M  V30 24 C -6.591229 -3.211885 -0.109302 0
M  V30 25 C -7.145796 -4.497416 -0.096459 0
M  V30 26 C -7.647517 -5.137481 1.018706 0
M  V30 27 N -7.587447 -4.442479 2.190773 0
M  V30 28 C -7.065306 -3.201849 2.243293 0
M  V30 29 C -7.012940 -2.467876 3.535305 0
M  V30 30 C -6.570501 -2.583646 1.115694 0
M  V30 31 C -4.962943 -2.092425 -1.777811 0
M  V30 32 C -3.889615 -1.703529 -1.026984 0
M  V30 33 C 0.769784 1.804704 -0.524118 0
M  V30 34 C 2.186043 2.310193 -0.412504 0
M  V30 35 C 3.085097 1.291804 -1.035058 0 CFG=1
M  V30 36 C 4.434912 1.740390 -1.393354 0
M  V30 37 O 4.268389 2.964035 -1.734391 0
M  V30 38 N 5.723860 1.086700 -1.411348 0
M  V30 39 C 6.611821 -0.073679 -1.217203 0
M  V30 40 C 7.645945 0.486654 -0.253536 0
M  V30 41 C 7.640715 1.946690 -0.700562 0
M  V30 42 O 6.788094 1.862410 -1.809144 0
M  V30 43 H 0.771797 -2.948995 3.769948 0
M  V30 44 H -0.439313 -2.105063 2.773016 0
M  V30 45 H 0.433978 -3.610795 2.152461 0
M  V30 46 H 0.773197 -1.024838 4.445997 0
M  V30 47 H 1.669837 1.001114 5.585494 0
M  V30 48 H 3.390370 2.335014 4.490151 0
M  V30 49 H 3.890758 -1.415327 0.691481 0
M  V30 50 H 4.597741 0.185988 0.753341 0
M  V30 51 H 1.499296 -1.579076 -0.531853 0
M  V30 52 H 1.698560 -0.510885 -1.964643 0
M  V30 53 H 0.314169 0.092186 0.637284 0
M  V30 54 H -0.441737 0.173134 -2.315390 0
M  V30 55 H -2.034153 -0.327286 -3.481160 0
M  V30 56 H -4.012271 -1.053952 -4.812294 0
M  V30 57 H -6.506031 -2.339865 -4.518142 0
M  V30 58 H -7.212690 -5.086542 -1.010066 0
M  V30 59 H -8.060553 -6.114511 0.986503 0
M  V30 60 H -8.016501 -2.021513 3.764338 0
M  V30 61 H -6.270246 -1.656909 3.485576 0
M  V30 62 H -6.802445 -3.189224 4.352496 0
M  V30 63 H -6.133572 -1.581053 1.084488 0
M  V30 64 H -3.874867 -1.897795 0.047642 0
M  V30 65 H 0.269034 2.200923 -1.451742 0
M  V30 66 H 0.194428 2.305922 0.305730 0
M  V30 67 H 2.469313 2.685574 0.564897 0
M  V30 68 H 2.245024 3.209006 -1.096527 0
M  V30 69 H 2.602153 1.141195 -2.069609 0
M  V30 70 H 7.026117 -0.417363 -2.167595 0
M  V30 71 H 6.102440 -0.919327 -0.728076 0
M  V30 72 H 8.595274 -0.016763 -0.455197 0
M  V30 73 H 7.361674 0.360760 0.794783 0
M  V30 74 H 8.649773 2.212207 -1.042543 0
M  V30 75 H 7.239768 2.537272 0.127337 0
M  V30 END ATOM
M  V30 BEGIN BOND
M  V30 1 1 1 2
M  V30 2 1 2 3
M  V30 3 2 3 4
M  V30 4 1 4 5
M  V30 5 2 5 6
M  V30 6 1 6 7
M  V30 7 1 7 8
M  V30 8 2 7 9
M  V30 9 1 9 10
M  V30 10 1 10 11
M  V30 11 1 11 12
M  V30 12 1 12 13
M  V30 13 1 13 14
M  V30 14 1 14 15
M  V30 15 2 15 16
M  V30 16 1 15 17
M  V30 17 2 17 18
M  V30 18 1 18 19
M  V30 19 2 19 20
M  V30 20 1 20 21
M  V30 21 1 21 22
M  V30 22 2 22 23
M  V30 23 1 23 24
M  V30 24 2 24 25
M  V30 25 1 25 26
M  V30 26 2 26 27
M  V30 27 1 27 28
M  V30 28 1 28 29
M  V30 29 2 28 30
M  V30 30 1 23 31
M  V30 31 2 31 32
M  V30 32 1 13 33
M  V30 33 1 33 34
M  V30 34 1 34 35
M  V30 35 1 35 36
M  V30 36 2 36 37
M  V30 37 1 36 38
M  V30 38 1 38 39
M  V30 39 1 39 40
M  V30 40 1 40 41
M  V30 41 1 41 42
M  V30 42 1 9 3
M  V30 43 1 35 11
M  V30 44 1 42 38
M  V30 45 1 32 17
M  V30 46 1 31 20
M  V30 47 1 30 24
M  V30 48 1 1 43
M  V30 49 1 1 44
M  V30 50 1 1 45
M  V30 51 1 4 46
M  V30 52 1 5 47
M  V30 53 1 6 48
M  V30 54 1 10 49
M  V30 55 1 10 50
M  V30 56 1 12 51
M  V30 57 1 12 52
M  V30 58 1 13 53 CFG=1
M  V30 59 1 14 54
M  V30 60 1 18 55
M  V30 61 1 19 56
M  V30 62 1 21 57
M  V30 63 1 25 58
M  V30 64 1 26 59
M  V30 65 1 29 60
M  V30 66 1 29 61
M  V30 67 1 29 62
M  V30 68 1 30 63
M  V30 69 1 32 64
M  V30 70 1 33 65
M  V30 71 1 33 66
M  V30 72 1 34 67
M  V30 73 1 34 68
M  V30 74 1 35 69 CFG=3
M  V30 75 1 39 70
M  V30 76 1 39 71
M  V30 77 1 40 72
M  V30 78 1 40 73
M  V30 79 1 41 74
M  V30 80 1 41 75
M  V30 END BOND
M  V30 END CTAB
M  END
>  <Dataset>  (359) 
ChEMBL_Kinases

>  <Ligand_Instance>  (359) 
nan

>  <PDB_ID>  (359) 
nan

>  <Standardized_SMILES>  (359) 
COc1cccc(F)c1CN1C[C@H](NC(=O)c2ccc3[nH]nc(-c4ccnc(C)c4)c3c2)CC[C@H]1C(=O)N1CCCO1

>  <Name>  (359) 
nan

>  <Pocket>  (359) 
nan

>  <ATP_Site>  (359) 
nan

>  <Peripheral>  (359) 
nan

>  <Num_H_Atoms_ProtBoundConf>  (359) 
nan

>  <Num_Resolved_Atoms>  (359) 
nan

>  <Num_Not_Resolved_Atoms>  (359) 
nan

$$$$
CHEMBL3658426
     RDKit          3D

  0  0  0  0  0  0  0  0  0  0999 V3000
M  V30 BEGIN CTAB
M  V30 COUNTS 89 94 0 0 0
M  V30 BEGIN ATOM
M  V30 1 C 2.656097 -5.053445 0.414128 0
M  V30 2 C 1.900395 -4.560493 -0.779146 0
M  V30 3 N 2.536689 -3.440065 -1.423548 0
M  V30 4 C 1.943987 -2.853169 -2.546166 0
M  V30 5 O 0.849898 -3.460230 -2.815124 0
M  V30 6 N 2.358238 -1.758860 -3.359036 0
M  V30 7 C 3.527991 -0.846646 -3.361866 0
M  V30 8 C 3.069988 0.506521 -3.926199 0
M  V30 9 N 1.730998 0.686034 -3.348313 0
M  V30 10 C 1.746734 1.501711 -2.170931 0
M  V30 11 O 2.941721 1.848699 -1.995642 0
M  V30 12 C 0.720830 1.982373 -1.184792 0 CFG=2
M  V30 13 C 0.371754 3.435950 -1.511914 0
M  V30 14 C -0.518305 3.994655 -0.465925 0
M  V30 15 C -0.128664 3.624412 0.919796 0 CFG=1
M  V30 16 N -0.955563 2.577875 1.478449 0
M  V30 17 C -1.515115 2.226126 2.734528 0
M  V30 18 O -1.243222 3.017375 3.653913 0
M  V30 19 C -2.327096 1.034780 2.911891 0
M  V30 20 C -2.472083 0.657435 4.236619 0
M  V30 21 C -3.215779 -0.452180 4.538810 0
M  V30 22 C -3.846106 -1.238138 3.603014 0
M  V30 23 N -4.600951 -2.341054 3.622518 0
M  V30 24 N -4.921882 -2.640882 2.375595 0
M  V30 25 C -4.385860 -1.746905 1.523289 0
M  V30 26 C -4.545274 -1.795997 0.068759 0
M  V30 27 C -4.918865 -0.722014 -0.722587 0
M  V30 28 C -5.068243 -0.771156 -2.080941 0
M  V30 29 N -4.842912 -1.940983 -2.716457 0
M  V30 30 C -4.474270 -3.042637 -2.022092 0
M  V30 31 C -4.227428 -4.325292 -2.746645 0
M  V30 32 C -4.332697 -2.964551 -0.662466 0
M  V30 33 C -3.689265 -0.843581 2.295329 0
M  V30 34 C -2.947252 0.265511 1.965996 0
M  V30 35 C 1.334782 3.043211 0.831588 0
M  V30 36 N 1.192697 1.846523 0.153066 0
M  V30 37 C 2.022960 0.779299 0.372494 0
M  V30 38 C 2.193578 0.256875 1.756887 0
M  V30 39 C 3.178992 0.846108 2.576954 0
M  V30 40 F 3.995399 1.849780 2.156526 0
M  V30 41 C 3.291037 0.343141 3.853521 0
M  V30 42 C 2.534872 -0.663951 4.375893 0
M  V30 43 C 1.579755 -1.214309 3.532930 0
M  V30 44 C 1.373678 -0.791049 2.234808 0
M  V30 45 O 0.519841 -1.226033 1.388806 0
M  V30 46 C -0.352582 -1.674068 0.531749 0
M  V30 47 C 0.761253 -0.074706 -4.161990 0
M  V30 48 C 1.451834 -1.396551 -4.470790 0
M  V30 49 H 3.032016 -6.109618 0.282674 0
M  V30 50 H 2.043015 -5.108309 1.335054 0
M  V30 51 H 3.561971 -4.412814 0.530980 0
M  V30 52 H 0.856872 -4.360818 -0.482898 0
M  V30 53 H 1.935706 -5.398107 -1.533065 0
M  V30 54 H 3.452591 -2.979957 -1.137258 0
M  V30 55 H 4.328715 -1.273496 -3.975158 0
M  V30 56 H 3.859441 -0.746311 -2.327827 0
M  V30 57 H 3.036830 0.484816 -5.037309 0
M  V30 58 H 3.761329 1.267149 -3.551771 0
M  V30 59 H -0.185198 1.392513 -1.338601 0
M  V30 60 H -0.151274 3.428240 -2.502024 0
M  V30 61 H 1.303341 4.029235 -1.668154 0
M  V30 62 H -0.609654 5.116643 -0.588682 0
M  V30 63 H -1.559436 3.590838 -0.646339 0
M  V30 64 H -0.027298 4.478175 1.579519 0
M  V30 65 H -1.208898 1.872776 0.725649 0
M  V30 66 H -2.026800 1.201840 5.073088 0
M  V30 67 H -3.354746 -0.799601 5.572184 0
M  V30 68 H -4.859165 -2.840975 4.531276 0
M  V30 69 H -5.109776 0.216962 -0.229385 0
M  V30 70 H -5.363180 0.081543 -2.670160 0
M  V30 71 H -3.125288 -4.468250 -2.815617 0
M  V30 72 H -4.602816 -4.267445 -3.784301 0
M  V30 73 H -4.681247 -5.167201 -2.208778 0
M  V30 74 H -4.041231 -3.845798 -0.109022 0
M  V30 75 H -2.821700 0.575174 0.951506 0
M  V30 76 H 1.630921 3.006846 1.876581 0
M  V30 77 H 1.938322 3.830377 0.355290 0
M  V30 78 H 1.848067 -0.127492 -0.256705 0
M  V30 79 H 3.080355 1.082101 0.053952 0
M  V30 80 H 4.043576 0.792647 4.467881 0
M  V30 81 H 2.602789 -1.077442 5.386948 0
M  V30 82 H 0.932922 -2.020430 3.868826 0
M  V30 83 H -0.999392 -0.803307 0.151713 0
M  V30 84 H -1.162477 -2.379653 0.907900 0
M  V30 85 H -0.012598 -2.126691 -0.430375 0
M  V30 86 H -0.202581 -0.202985 -3.658809 0
M  V30 87 H 0.612729 0.479495 -5.102654 0
M  V30 88 H 0.708132 -2.170379 -4.617011 0
M  V30 89 H 2.059113 -1.255106 -5.383861 0
M  V30 END ATOM
M  V30 BEGIN BOND
M  V30 1 1 1 2
M  V30 2 1 2 3
M  V30 3 1 3 4
M  V30 4 2 4 5
M  V30 5 1 4 6
M  V30 6 1 6 7
M  V30 7 1 7 8
M  V30 8 1 8 9
M  V30 9 1 9 10
M  V30 10 2 10 11
M  V30 11 1 10 12
M  V30 12 1 12 13
M  V30 13 1 13 14
M  V30 14 1 14 15
M  V30 15 1 15 16
M  V30 16 1 16 17
M  V30 17 2 17 18
M  V30 18 1 17 19
M  V30 19 2 19 20
M  V30 20 1 20 21
M  V30 21 2 21 22
M  V30 22 1 22 23
M  V30 23 1 23 24
M  V30 24 2 24 25
M  V30 25 1 25 26
M  V30 26 2 26 27
M  V30 27 1 27 28
M  V30 28 2 28 29
M  V30 29 1 29 30
M  V30 30 1 30 31
M  V30 31 2 30 32
M  V30 32 1 25 33
M  V30 33 2 33 34
M  V30 34 1 15 35
M  V30 35 1 35 36
M  V30 36 1 36 37
M  V30 37 1 37 38
M  V30 38 2 38 39
M  V30 39 1 39 40
M  V30 40 1 39 41
M  V30 41 2 41 42
M  V30 42 1 42 43
M  V30 43 2 43 44
M  V30 44 1 44 45
M  V30 45 1 45 46
M  V30 46 1 9 47
M  V30 47 1 47 48
M  V30 48 1 48 6
M  V30 49 1 36 12
M  V30 50 1 44 38
M  V30 51 1 34 19
M  V30 52 1 33 22
M  V30 53 1 32 26
M  V30 54 1 1 49
M  V30 55 1 1 50
M  V30 56 1 1 51
M  V30 57 1 2 52
M  V30 58 1 2 53
M  V30 59 1 3 54
M  V30 60 1 7 55
M  V30 61 1 7 56
M  V30 62 1 8 57
M  V30 63 1 8 58
M  V30 64 1 12 59 CFG=1
M  V30 65 1 13 60
M  V30 66 1 13 61
M  V30 67 1 14 62
M  V30 68 1 14 63
M  V30 69 1 15 64 CFG=1
M  V30 70 1 16 65
M  V30 71 1 20 66
M  V30 72 1 21 67
M  V30 73 1 23 68
M  V30 74 1 27 69
M  V30 75 1 28 70
M  V30 76 1 31 71
M  V30 77 1 31 72
M  V30 78 1 31 73
M  V30 79 1 32 74
M  V30 80 1 34 75
M  V30 81 1 35 76
M  V30 82 1 35 77
M  V30 83 1 37 78
M  V30 84 1 37 79
M  V30 85 1 41 80
M  V30 86 1 42 81
M  V30 87 1 43 82
M  V30 88 1 46 83
M  V30 89 1 46 84
M  V30 90 1 46 85
M  V30 91 1 47 86
M  V30 92 1 47 87
M  V30 93 1 48 88
M  V30 94 1 48 89
M  V30 END BOND
M  V30 END CTAB
M  END
>  <Dataset>  (360) 
ChEMBL_Kinases

>  <Ligand_Instance>  (360) 
nan

>  <PDB_ID>  (360) 
nan

>  <Standardized_SMILES>  (360) 
CCNC(=O)N1CCN(C(=O)[C@@H]2CC[C@@H](NC(=O)c3ccc4[nH]nc(-c5ccnc(C)c5)c4c3)CN2Cc2c(F)cccc2OC)CC1

>  <Name>  (360) 
nan

>  <Pocket>  (360) 
nan

>  <ATP_Site>  (360) 
nan

>  <Peripheral>  (360) 
nan

>  <Num_H_Atoms_ProtBoundConf>  (360) 
nan

>  <Num_Resolved_Atoms>  (360) 
nan

>  <Num_Not_Resolved_Atoms>  (360) 
nan

$$$$
CHEMBL3658427
     RDKit          3D

  0  0  0  0  0  0  0  0  0  0999 V3000
M  V30 BEGIN CTAB
M  V30 COUNTS 70 74 0 0 0
M  V30 BEGIN ATOM
M  V30 1 C 6.445944 -0.398517 3.486594 0
M  V30 2 N 5.029517 -0.236228 3.224131 0
M  V30 3 C 4.687156 0.033380 1.857824 0
M  V30 4 O 5.788007 0.057788 1.209823 0
M  V30 5 C 3.219406 0.200471 1.591614 0 CFG=2
M  V30 6 C 2.561773 -1.021802 2.190121 0
M  V30 7 C 1.140057 -1.000251 1.687984 0
M  V30 8 C 1.140378 -1.291683 0.197669 0 CFG=1
M  V30 9 N -0.203343 -1.054963 -0.223458 0
M  V30 10 C -1.246914 -1.923507 -0.647189 0
M  V30 11 O -0.899130 -3.101510 -0.639970 0
M  V30 12 C -2.534580 -1.349037 -1.019796 0
M  V30 13 C -2.861925 -0.005774 -1.009586 0
M  V30 14 C -4.128156 0.384371 -1.391818 0
M  V30 15 C -5.118812 -0.487918 -1.794072 0
M  V30 16 N -6.392002 -0.359895 -2.202238 0
M  V30 17 N -6.874763 -1.563989 -2.466932 0
M  V30 18 C -5.931636 -2.487272 -2.237238 0
M  V30 19 C -6.092178 -3.923255 -2.416596 0
M  V30 20 C -6.706924 -4.414761 -3.574930 0
M  V30 21 C -6.840465 -5.780890 -3.702872 0
M  V30 22 N -6.401777 -6.651616 -2.756459 0
M  V30 23 C -5.804295 -6.210384 -1.627221 0
M  V30 24 C -5.347716 -7.207601 -0.632691 0
M  V30 25 C -5.657933 -4.848243 -1.473607 0
M  V30 26 C -4.790060 -1.846441 -1.805047 0
M  V30 27 C -3.521488 -2.229835 -1.421519 0
M  V30 28 C 2.246656 -0.610216 -0.469200 0
M  V30 29 N 2.876200 0.456547 0.258370 0
M  V30 30 C 2.494765 1.774561 -0.041256 0
M  V30 31 C 3.185606 2.805646 0.773590 0
M  V30 32 C 4.496774 3.148036 0.535524 0
M  V30 33 F 5.197580 2.552149 -0.445878 0
M  V30 34 C 5.183504 4.100231 1.258628 0
M  V30 35 C 4.521093 4.753492 2.285194 0
M  V30 36 C 3.203521 4.415193 2.530619 0
M  V30 37 C 2.526955 3.470500 1.810879 0
M  V30 38 O 1.206159 3.186974 2.116791 0
M  V30 39 C 0.546982 3.873923 3.178496 0
M  V30 40 H 6.932114 0.577681 3.226436 0
M  V30 41 H 6.633143 -0.607066 4.541881 0
M  V30 42 H 6.889301 -1.225809 2.888172 0
M  V30 43 H 4.348461 -0.324136 4.036682 0
M  V30 44 H 2.911194 1.053864 2.229393 0
M  V30 45 H 3.025202 -1.965818 1.903280 0
M  V30 46 H 2.529373 -0.948313 3.295445 0
M  V30 47 H 0.620084 -0.054523 1.933596 0
M  V30 48 H 0.587341 -1.825967 2.179653 0
M  V30 49 H 1.298208 -2.393930 0.142088 0
M  V30 50 H -0.277827 -0.010320 -0.152232 0
M  V30 51 H -2.105837 0.677462 -0.701576 0
M  V30 52 H -4.381135 1.436166 -1.382929 0
M  V30 53 H -6.914060 0.539768 -2.295228 0
M  V30 54 H -7.048937 -3.708099 -4.315065 0
M  V30 55 H -7.319477 -6.194629 -4.601641 0
M  V30 56 H -4.371714 -7.668113 -0.880458 0
M  V30 57 H -6.070227 -8.059108 -0.607613 0
M  V30 58 H -5.277909 -6.809057 0.391534 0
M  V30 59 H -5.180663 -4.514482 -0.567782 0
M  V30 60 H -3.320009 -3.286970 -1.448608 0
M  V30 61 H 2.065609 -0.182469 -1.484026 0
M  V30 62 H 3.090803 -1.312476 -0.668266 0
M  V30 63 H 2.620096 2.090109 -1.092261 0
M  V30 64 H 1.385655 1.854086 0.144502 0
M  V30 65 H 6.232916 4.354931 1.046860 0
M  V30 66 H 5.075376 5.501537 2.846289 0
M  V30 67 H 2.742975 4.971105 3.356125 0
M  V30 68 H -0.410208 3.399430 3.432064 0
M  V30 69 H 1.195544 3.840297 4.085708 0
M  V30 70 H 0.432447 4.952848 2.942203 0
M  V30 END ATOM
M  V30 BEGIN BOND
M  V30 1 1 1 2
M  V30 2 1 2 3
M  V30 3 2 3 4
M  V30 4 1 3 5
M  V30 5 1 5 6
M  V30 6 1 6 7
M  V30 7 1 7 8
M  V30 8 1 8 9
M  V30 9 1 9 10
M  V30 10 2 10 11
M  V30 11 1 10 12
M  V30 12 2 12 13
M  V30 13 1 13 14
M  V30 14 2 14 15
M  V30 15 1 15 16
M  V30 16 1 16 17
M  V30 17 2 17 18
M  V30 18 1 18 19
M  V30 19 2 19 20
M  V30 20 1 20 21
M  V30 21 2 21 22
M  V30 22 1 22 23
M  V30 23 1 23 24
M  V30 24 2 23 25
M  V30 25 1 18 26
M  V30 26 2 26 27
M  V30 27 1 8 28
M  V30 28 1 28 29
M  V30 29 1 29 30
M  V30 30 1 30 31
M  V30 31 2 31 32
M  V30 32 1 32 33
M  V30 33 1 32 34
M  V30 34 2 34 35
M  V30 35 1 35 36
M  V30 36 2 36 37
M  V30 37 1 37 38
M  V30 38 1 38 39
M  V30 39 1 29 5
M  V30 40 1 37 31
M  V30 41 1 27 12
M  V30 42 1 26 15
M  V30 43 1 25 19
M  V30 44 1 1 40
M  V30 45 1 1 41
M  V30 46 1 1 42
M  V30 47 1 2 43
M  V30 48 1 5 44 CFG=1
M  V30 49 1 6 45
M  V30 50 1 6 46
M  V30 51 1 7 47
M  V30 52 1 7 48
M  V30 53 1 8 49 CFG=1
M  V30 54 1 9 50
M  V30 55 1 13 51
M  V30 56 1 14 52
M  V30 57 1 16 53
M  V30 58 1 20 54
M  V30 59 1 21 55
M  V30 60 1 24 56
M  V30 61 1 24 57
M  V30 62 1 24 58
M  V30 63 1 25 59
M  V30 64 1 27 60
M  V30 65 1 28 61
M  V30 66 1 28 62
M  V30 67 1 30 63
M  V30 68 1 30 64
M  V30 69 1 34 65
M  V30 70 1 35 66
M  V30 71 1 36 67
M  V30 72 1 39 68
M  V30 73 1 39 69
M  V30 74 1 39 70
M  V30 END BOND
M  V30 END CTAB
M  END
>  <Dataset>  (361) 
ChEMBL_Kinases

>  <Ligand_Instance>  (361) 
nan

>  <PDB_ID>  (361) 
nan

>  <Standardized_SMILES>  (361) 
CNC(=O)[C@@H]1CC[C@@H](NC(=O)c2ccc3[nH]nc(-c4ccnc(C)c4)c3c2)CN1Cc1c(F)cccc1OC

>  <Name>  (361) 
nan

>  <Pocket>  (361) 
nan

>  <ATP_Site>  (361) 
nan

>  <Peripheral>  (361) 
nan

>  <Num_H_Atoms_ProtBoundConf>  (361) 
nan

>  <Num_Resolved_Atoms>  (361) 
nan

>  <Num_Not_Resolved_Atoms>  (361) 
nan

$$$$
CHEMBL3658428
     RDKit          3D

  0  0  0  0  0  0  0  0  0  0999 V3000
M  V30 BEGIN CTAB
M  V30 COUNTS 76 80 0 0 0
M  V30 BEGIN ATOM
M  V30 1 C -1.113716 -8.284604 -0.571742 0
M  V30 2 N -1.141238 -7.336894 -1.678030 0
M  V30 3 C -1.488774 -5.951566 -1.676802 0
M  V30 4 S -1.896604 -5.457091 -0.174672 0
M  V30 5 N -1.502459 -5.060858 -2.782510 0
M  V30 6 N -1.879614 -3.730063 -2.540709 0
M  V30 7 C -0.661554 -3.064087 -2.241105 0
M  V30 8 O 0.580941 -3.051765 -2.080742 0
M  V30 9 C -0.323820 -1.632142 -1.882869 0 CFG=2
M  V30 10 C -0.685620 -0.836506 -3.099301 0
M  V30 11 C -0.151058 0.553231 -3.141817 0
M  V30 12 C 1.012408 0.784918 -2.234146 0 CFG=1
M  V30 13 N 0.575332 1.437997 -1.046321 0
M  V30 14 C 0.962894 2.658680 -0.432859 0
M  V30 15 O 1.855807 3.356499 -0.973530 0
M  V30 16 C 0.368836 3.143264 0.805346 0
M  V30 17 C 0.902969 4.305018 1.339017 0
M  V30 18 C 0.380287 4.825076 2.529872 0
M  V30 19 C -0.673516 4.178068 3.177690 0
M  V30 20 N -1.367572 4.427517 4.307959 0
M  V30 21 N -2.289924 3.492327 4.493417 0
M  V30 22 C -2.228576 2.599434 3.489000 0
M  V30 23 C -3.057814 1.403795 3.292247 0
M  V30 24 C -3.391812 0.422726 4.213128 0
M  V30 25 C -4.206239 -0.611513 3.793327 0
M  V30 26 N -4.688839 -0.715096 2.543293 0
M  V30 27 C -4.418193 0.187993 1.582430 0
M  V30 28 C -4.913918 0.144172 0.185830 0
M  V30 29 C -3.593818 1.233734 2.011635 0
M  V30 30 C -1.212076 3.021616 2.654273 0
M  V30 31 C -0.659097 2.553639 1.479583 0
M  V30 32 C 1.779773 -0.483516 -2.044630 0
M  V30 33 N 1.067417 -1.601232 -1.539669 0
M  V30 34 C 1.249578 -1.809140 -0.115538 0
M  V30 35 C 2.674616 -1.949608 0.276646 0
M  V30 36 C 3.437190 -3.085190 0.056040 0
M  V30 37 F 2.897616 -4.169088 -0.545102 0
M  V30 38 C 4.759911 -3.226404 0.414354 0
M  V30 39 C 5.401998 -2.175468 1.041480 0
M  V30 40 C 4.657121 -1.039112 1.268322 0
M  V30 41 C 3.333549 -0.887335 0.914483 0
M  V30 42 O 2.661090 0.295335 1.183533 0
M  V30 43 C 3.337869 1.351979 1.827832 0
M  V30 44 H -1.212284 -7.745846 0.408007 0
M  V30 45 H -0.134580 -8.830901 -0.533182 0
M  V30 46 H -1.899649 -9.048590 -0.675686 0
M  V30 47 H -0.848690 -7.837925 -2.561592 0
M  V30 48 H -1.245417 -5.377178 -3.727192 0
M  V30 49 H -2.600097 -2.976187 -2.470180 0
M  V30 50 H -0.953691 -1.385510 -1.029334 0
M  V30 51 H -0.370993 -1.386740 -4.027028 0
M  V30 52 H -1.812713 -0.867073 -3.156799 0
M  V30 53 H -0.987686 1.226340 -2.821113 0
M  V30 54 H 0.067990 0.884377 -4.197937 0
M  V30 55 H 1.729989 1.479327 -2.774939 0
M  V30 56 H -0.168475 0.843180 -0.621831 0
M  V30 57 H 1.728961 4.899010 0.916558 0
M  V30 58 H 0.788691 5.738284 2.966378 0
M  V30 59 H -1.151704 5.266483 4.904766 0
M  V30 60 H -2.968450 0.580507 5.182616 0
M  V30 61 H -4.438502 -1.348735 4.540322 0
M  V30 62 H -6.005589 0.394945 0.188806 0
M  V30 63 H -4.439861 0.965514 -0.389168 0
M  V30 64 H -4.768454 -0.808811 -0.320767 0
M  V30 65 H -3.374646 1.976681 1.237146 0
M  V30 66 H -1.038509 1.651182 1.025060 0
M  V30 67 H 2.130138 -0.775429 -3.081562 0
M  V30 68 H 2.722506 -0.337117 -1.481745 0
M  V30 69 H 0.691117 -2.729194 0.185442 0
M  V30 70 H 0.836469 -0.986979 0.502075 0
M  V30 71 H 5.322548 -4.130922 0.225495 0
M  V30 72 H 6.438510 -2.295258 1.319046 0
M  V30 73 H 5.236355 -0.253655 1.766114 0
M  V30 74 H 2.624985 2.089088 2.258750 0
M  V30 75 H 3.964893 1.016713 2.697081 0
M  V30 76 H 4.018087 1.911852 1.155201 0
M  V30 END ATOM
M  V30 BEGIN BOND
M  V30 1 1 1 2
M  V30 2 1 2 3
M  V30 3 2 3 4
M  V30 4 1 3 5
M  V30 5 1 5 6
M  V30 6 1 6 7
M  V30 7 2 7 8
M  V30 8 1 7 9
M  V30 9 1 9 10
M  V30 10 1 10 11
M  V30 11 1 11 12
M  V30 12 1 12 13
M  V30 13 1 13 14
M  V30 14 2 14 15
M  V30 15 1 14 16
M  V30 16 2 16 17
M  V30 17 1 17 18
M  V30 18 2 18 19
M  V30 19 1 19 20
M  V30 20 1 20 21
M  V30 21 2 21 22
M  V30 22 1 22 23
M  V30 23 2 23 24
M  V30 24 1 24 25
M  V30 25 2 25 26
M  V30 26 1 26 27
M  V30 27 1 27 28
M  V30 28 2 27 29
M  V30 29 1 22 30
M  V30 30 2 30 31
M  V30 31 1 12 32
M  V30 32 1 32 33
M  V30 33 1 33 34
M  V30 34 1 34 35
M  V30 35 2 35 36
M  V30 36 1 36 37
M  V30 37 1 36 38
M  V30 38 2 38 39
M  V30 39 1 39 40
M  V30 40 2 40 41
M  V30 41 1 41 42
M  V30 42 1 42 43
M  V30 43 1 33 9
M  V30 44 1 41 35
M  V30 45 1 31 16
M  V30 46 1 30 19
M  V30 47 1 29 23
M  V30 48 1 1 44
M  V30 49 1 1 45
M  V30 50 1 1 46
M  V30 51 1 2 47
M  V30 52 1 5 48
M  V30 53 1 6 49
M  V30 54 1 9 50 CFG=1
M  V30 55 1 10 51
M  V30 56 1 10 52
M  V30 57 1 11 53
M  V30 58 1 11 54
M  V30 59 1 12 55 CFG=3
M  V30 60 1 13 56
M  V30 61 1 17 57
M  V30 62 1 18 58
M  V30 63 1 20 59
M  V30 64 1 24 60
M  V30 65 1 25 61
M  V30 66 1 28 62
M  V30 67 1 28 63
M  V30 68 1 28 64
M  V30 69 1 29 65
M  V30 70 1 31 66
M  V30 71 1 32 67
M  V30 72 1 32 68
M  V30 73 1 34 69
M  V30 74 1 34 70
M  V30 75 1 38 71
M  V30 76 1 39 72
M  V30 77 1 40 73
M  V30 78 1 43 74
M  V30 79 1 43 75
M  V30 80 1 43 76
M  V30 END BOND
M  V30 END CTAB
M  END
>  <Dataset>  (362) 
ChEMBL_Kinases

>  <Ligand_Instance>  (362) 
nan

>  <PDB_ID>  (362) 
nan

>  <Standardized_SMILES>  (362) 
CNC(=S)NNC(=O)[C@@H]1CC[C@@H](NC(=O)c2ccc3[nH]nc(-c4ccnc(C)c4)c3c2)CN1Cc1c(F)cccc1OC

>  <Name>  (362) 
nan

>  <Pocket>  (362) 
nan

>  <ATP_Site>  (362) 
nan

>  <Peripheral>  (362) 
nan

>  <Num_H_Atoms_ProtBoundConf>  (362) 
nan

>  <Num_Resolved_Atoms>  (362) 
nan

>  <Num_Not_Resolved_Atoms>  (362) 
nan

$$$$
CHEMBL3658429
     RDKit          3D

  0  0  0  0  0  0  0  0  0  0999 V3000
M  V30 BEGIN CTAB
M  V30 COUNTS 69 73 0 0 0
M  V30 BEGIN ATOM
M  V30 1 C 2.529786 -3.533753 0.872114 0
M  V30 2 O 2.805081 -2.154994 0.756185 0
M  V30 3 C 3.293688 -1.494244 1.871915 0
M  V30 4 C 3.515222 -2.141085 3.067965 0
M  V30 5 C 4.005594 -1.465578 4.165044 0
M  V30 6 C 4.267169 -0.119457 4.025101 0
M  V30 7 C 4.032021 0.492172 2.812016 0
M  V30 8 F 4.340868 1.832753 2.827561 0
M  V30 9 C 3.538066 -0.157368 1.685662 0
M  V30 10 C 3.350908 0.713480 0.534899 0
M  V30 11 N 2.025870 1.217251 0.313857 0
M  V30 12 C 1.086192 0.219022 0.078977 0
M  V30 13 C -0.208871 0.897112 -0.422248 0 CFG=2
M  V30 14 N -1.314184 -0.019577 -0.433151 0
M  V30 15 C -2.547782 0.080276 0.267168 0
M  V30 16 O -2.802698 1.056301 1.018214 0
M  V30 17 C -3.579945 -0.943249 0.150684 0
M  V30 18 C -4.750419 -0.778210 0.857015 0
M  V30 19 C -5.762181 -1.736275 0.772021 0
M  V30 20 C -5.642759 -2.864133 -0.001979 0
M  V30 21 N -6.454116 -3.913911 -0.247757 0
M  V30 22 N -5.829236 -4.741903 -1.092043 0
M  V30 23 C -4.614905 -4.222421 -1.388593 0
M  V30 24 C -3.626391 -4.832498 -2.281692 0
M  V30 25 C -3.468445 -6.198622 -2.046208 0
M  V30 26 C -2.542515 -6.864848 -2.854830 0
M  V30 27 N -1.865738 -6.179580 -3.795281 0
M  V30 28 N -2.021252 -4.884869 -4.012036 0
M  V30 29 C -2.894343 -4.201242 -3.266189 0
M  V30 30 C -4.473715 -3.027814 -0.706658 0
M  V30 31 C -3.472560 -2.078330 -0.621717 0
M  V30 32 C 0.165341 1.360709 -1.815868 0
M  V30 33 C 1.167482 2.470923 -1.659757 0
M  V30 34 C 1.988315 2.420003 -0.435573 0 CFG=1
M  V30 35 C 1.612607 3.529717 0.479462 0
M  V30 36 O 1.531713 4.686339 -0.035577 0
M  V30 37 N 1.293228 3.705337 1.853753 0
M  V30 38 C 0.997909 5.088050 2.181414 0
M  V30 39 C 1.227899 2.717917 2.923973 0
M  V30 40 H 3.446212 -4.164565 0.929200 0
M  V30 41 H 1.932561 -3.777429 1.795674 0
M  V30 42 H 1.977404 -3.923058 -0.012435 0
M  V30 43 H 3.312369 -3.178605 3.170383 0
M  V30 44 H 4.175903 -1.981004 5.097968 0
M  V30 45 H 4.650708 0.387089 4.897411 0
M  V30 46 H 3.722261 0.162705 -0.390800 0
M  V30 47 H 4.023464 1.612616 0.554638 0
M  V30 48 H 1.369626 -0.443497 -0.747305 0
M  V30 49 H 0.864074 -0.306961 1.040844 0
M  V30 50 H -0.406033 1.753109 0.221277 0
M  V30 51 H -1.102279 -0.828909 -1.056056 0
M  V30 52 H -4.924617 0.071346 1.483363 0
M  V30 53 H -6.675258 -1.583257 1.338021 0
M  V30 54 H -7.392767 -3.976264 0.195207 0
M  V30 55 H -3.972622 -6.799622 -1.318229 0
M  V30 56 H -2.350393 -7.940628 -2.742988 0
M  V30 57 H -3.108306 -3.154502 -3.345562 0
M  V30 58 H -2.575282 -2.233240 -1.181215 0
M  V30 59 H 0.674358 0.508730 -2.317403 0
M  V30 60 H -0.708096 1.702438 -2.385326 0
M  V30 61 H 0.604765 3.425716 -1.751984 0
M  V30 62 H 1.803032 2.440737 -2.587909 0
M  V30 63 H 3.056731 2.647719 -0.725687 0
M  V30 64 H 1.518273 5.814838 1.560075 0
M  V30 65 H 1.405958 5.244785 3.224201 0
M  V30 66 H -0.092297 5.270047 2.298911 0
M  V30 67 H 1.893862 3.046077 3.747421 0
M  V30 68 H 1.391737 1.701233 2.577976 0
M  V30 69 H 0.190586 2.763177 3.336809 0
M  V30 END ATOM
M  V30 BEGIN BOND
M  V30 1 1 1 2
M  V30 2 1 2 3
M  V30 3 2 3 4
M  V30 4 1 4 5
M  V30 5 2 5 6
M  V30 6 1 6 7
M  V30 7 1 7 8
M  V30 8 2 7 9
M  V30 9 1 9 10
M  V30 10 1 10 11
M  V30 11 1 11 12
M  V30 12 1 12 13
M  V30 13 1 13 14
M  V30 14 1 14 15
M  V30 15 2 15 16
M  V30 16 1 15 17
M  V30 17 2 17 18
M  V30 18 1 18 19
M  V30 19 2 19 20
M  V30 20 1 20 21
M  V30 21 1 21 22
M  V30 22 2 22 23
M  V30 23 1 23 24
M  V30 24 2 24 25
M  V30 25 1 25 26
M  V30 26 2 26 27
M  V30 27 1 27 28
M  V30 28 2 28 29
M  V30 29 1 23 30
M  V30 30 2 30 31
M  V30 31 1 13 32
M  V30 32 1 32 33
M  V30 33 1 33 34
M  V30 34 1 34 35
M  V30 35 2 35 36
M  V30 36 1 35 37
M  V30 37 1 37 38
M  V30 38 1 37 39
M  V30 39 1 9 3
M  V30 40 1 34 11
M  V30 41 1 31 17
M  V30 42 1 30 20
M  V30 43 1 29 24
M  V30 44 1 1 40
M  V30 45 1 1 41
M  V30 46 1 1 42
M  V30 47 1 4 43
M  V30 48 1 5 44
M  V30 49 1 6 45
M  V30 50 1 10 46
M  V30 51 1 10 47
M  V30 52 1 12 48
M  V30 53 1 12 49
M  V30 54 1 13 50 CFG=1
M  V30 55 1 14 51
M  V30 56 1 18 52
M  V30 57 1 19 53
M  V30 58 1 21 54
M  V30 59 1 25 55
M  V30 60 1 26 56
M  V30 61 1 29 57
M  V30 62 1 31 58
M  V30 63 1 32 59
M  V30 64 1 32 60
M  V30 65 1 33 61
M  V30 66 1 33 62
M  V30 67 1 34 63 CFG=3
M  V30 68 1 38 64
M  V30 69 1 38 65
M  V30 70 1 38 66
M  V30 71 1 39 67
M  V30 72 1 39 68
M  V30 73 1 39 69
M  V30 END BOND
M  V30 END CTAB
M  END
>  <Dataset>  (363) 
ChEMBL_Kinases

>  <Ligand_Instance>  (363) 
nan

>  <PDB_ID>  (363) 
nan

>  <Standardized_SMILES>  (363) 
COc1cccc(F)c1CN1C[C@H](NC(=O)c2ccc3[nH]nc(-c4ccnnc4)c3c2)CC[C@H]1C(=O)N(C)C

>  <Name>  (363) 
nan

>  <Pocket>  (363) 
nan

>  <ATP_Site>  (363) 
nan

>  <Peripheral>  (363) 
nan

>  <Num_H_Atoms_ProtBoundConf>  (363) 
nan

>  <Num_Resolved_Atoms>  (363) 
nan

>  <Num_Not_Resolved_Atoms>  (363) 
nan

$$$$
CHEMBL3658430
     RDKit          3D

  0  0  0  0  0  0  0  0  0  0999 V3000
M  V30 BEGIN CTAB
M  V30 COUNTS 73 77 0 0 0
M  V30 BEGIN ATOM
M  V30 1 C 4.645267 -2.301791 3.337548 0
M  V30 2 O 3.619441 -1.459660 2.853450 0
M  V30 3 C 2.327250 -1.631328 3.284426 0
M  V30 4 C 2.014326 -2.617390 4.189275 0
M  V30 5 C 0.715431 -2.789058 4.623488 0
M  V30 6 C -0.264379 -1.954816 4.134668 0
M  V30 7 C 0.093614 -0.978023 3.227382 0
M  V30 8 F -0.921870 -0.171415 2.770201 0
M  V30 9 C 1.399347 -0.764703 2.756256 0
M  V30 10 C 1.589957 0.319375 1.788550 0
M  V30 11 N 1.738107 0.002521 0.441866 0
M  V30 12 C 1.828639 1.102336 -0.428033 0
M  V30 13 C 1.306084 0.844374 -1.817829 0 CFG=2
M  V30 14 N -0.134792 0.916536 -1.909027 0
M  V30 15 C -0.968080 1.632873 -2.795306 0
M  V30 16 O -0.469454 2.356505 -3.690787 0
M  V30 17 C -2.423301 1.572782 -2.721091 0
M  V30 18 C -3.150982 2.275668 -3.660286 0
M  V30 19 C -4.543016 2.264989 -3.645818 0
M  V30 20 C -5.240784 1.550171 -2.690535 0
M  V30 21 N -6.534698 1.314420 -2.370087 0
M  V30 22 N -6.616705 0.521758 -1.307796 0
M  V30 23 C -5.391075 0.186303 -0.863239 0
M  V30 24 C -5.053388 -0.660813 0.282343 0
M  V30 25 C -4.097890 -1.632906 0.120105 0
M  V30 26 C -3.718040 -2.464816 1.150675 0
M  V30 27 N -4.303701 -2.327160 2.376454 0
M  V30 28 C -5.249813 -1.373677 2.559986 0
M  V30 29 C -5.841506 -1.280317 3.919039 0
M  V30 30 C -5.637381 -0.540596 1.546444 0
M  V30 31 C -4.526083 0.844445 -1.747909 0
M  V30 32 C -3.153774 0.873105 -1.786152 0
M  V30 33 C 1.736364 -0.513327 -2.331666 0
M  V30 34 C 1.298428 -1.556696 -1.346552 0
M  V30 35 C 2.039873 -1.271109 -0.028469 0 CFG=1
M  V30 36 C 3.513008 -1.348409 -0.355468 0
M  V30 37 O 4.247149 -0.346570 -0.167193 0
M  V30 38 N 4.101883 -2.537123 -0.878110 0
M  V30 39 C 5.468907 -2.758773 -1.236262 0
M  V30 40 C 6.007037 -1.872716 -2.311818 0
M  V30 41 F 5.984855 -0.532642 -2.034887 0
M  V30 42 H 4.843235 -2.125858 4.412020 0
M  V30 43 H 5.538052 -2.129654 2.694823 0
M  V30 44 H 4.268396 -3.345462 3.192291 0
M  V30 45 H 2.777263 -3.274952 4.578107 0
M  V30 46 H 0.401659 -3.539106 5.329168 0
M  V30 47 H -1.302314 -2.047907 4.444705 0
M  V30 48 H 0.743160 1.069305 1.892533 0
M  V30 49 H 2.476752 0.955316 2.122926 0
M  V30 50 H 2.847485 1.481860 -0.502256 0
M  V30 51 H 1.236289 1.945889 0.034637 0
M  V30 52 H 1.756308 1.579071 -2.546906 0
M  V30 53 H -0.609021 0.336891 -1.184672 0
M  V30 54 H -2.732393 2.881349 -4.470344 0
M  V30 55 H -5.129898 2.818182 -4.384588 0
M  V30 56 H -7.303953 1.742253 -2.940866 0
M  V30 57 H -3.557240 -1.855160 -0.788027 0
M  V30 58 H -2.960577 -3.258574 1.081213 0
M  V30 59 H -5.333433 -0.436161 4.463090 0
M  V30 60 H -6.906399 -1.061206 3.814254 0
M  V30 61 H -5.663719 -2.191076 4.513323 0
M  V30 62 H -6.390591 0.222906 1.680717 0
M  V30 63 H -2.617012 0.320233 -1.042002 0
M  V30 64 H 1.287687 -0.726664 -3.329154 0
M  V30 65 H 2.848164 -0.591665 -2.389641 0
M  V30 66 H 1.545644 -2.588084 -1.677129 0
M  V30 67 H 0.223275 -1.484210 -1.182563 0
M  V30 68 H 1.826863 -2.120982 0.607227 0
M  V30 69 H 3.397751 -3.304109 -0.990407 0
M  V30 70 H 5.577037 -3.808892 -1.578182 0
M  V30 71 H 6.151280 -2.693041 -0.344865 0
M  V30 72 H 5.493260 -2.011578 -3.288211 0
M  V30 73 H 7.073469 -2.156862 -2.495933 0
M  V30 END ATOM
M  V30 BEGIN BOND
M  V30 1 1 1 2
M  V30 2 1 2 3
M  V30 3 2 3 4
M  V30 4 1 4 5
M  V30 5 2 5 6
M  V30 6 1 6 7
M  V30 7 1 7 8
M  V30 8 2 7 9
M  V30 9 1 9 10
M  V30 10 1 10 11
M  V30 11 1 11 12
M  V30 12 1 12 13
M  V30 13 1 13 14
M  V30 14 1 14 15
M  V30 15 2 15 16
M  V30 16 1 15 17
M  V30 17 2 17 18
M  V30 18 1 18 19
M  V30 19 2 19 20
M  V30 20 1 20 21
M  V30 21 1 21 22
M  V30 22 2 22 23
M  V30 23 1 23 24
M  V30 24 2 24 25
M  V30 25 1 25 26
M  V30 26 2 26 27
M  V30 27 1 27 28
M  V30 28 1 28 29
M  V30 29 2 28 30
M  V30 30 1 23 31
M  V30 31 2 31 32
M  V30 32 1 13 33
M  V30 33 1 33 34
M  V30 34 1 34 35
M  V30 35 1 35 36
M  V30 36 2 36 37
M  V30 37 1 36 38
M  V30 38 1 38 39
M  V30 39 1 39 40
M  V30 40 1 40 41
M  V30 41 1 9 3
M  V30 42 1 35 11
M  V30 43 1 32 17
M  V30 44 1 31 20
M  V30 45 1 30 24
M  V30 46 1 1 42
M  V30 47 1 1 43
M  V30 48 1 1 44
M  V30 49 1 4 45
M  V30 50 1 5 46
M  V30 51 1 6 47
M  V30 52 1 10 48
M  V30 53 1 10 49
M  V30 54 1 12 50
M  V30 55 1 12 51
M  V30 56 1 13 52 CFG=3
M  V30 57 1 14 53
M  V30 58 1 18 54
M  V30 59 1 19 55
M  V30 60 1 21 56
M  V30 61 1 25 57
M  V30 62 1 26 58
M  V30 63 1 29 59
M  V30 64 1 29 60
M  V30 65 1 29 61
M  V30 66 1 30 62
M  V30 67 1 32 63
M  V30 68 1 33 64
M  V30 69 1 33 65
M  V30 70 1 34 66
M  V30 71 1 34 67
M  V30 72 1 35 68 CFG=1
M  V30 73 1 38 69
M  V30 74 1 39 70
M  V30 75 1 39 71
M  V30 76 1 40 72
M  V30 77 1 40 73
M  V30 END BOND
M  V30 END CTAB
M  END
>  <Dataset>  (364) 
ChEMBL_Kinases

>  <Ligand_Instance>  (364) 
nan

>  <PDB_ID>  (364) 
nan

>  <Standardized_SMILES>  (364) 
COc1cccc(F)c1CN1C[C@H](NC(=O)c2ccc3[nH]nc(-c4ccnc(C)c4)c3c2)CC[C@H]1C(=O)NCCF

>  <Name>  (364) 
nan

>  <Pocket>  (364) 
nan

>  <ATP_Site>  (364) 
nan

>  <Peripheral>  (364) 
nan

>  <Num_H_Atoms_ProtBoundConf>  (364) 
nan

>  <Num_Resolved_Atoms>  (364) 
nan

>  <Num_Not_Resolved_Atoms>  (364) 
nan

$$$$
CHEMBL3658431
     RDKit          3D

  0  0  0  0  0  0  0  0  0  0999 V3000
M  V30 BEGIN CTAB
M  V30 COUNTS 73 77 0 0 0
M  V30 BEGIN ATOM
M  V30 1 C -0.791688 -3.941956 0.889885 0
M  V30 2 O 0.344097 -3.579481 0.170952 0
M  V30 3 C 1.623567 -4.017456 0.358807 0
M  V30 4 C 1.902056 -4.925852 1.352665 0
M  V30 5 C 3.169305 -5.380214 1.555779 0
M  V30 6 C 4.158810 -4.899944 0.733793 0
M  V30 7 C 3.847000 -3.994880 -0.246853 0
M  V30 8 F 4.927116 -3.594396 -0.995246 0
M  V30 9 C 2.557334 -3.498053 -0.493113 0
M  V30 10 C 2.479047 -2.524508 -1.584087 0
M  V30 11 N 2.459663 -1.146350 -1.210718 0
M  V30 12 C 1.337491 -0.757344 -0.512652 0
M  V30 13 C 1.072336 0.740470 -0.474164 0 CFG=2
M  V30 14 N -0.208665 0.890662 0.190598 0
M  V30 15 C -0.455429 1.709419 1.312010 0
M  V30 16 O 0.471474 2.388698 1.820877 0
M  V30 17 C -1.775156 1.812614 1.934064 0
M  V30 18 C -1.917320 2.645544 3.039437 0
M  V30 19 C -3.136074 2.789101 3.677115 0
M  V30 20 C -4.246480 2.105385 3.229173 0
M  V30 21 N -5.542010 2.017720 3.603403 0
M  V30 22 N -6.159076 1.183412 2.779853 0
M  V30 23 C -5.337778 0.691090 1.849897 0
M  V30 24 C -5.720049 -0.248935 0.801925 0
M  V30 25 C -4.910854 -1.333180 0.538787 0
M  V30 26 C -5.215630 -2.259023 -0.441205 0
M  V30 27 N -6.353565 -2.090626 -1.167969 0
M  V30 28 C -7.181136 -1.031064 -0.938697 0
M  V30 29 C -8.408498 -0.913836 -1.775323 0
M  V30 30 C -6.876376 -0.114955 0.033133 0
M  V30 31 C -4.110526 1.267977 2.120028 0
M  V30 32 C -2.876974 1.122372 1.474362 0
M  V30 33 C 0.988333 1.120515 -1.958652 0
M  V30 34 C 2.409627 0.983792 -2.456910 0
M  V30 35 C 3.068631 -0.306144 -2.144820 0 CFG=1
M  V30 36 C 4.456410 -0.016071 -1.651716 0
M  V30 37 O 5.158166 0.715267 -2.389582 0
M  V30 38 N 4.975401 -0.511647 -0.446096 0
M  V30 39 C 6.286213 -0.278183 0.092592 0
M  V30 40 C 6.597205 1.175923 0.353504 0
M  V30 41 F 5.710328 1.727394 1.255965 0
M  V30 42 F 7.840429 1.223639 1.004029 0
M  V30 43 F 6.727106 1.941316 -0.761723 0
M  V30 44 H -0.496843 -3.920357 1.973777 0
M  V30 45 H -1.590100 -3.175780 0.717112 0
M  V30 46 H -1.165973 -4.936606 0.609822 0
M  V30 47 H 1.080152 -5.265161 1.963439 0
M  V30 48 H 3.374517 -6.087303 2.331719 0
M  V30 49 H 5.158209 -5.265982 0.902261 0
M  V30 50 H 3.342380 -2.636901 -2.306170 0
M  V30 51 H 1.582248 -2.763219 -2.251616 0
M  V30 52 H 0.412754 -1.175522 -0.999799 0
M  V30 53 H 1.320103 -1.087149 0.539304 0
M  V30 54 H 1.885552 1.318186 -0.044065 0
M  V30 55 H -0.966223 0.320658 -0.243653 0
M  V30 56 H -1.112068 3.226978 3.473180 0
M  V30 57 H -3.268769 3.441013 4.549600 0
M  V30 58 H -5.901338 2.556244 4.419701 0
M  V30 59 H -3.996696 -1.552202 1.055199 0
M  V30 60 H -4.609333 -3.122589 -0.679907 0
M  V30 61 H -9.267741 -0.686124 -1.101572 0
M  V30 62 H -8.637982 -1.879548 -2.241577 0
M  V30 63 H -8.330628 -0.087036 -2.512418 0
M  V30 64 H -7.526730 0.734124 0.224831 0
M  V30 65 H -2.797257 0.476774 0.629636 0
M  V30 66 H 0.720687 2.193297 -2.076124 0
M  V30 67 H 0.302602 0.461796 -2.515792 0
M  V30 68 H 2.455652 1.206402 -3.557338 0
M  V30 69 H 2.971635 1.811348 -1.959095 0
M  V30 70 H 3.235249 -0.856289 -3.106367 0
M  V30 71 H 4.275394 -1.111222 0.068176 0
M  V30 72 H 7.096791 -0.745389 -0.508661 0
M  V30 73 H 6.350628 -0.786280 1.086419 0
M  V30 END ATOM
M  V30 BEGIN BOND
M  V30 1 1 1 2
M  V30 2 1 2 3
M  V30 3 2 3 4
M  V30 4 1 4 5
M  V30 5 2 5 6
M  V30 6 1 6 7
M  V30 7 1 7 8
M  V30 8 2 7 9
M  V30 9 1 9 10
M  V30 10 1 10 11
M  V30 11 1 11 12
M  V30 12 1 12 13
M  V30 13 1 13 14
M  V30 14 1 14 15
M  V30 15 2 15 16
M  V30 16 1 15 17
M  V30 17 2 17 18
M  V30 18 1 18 19
M  V30 19 2 19 20
M  V30 20 1 20 21
M  V30 21 1 21 22
M  V30 22 2 22 23
M  V30 23 1 23 24
M  V30 24 2 24 25
M  V30 25 1 25 26
M  V30 26 2 26 27
M  V30 27 1 27 28
M  V30 28 1 28 29
M  V30 29 2 28 30
M  V30 30 1 23 31
M  V30 31 2 31 32
M  V30 32 1 13 33
M  V30 33 1 33 34
M  V30 34 1 34 35
M  V30 35 1 35 36
M  V30 36 2 36 37
M  V30 37 1 36 38
M  V30 38 1 38 39
M  V30 39 1 39 40
M  V30 40 1 40 41
M  V30 41 1 40 42
M  V30 42 1 40 43
M  V30 43 1 9 3
M  V30 44 1 35 11
M  V30 45 1 32 17
M  V30 46 1 31 20
M  V30 47 1 30 24
M  V30 48 1 1 44
M  V30 49 1 1 45
M  V30 50 1 1 46
M  V30 51 1 4 47
M  V30 52 1 5 48
M  V30 53 1 6 49
M  V30 54 1 10 50
M  V30 55 1 10 51
M  V30 56 1 12 52
M  V30 57 1 12 53
M  V30 58 1 13 54 CFG=1
M  V30 59 1 14 55
M  V30 60 1 18 56
M  V30 61 1 19 57
M  V30 62 1 21 58
M  V30 63 1 25 59
M  V30 64 1 26 60
M  V30 65 1 29 61
M  V30 66 1 29 62
M  V30 67 1 29 63
M  V30 68 1 30 64
M  V30 69 1 32 65
M  V30 70 1 33 66
M  V30 71 1 33 67
M  V30 72 1 34 68
M  V30 73 1 34 69
M  V30 74 1 35 70 CFG=3
M  V30 75 1 38 71
M  V30 76 1 39 72
M  V30 77 1 39 73
M  V30 END BOND
M  V30 END CTAB
M  END
>  <Dataset>  (365) 
ChEMBL_Kinases

>  <Ligand_Instance>  (365) 
nan

>  <PDB_ID>  (365) 
nan

>  <Standardized_SMILES>  (365) 
COc1cccc(F)c1CN1C[C@H](NC(=O)c2ccc3[nH]nc(-c4ccnc(C)c4)c3c2)CC[C@H]1C(=O)NCC(F)(F)F

>  <Name>  (365) 
nan

>  <Pocket>  (365) 
nan

>  <ATP_Site>  (365) 
nan

>  <Peripheral>  (365) 
nan

>  <Num_H_Atoms_ProtBoundConf>  (365) 
nan

>  <Num_Resolved_Atoms>  (365) 
nan

>  <Num_Not_Resolved_Atoms>  (365) 
nan

$$$$
CHEMBL3658432
     RDKit          3D

  0  0  0  0  0  0  0  0  0  0999 V3000
M  V30 BEGIN CTAB
M  V30 COUNTS 75 79 0 0 0
M  V30 BEGIN ATOM
M  V30 1 C -1.437118 4.442949 -1.860810 0
M  V30 2 C -1.332457 3.866240 -3.216572 0
M  V30 3 N 0.008435 3.399232 -3.587866 0
M  V30 4 C 0.814875 4.465936 -4.192640 0
M  V30 5 C 1.603004 5.246119 -3.196127 0
M  V30 6 C 0.653635 2.112348 -3.460904 0
M  V30 7 O 1.852244 1.993543 -3.922921 0
M  V30 8 C 0.070175 0.881408 -2.846852 0 CFG=2
M  V30 9 C -0.652794 0.174348 -4.016627 0
M  V30 10 C -1.156351 -1.193393 -3.672195 0
M  V30 11 C -1.768798 -1.217523 -2.286973 0 CFG=1
M  V30 12 N -0.942646 -1.962634 -1.413350 0
M  V30 13 C -1.282377 -2.937638 -0.430720 0
M  V30 14 O -2.520952 -3.141353 -0.356322 0
M  V30 15 C -0.295460 -3.618358 0.393715 0
M  V30 16 C 1.058419 -3.443573 0.322122 0
M  V30 17 C 1.964487 -4.107399 1.125707 0
M  V30 18 C 1.480832 -4.997431 2.053963 0
M  V30 19 N 2.109310 -5.774155 2.957891 0
M  V30 20 N 1.156197 -6.446945 3.609876 0
M  V30 21 C -0.064838 -6.113198 3.138310 0
M  V30 22 C -1.304598 -6.668672 3.641185 0
M  V30 23 C -1.444825 -8.002900 3.873979 0
M  V30 24 C -2.631846 -8.519135 4.355146 0
M  V30 25 N -3.668429 -7.695212 4.599329 0
M  V30 26 N -3.591059 -6.380679 4.390867 0
M  V30 27 C -2.422353 -5.884210 3.918547 0
M  V30 28 C 0.108309 -5.179145 2.131957 0
M  V30 29 C -0.812542 -4.519773 1.331527 0
M  V30 30 C -1.970277 0.238860 -1.924822 0
M  V30 31 N -0.759822 0.996997 -1.763973 0
M  V30 32 C -0.390730 0.971858 -0.419757 0
M  V30 33 C 0.762744 1.674832 0.108204 0
M  V30 34 C 2.099156 1.367724 0.029039 0
M  V30 35 F 2.452565 0.232199 -0.608169 0
M  V30 36 C 3.151729 2.078755 0.559867 0
M  V30 37 C 2.867070 3.234021 1.256766 0
M  V30 38 C 1.551822 3.613412 1.384672 0
M  V30 39 C 0.563926 2.861439 0.833530 0
M  V30 40 O -0.707513 3.364788 1.048472 0
M  V30 41 C -1.034581 4.516633 1.743327 0
M  V30 42 H -2.136279 3.848224 -1.223957 0
M  V30 43 H -0.478331 4.677336 -1.354277 0
M  V30 44 H -1.951401 5.449551 -1.929123 0
M  V30 45 H -1.656481 4.617645 -3.971542 0
M  V30 46 H -2.062168 3.027599 -3.288913 0
M  V30 47 H 0.211232 5.159864 -4.783924 0
M  V30 48 H 1.528203 4.000949 -4.914016 0
M  V30 49 H 1.098637 6.144698 -2.810475 0
M  V30 50 H 2.524008 5.620914 -3.707200 0
M  V30 51 H 1.946924 4.553058 -2.403548 0
M  V30 52 H 0.913134 0.200397 -2.645063 0
M  V30 53 H -1.505134 0.783765 -4.364327 0
M  V30 54 H 0.030595 0.049542 -4.883688 0
M  V30 55 H -0.297249 -1.887827 -3.689148 0
M  V30 56 H -1.904761 -1.583877 -4.362894 0
M  V30 57 H -2.783424 -1.661753 -2.263320 0
M  V30 58 H 0.093982 -1.755481 -1.541206 0
M  V30 59 H 1.448930 -2.750204 -0.401853 0
M  V30 60 H 3.026593 -3.932311 1.027228 0
M  V30 61 H 3.138664 -5.845638 3.127454 0
M  V30 62 H -0.587707 -8.627937 3.664602 0
M  V30 63 H -2.663813 -9.583501 4.512996 0
M  V30 64 H -2.377780 -4.800419 3.753779 0
M  V30 65 H -1.872479 -4.679945 1.413067 0
M  V30 66 H -2.624318 0.739006 -2.682517 0
M  V30 67 H -2.499744 0.203999 -0.939071 0
M  V30 68 H -1.337086 1.314969 0.145035 0
M  V30 69 H -0.304935 -0.080376 0.012216 0
M  V30 70 H 4.176428 1.761967 0.447760 0
M  V30 71 H 3.677962 3.806090 1.680535 0
M  V30 72 H 1.399718 4.524833 1.942190 0
M  V30 73 H -2.069524 4.870597 1.556503 0
M  V30 74 H -0.383138 5.361697 1.428136 0
M  V30 75 H -0.926781 4.435422 2.844689 0
M  V30 END ATOM
M  V30 BEGIN BOND
M  V30 1 1 1 2
M  V30 2 1 2 3
M  V30 3 1 3 4
M  V30 4 1 4 5
M  V30 5 1 3 6
M  V30 6 2 6 7
M  V30 7 1 6 8
M  V30 8 1 8 9
M  V30 9 1 9 10
M  V30 10 1 10 11
M  V30 11 1 11 12
M  V30 12 1 12 13
M  V30 13 2 13 14
M  V30 14 1 13 15
M  V30 15 2 15 16
M  V30 16 1 16 17
M  V30 17 2 17 18
M  V30 18 1 18 19
M  V30 19 1 19 20
M  V30 20 2 20 21
M  V30 21 1 21 22
M  V30 22 2 22 23
M  V30 23 1 23 24
M  V30 24 2 24 25
M  V30 25 1 25 26
M  V30 26 2 26 27
M  V30 27 1 21 28
M  V30 28 2 28 29
M  V30 29 1 11 30
M  V30 30 1 30 31
M  V30 31 1 31 32
M  V30 32 1 32 33
M  V30 33 2 33 34
M  V30 34 1 34 35
M  V30 35 1 34 36
M  V30 36 2 36 37
M  V30 37 1 37 38
M  V30 38 2 38 39
M  V30 39 1 39 40
M  V30 40 1 40 41
M  V30 41 1 31 8
M  V30 42 1 39 33
M  V30 43 1 29 15
M  V30 44 1 28 18
M  V30 45 1 27 22
M  V30 46 1 1 42
M  V30 47 1 1 43
M  V30 48 1 1 44
M  V30 49 1 2 45
M  V30 50 1 2 46
M  V30 51 1 4 47
M  V30 52 1 4 48
M  V30 53 1 5 49
M  V30 54 1 5 50
M  V30 55 1 5 51
M  V30 56 1 8 52 CFG=1
M  V30 57 1 9 53
M  V30 58 1 9 54
M  V30 59 1 10 55
M  V30 60 1 10 56
M  V30 61 1 11 57 CFG=3
M  V30 62 1 12 58
M  V30 63 1 16 59
M  V30 64 1 17 60
M  V30 65 1 19 61
M  V30 66 1 23 62
M  V30 67 1 24 63
M  V30 68 1 27 64
M  V30 69 1 29 65
M  V30 70 1 30 66
M  V30 71 1 30 67
M  V30 72 1 32 68
M  V30 73 1 32 69
M  V30 74 1 36 70
M  V30 75 1 37 71
M  V30 76 1 38 72
M  V30 77 1 41 73
M  V30 78 1 41 74
M  V30 79 1 41 75
M  V30 END BOND
M  V30 END CTAB
M  END
>  <Dataset>  (366) 
ChEMBL_Kinases

>  <Ligand_Instance>  (366) 
nan

>  <PDB_ID>  (366) 
nan

>  <Standardized_SMILES>  (366) 
CCN(CC)C(=O)[C@@H]1CC[C@@H](NC(=O)c2ccc3[nH]nc(-c4ccnnc4)c3c2)CN1Cc1c(F)cccc1OC

>  <Name>  (366) 
nan

>  <Pocket>  (366) 
nan

>  <ATP_Site>  (366) 
nan

>  <Peripheral>  (366) 
nan

>  <Num_H_Atoms_ProtBoundConf>  (366) 
nan

>  <Num_Resolved_Atoms>  (366) 
nan

>  <Num_Not_Resolved_Atoms>  (366) 
nan

$$$$
CHEMBL3658433
     RDKit          3D

  0  0  0  0  0  0  0  0  0  0999 V3000
M  V30 BEGIN CTAB
M  V30 COUNTS 70 75 0 0 0
M  V30 BEGIN ATOM
M  V30 1 C 3.607497 -3.475242 -2.667021 0
M  V30 2 O 2.913385 -2.278213 -2.830768 0
M  V30 3 C 3.475605 -1.092085 -3.272482 0
M  V30 4 C 4.820771 -1.122132 -3.567995 0
M  V30 5 C 5.363996 0.066149 -4.008150 0
M  V30 6 C 4.650824 1.233823 -4.159508 0
M  V30 7 C 3.312817 1.141168 -3.832515 0
M  V30 8 F 2.555344 2.280008 -3.965565 0
M  V30 9 C 2.629261 0.001638 -3.373481 0
M  V30 10 C 1.208943 0.047773 -3.056370 0
M  V30 11 N 0.733303 0.141182 -1.778086 0
M  V30 12 C -0.713255 0.143699 -1.681167 0
M  V30 13 C -1.286447 -1.085128 -1.107427 0 CFG=2
M  V30 14 N -2.284400 -0.938513 -0.082290 0
M  V30 15 C -3.635596 -1.399951 -0.285936 0
M  V30 16 O -3.935484 -1.932519 -1.353413 0
M  V30 17 C -4.662255 -1.253186 0.737618 0
M  V30 18 C -5.915241 -1.727106 0.456389 0
M  V30 19 C -6.998919 -1.656855 1.315501 0
M  V30 20 C -6.797433 -1.066105 2.542565 0
M  V30 21 N -7.606643 -0.838948 3.578126 0
M  V30 22 N -6.921822 -0.224311 4.545031 0
M  V30 23 C -5.646569 -0.042256 4.146491 0
M  V30 24 C -4.576557 0.592612 4.905697 0
M  V30 25 C -4.716122 1.779688 5.600877 0
M  V30 26 C -3.656110 2.332712 6.306038 0
M  V30 27 N -2.438277 1.729909 6.341143 0
M  V30 28 N -2.301907 0.602497 5.681765 0
M  V30 29 C -3.302052 0.033533 4.987376 0
M  V30 30 C -5.528998 -0.572008 2.861411 0
M  V30 31 C -4.477255 -0.664557 1.971400 0
M  V30 32 C -0.305540 -2.142061 -0.656441 0
M  V30 33 C 1.002551 -1.660164 -0.146870 0
M  V30 34 C 1.306067 -0.276221 -0.597516 0 CFG=1
M  V30 35 C 2.715912 0.122250 -0.357220 0
M  V30 36 O 3.743549 0.771299 -0.641953 0
M  V30 37 N 3.513122 -0.387416 0.712587 0
M  V30 38 C 4.914353 -0.027249 0.996284 0
M  V30 39 C 4.737595 -0.505899 2.416390 0
M  V30 40 F 5.795866 -1.222465 2.876007 0
M  V30 41 F 4.417491 0.532367 3.253091 0
M  V30 42 C 3.557446 -1.279723 1.872120 0
M  V30 43 H 4.400365 -3.448422 -1.896576 0
M  V30 44 H 2.830839 -4.235177 -2.351621 0
M  V30 45 H 3.985352 -3.877018 -3.635280 0
M  V30 46 H 5.397680 -2.020979 -3.458706 0
M  V30 47 H 6.434185 0.114914 -4.261643 0
M  V30 48 H 5.044955 2.177101 -4.500378 0
M  V30 49 H 0.639451 -0.789478 -3.591073 0
M  V30 50 H 0.805004 0.943049 -3.637659 0
M  V30 51 H -1.066042 0.364736 -2.711679 0
M  V30 52 H -0.941869 1.086101 -1.141680 0
M  V30 53 H -1.833959 -1.595497 -1.943996 0
M  V30 54 H -2.016346 -0.487858 0.823676 0
M  V30 55 H -6.144602 -2.203722 -0.489978 0
M  V30 56 H -7.974765 -2.043620 1.056571 0
M  V30 57 H -8.613618 -1.111943 3.598259 0
M  V30 58 H -5.674333 2.271450 5.584067 0
M  V30 59 H -3.784054 3.265764 6.846811 0
M  V30 60 H -3.076462 -0.892682 4.485854 0
M  V30 61 H -3.504422 -0.290205 2.205630 0
M  V30 62 H -0.775314 -2.770136 0.148050 0
M  V30 63 H -0.081061 -2.908802 -1.449585 0
M  V30 64 H 0.982040 -1.660047 0.989324 0
M  V30 65 H 1.825465 -2.368678 -0.370663 0
M  V30 66 H 0.788028 0.376692 0.211906 0
M  V30 67 H 5.178760 1.015112 0.846958 0
M  V30 68 H 5.565732 -0.700313 0.400450 0
M  V30 69 H 2.725344 -1.216682 2.569740 0
M  V30 70 H 3.896604 -2.309976 1.609995 0
M  V30 END ATOM
M  V30 BEGIN BOND
M  V30 1 1 1 2
M  V30 2 1 2 3
M  V30 3 2 3 4
M  V30 4 1 4 5
M  V30 5 2 5 6
M  V30 6 1 6 7
M  V30 7 1 7 8
M  V30 8 2 7 9
M  V30 9 1 9 10
M  V30 10 1 10 11
M  V30 11 1 11 12
M  V30 12 1 12 13
M  V30 13 1 13 14
M  V30 14 1 14 15
M  V30 15 2 15 16
M  V30 16 1 15 17
M  V30 17 2 17 18
M  V30 18 1 18 19
M  V30 19 2 19 20
M  V30 20 1 20 21
M  V30 21 1 21 22
M  V30 22 2 22 23
M  V30 23 1 23 24
M  V30 24 2 24 25
M  V30 25 1 25 26
M  V30 26 2 26 27
M  V30 27 1 27 28
M  V30 28 2 28 29
M  V30 29 1 23 30
M  V30 30 2 30 31
M  V30 31 1 13 32
M  V30 32 1 32 33
M  V30 33 1 33 34
M  V30 34 1 34 35
M  V30 35 2 35 36
M  V30 36 1 35 37
M  V30 37 1 37 38
M  V30 38 1 38 39
M  V30 39 1 39 40
M  V30 40 1 39 41
M  V30 41 1 39 42
M  V30 42 1 9 3
M  V30 43 1 34 11
M  V30 44 1 42 37
M  V30 45 1 31 17
M  V30 46 1 30 20
M  V30 47 1 29 24
M  V30 48 1 1 43
M  V30 49 1 1 44
M  V30 50 1 1 45
M  V30 51 1 4 46
M  V30 52 1 5 47
M  V30 53 1 6 48
M  V30 54 1 10 49
M  V30 55 1 10 50
M  V30 56 1 12 51
M  V30 57 1 12 52
M  V30 58 1 13 53 CFG=3
M  V30 59 1 14 54
M  V30 60 1 18 55
M  V30 61 1 19 56
M  V30 62 1 21 57
M  V30 63 1 25 58
M  V30 64 1 26 59
M  V30 65 1 29 60
M  V30 66 1 31 61
M  V30 67 1 32 62
M  V30 68 1 32 63
M  V30 69 1 33 64
M  V30 70 1 33 65
M  V30 71 1 34 66 CFG=1
M  V30 72 1 38 67
M  V30 73 1 38 68
M  V30 74 1 42 69
M  V30 75 1 42 70
M  V30 END BOND
M  V30 END CTAB
M  END
>  <Dataset>  (367) 
ChEMBL_Kinases

>  <Ligand_Instance>  (367) 
nan

>  <PDB_ID>  (367) 
nan

>  <Standardized_SMILES>  (367) 
COc1cccc(F)c1CN1C[C@H](NC(=O)c2ccc3[nH]nc(-c4ccnnc4)c3c2)CC[C@H]1C(=O)N1CC(F)(F)C1

>  <Name>  (367) 
nan

>  <Pocket>  (367) 
nan

>  <ATP_Site>  (367) 
nan

>  <Peripheral>  (367) 
nan

>  <Num_H_Atoms_ProtBoundConf>  (367) 
nan

>  <Num_Resolved_Atoms>  (367) 
nan

>  <Num_Not_Resolved_Atoms>  (367) 
nan

$$$$
CHEMBL3658425
     RDKit          3D

  0  0  0  0  0  0  0  0  0  0999 V3000
M  V30 BEGIN CTAB
M  V30 COUNTS 79 84 0 0 0
M  V30 BEGIN ATOM
M  V30 1 C 0.037472 -0.880798 3.549066 0
M  V30 2 O 0.952844 -0.591670 2.541146 0
M  V30 3 C 2.153596 -1.264561 2.387085 0
M  V30 4 C 2.427670 -2.261271 3.291405 0
M  V30 5 C 3.597776 -2.969779 3.210479 0
M  V30 6 C 4.477522 -2.654420 2.207678 0
M  V30 7 C 4.144457 -1.644392 1.331584 0
M  V30 8 F 5.153331 -1.460055 0.416833 0
M  V30 9 C 2.967188 -0.880834 1.354213 0
M  V30 10 C 2.784175 0.146341 0.318442 0
M  V30 11 N 1.961017 -0.153496 -0.791318 0
M  V30 12 C 0.558277 -0.392125 -0.534200 0
M  V30 13 C -0.073076 0.893276 -0.122446 0 CFG=2
M  V30 14 N -1.398636 0.770011 0.440286 0
M  V30 15 C -1.986394 1.391443 1.541066 0
M  V30 16 O -1.315304 2.225824 2.223191 0
M  V30 17 C -3.341950 1.156932 1.985416 0
M  V30 18 C -3.820147 1.862025 3.089634 0
M  V30 19 C -5.123383 1.658603 3.546588 0
M  V30 20 C -5.988471 0.768415 2.943185 0
M  V30 21 N -7.249336 0.343472 3.111739 0
M  V30 22 N -7.579393 -0.563113 2.201044 0
M  V30 23 C -6.523288 -0.780050 1.372138 0
M  V30 24 C -6.493052 -1.708006 0.242480 0
M  V30 25 C -7.533038 -1.773422 -0.656260 0
M  V30 26 C -7.377353 -2.695412 -1.675918 0
M  V30 27 N -6.342343 -3.503031 -1.862375 0
M  V30 28 C -5.302991 -3.457434 -0.988713 0
M  V30 29 C -4.097270 -4.338035 -1.131290 0
M  V30 30 C -5.395415 -2.546327 0.067162 0
M  V30 31 C -5.515256 0.067278 1.846598 0
M  V30 32 C -4.216987 0.270853 1.392221 0
M  V30 33 C -0.132673 1.759256 -1.398707 0
M  V30 34 C 1.324106 2.022362 -1.739962 0
M  V30 35 C 2.084533 0.750286 -1.898892 0 CFG=1
M  V30 36 C 3.395814 0.967798 -2.460045 0
M  V30 37 O 3.714297 2.182501 -2.725269 0
M  V30 38 N 4.398293 0.014065 -2.770249 0
M  V30 39 C 4.239559 -1.417674 -2.600117 0
M  V30 40 C 5.503925 -2.190502 -2.694521 0
M  V30 41 N 6.692948 -1.580684 -2.243589 0
M  V30 42 C 6.748792 -0.152137 -2.382937 0
M  V30 43 C 5.692272 0.393324 -3.300024 0
M  V30 44 H 0.526015 -0.973285 4.545637 0
M  V30 45 H -0.651104 -0.006610 3.656787 0
M  V30 46 H -0.633335 -1.755289 3.324051 0
M  V30 47 H 1.734682 -2.511321 4.079196 0
M  V30 48 H 3.782041 -3.746496 3.936221 0
M  V30 49 H 5.378224 -3.236908 2.187568 0
M  V30 50 H 3.810575 0.452473 -0.043919 0
M  V30 51 H 2.471171 1.077452 0.893157 0
M  V30 52 H 0.146609 -0.659419 -1.576078 0
M  V30 53 H 0.338337 -1.273893 0.050249 0
M  V30 54 H 0.560304 1.487334 0.556290 0
M  V30 55 H -1.942210 0.080039 -0.133875 0
M  V30 56 H -3.221278 2.592914 3.644512 0
M  V30 57 H -5.515568 2.197771 4.404833 0
M  V30 58 H -7.812279 0.750017 3.903204 0
M  V30 59 H -8.410098 -1.142900 -0.564389 0
M  V30 60 H -8.170815 -2.796866 -2.425362 0
M  V30 61 H -3.979095 -4.652815 -2.182855 0
M  V30 62 H -4.241658 -5.221401 -0.500091 0
M  V30 63 H -3.214019 -3.757727 -0.781568 0
M  V30 64 H -4.556043 -2.545072 0.729744 0
M  V30 65 H -3.834299 -0.268363 0.537479 0
M  V30 66 H -0.617972 2.718969 -1.228828 0
M  V30 67 H -0.545817 1.138645 -2.209578 0
M  V30 68 H 1.756266 2.629147 -0.928648 0
M  V30 69 H 1.381369 2.611689 -2.672219 0
M  V30 70 H 1.495435 0.197088 -2.733361 0
M  V30 71 H 3.597260 -1.680264 -1.748090 0
M  V30 72 H 3.627240 -1.730371 -3.509240 0
M  V30 73 H 5.354378 -3.121479 -2.071482 0
M  V30 74 H 5.694810 -2.599290 -3.725135 0
M  V30 75 H 7.111734 -1.940155 -1.379171 0
M  V30 76 H 6.649458 0.314865 -1.365637 0
M  V30 77 H 7.769944 0.113916 -2.732987 0
M  V30 78 H 5.851548 0.007678 -4.321142 0
M  V30 79 H 5.824532 1.488805 -3.345316 0
M  V30 END ATOM
M  V30 BEGIN BOND
M  V30 1 1 1 2
M  V30 2 1 2 3
M  V30 3 2 3 4
M  V30 4 1 4 5
M  V30 5 2 5 6
M  V30 6 1 6 7
M  V30 7 1 7 8
M  V30 8 2 7 9
M  V30 9 1 9 10
M  V30 10 1 10 11
M  V30 11 1 11 12
M  V30 12 1 12 13
M  V30 13 1 13 14
M  V30 14 1 14 15
M  V30 15 2 15 16
M  V30 16 1 15 17
M  V30 17 2 17 18
M  V30 18 1 18 19
M  V30 19 2 19 20
M  V30 20 1 20 21
M  V30 21 1 21 22
M  V30 22 2 22 23
M  V30 23 1 23 24
M  V30 24 2 24 25
M  V30 25 1 25 26
M  V30 26 2 26 27
M  V30 27 1 27 28
M  V30 28 1 28 29
M  V30 29 2 28 30
M  V30 30 1 23 31
M  V30 31 2 31 32
M  V30 32 1 13 33
M  V30 33 1 33 34
M  V30 34 1 34 35
M  V30 35 1 35 36
M  V30 36 2 36 37
M  V30 37 1 36 38
M  V30 38 1 38 39
M  V30 39 1 39 40
M  V30 40 1 40 41
M  V30 41 1 41 42
M  V30 42 1 42 43
M  V30 43 1 9 3
M  V30 44 1 35 11
M  V30 45 1 43 38
M  V30 46 1 32 17
M  V30 47 1 31 20
M  V30 48 1 30 24
M  V30 49 1 1 44
M  V30 50 1 1 45
M  V30 51 1 1 46
M  V30 52 1 4 47
M  V30 53 1 5 48
M  V30 54 1 6 49
M  V30 55 1 10 50
M  V30 56 1 10 51
M  V30 57 1 12 52
M  V30 58 1 12 53
M  V30 59 1 13 54 CFG=1
M  V30 60 1 14 55
M  V30 61 1 18 56
M  V30 62 1 19 57
M  V30 63 1 21 58
M  V30 64 1 25 59
M  V30 65 1 26 60
M  V30 66 1 29 61
M  V30 67 1 29 62
M  V30 68 1 29 63
M  V30 69 1 30 64
M  V30 70 1 32 65
M  V30 71 1 33 66
M  V30 72 1 33 67
M  V30 73 1 34 68
M  V30 74 1 34 69
M  V30 75 1 35 70 CFG=3
M  V30 76 1 39 71
M  V30 77 1 39 72
M  V30 78 1 40 73
M  V30 79 1 40 74
M  V30 80 1 41 75
M  V30 81 1 42 76
M  V30 82 1 42 77
M  V30 83 1 43 78
M  V30 84 1 43 79
M  V30 END BOND
M  V30 END CTAB
M  END
>  <Dataset>  (368) 
ChEMBL_Kinases

>  <Ligand_Instance>  (368) 
nan

>  <PDB_ID>  (368) 
nan

>  <Standardized_SMILES>  (368) 
COc1cccc(F)c1CN1C[C@H](NC(=O)c2ccc3[nH]nc(-c4ccnc(C)c4)c3c2)CC[C@H]1C(=O)N1CCNCC1

>  <Name>  (368) 
nan

>  <Pocket>  (368) 
nan

>  <ATP_Site>  (368) 
nan

>  <Peripheral>  (368) 
nan

>  <Num_H_Atoms_ProtBoundConf>  (368) 
nan

>  <Num_Resolved_Atoms>  (368) 
nan

>  <Num_Not_Resolved_Atoms>  (368) 
nan

$$$$
CHEMBL3654859
     RDKit          3D

  0  0  0  0  0  0  0  0  0  0999 V3000
M  V30 BEGIN CTAB
M  V30 COUNTS 49 52 0 0 0
M  V30 BEGIN ATOM
M  V30 1 C 1.435859 -7.197638 2.417502 0
M  V30 2 C 0.936742 -7.085845 1.016471 0
M  V30 3 C 0.957891 -5.868001 0.365299 0
M  V30 4 C 0.489475 -5.793055 -0.931784 0
M  V30 5 C 0.471997 -4.549670 -1.700193 0
M  V30 6 N 0.862822 -4.385327 -2.984891 0
M  V30 7 N 0.711163 -3.118150 -3.365760 0
M  V30 8 C 0.209681 -2.472635 -2.283170 0
M  V30 9 C -0.116766 -1.134876 -2.184849 0
M  V30 10 C -0.617908 -0.680032 -0.977549 0
M  V30 11 N -1.022712 0.641932 -0.632864 0
M  V30 12 C -0.019976 1.505934 -0.080747 0
M  V30 13 O 1.172024 1.194001 0.120741 0
M  V30 14 N -0.442731 2.818101 0.255919 0
M  V30 15 C 0.353747 3.886491 0.824219 0 CFG=1
M  V30 16 C 0.395313 5.117991 -0.021361 0
M  V30 17 C -0.131180 4.261052 2.177298 0
M  V30 18 C -0.337023 5.514747 2.709121 0
M  V30 19 C -0.799817 5.625942 4.009942 0
M  V30 20 C -1.053135 4.501487 4.767991 0
M  V30 21 C -1.532111 4.654247 6.112655 0
M  V30 22 N -1.921849 4.778313 7.191645 0
M  V30 23 C -0.851864 3.223884 4.249993 0
M  V30 24 C -0.386903 3.125334 2.942569 0
M  V30 25 N -0.777409 -1.539240 0.070021 0
M  V30 26 C -0.458745 -2.849524 -0.023018 0
M  V30 27 C 0.042990 -3.330307 -1.214903 0
M  V30 28 C 0.005810 -6.917945 -1.572416 0
M  V30 29 C 0.011285 -8.114603 -0.862333 0
M  V30 30 N 0.466531 -8.215039 0.414349 0
M  V30 31 H 2.372113 -6.577135 2.475270 0
M  V30 32 H 1.636220 -8.252977 2.679353 0
M  V30 33 H 0.701809 -6.694693 3.080336 0
M  V30 34 H 1.333520 -4.979859 0.853740 0
M  V30 35 H 0.935329 -2.717983 -4.304880 0
M  V30 36 H -0.033517 -0.368210 -2.941907 0
M  V30 37 H -2.013851 0.952750 -0.782928 0
M  V30 38 H -1.403319 3.215738 0.143258 0
M  V30 39 H 1.389652 3.522976 0.967620 0
M  V30 40 H 0.751094 4.940073 -1.049323 0
M  V30 41 H -0.585352 5.666258 -0.004686 0
M  V30 42 H 1.124524 5.807735 0.451971 0
M  V30 43 H -0.099632 6.296032 2.009314 0
M  V30 44 H -0.936353 6.633362 4.355884 0
M  V30 45 H -1.064688 2.373848 4.883283 0
M  V30 46 H -0.263284 2.087095 2.634364 0
M  V30 47 H -0.580784 -3.535677 0.796961 0
M  V30 48 H -0.384464 -6.984713 -2.578099 0
M  V30 49 H -0.339316 -9.089640 -1.233828 0
M  V30 END ATOM
M  V30 BEGIN BOND
M  V30 1 1 1 2
M  V30 2 2 2 3
M  V30 3 1 3 4
M  V30 4 1 4 5
M  V30 5 2 5 6
M  V30 6 1 6 7
M  V30 7 1 7 8
M  V30 8 2 8 9
M  V30 9 1 9 10
M  V30 10 1 10 11
M  V30 11 1 11 12
M  V30 12 2 12 13
M  V30 13 1 12 14
M  V30 14 1 14 15
M  V30 15 1 15 16
M  V30 16 1 15 17
M  V30 17 2 17 18
M  V30 18 1 18 19
M  V30 19 2 19 20
M  V30 20 1 20 21
M  V30 21 3 21 22
M  V30 22 1 20 23
M  V30 23 2 23 24
M  V30 24 2 10 25
M  V30 25 1 25 26
M  V30 26 2 26 27
M  V30 27 2 4 28
M  V30 28 1 28 29
M  V30 29 2 29 30
M  V30 30 1 30 2
M  V30 31 1 27 5
M  V30 32 1 27 8
M  V30 33 1 24 17
M  V30 34 1 1 31
M  V30 35 1 1 32
M  V30 36 1 1 33
M  V30 37 1 3 34
M  V30 38 1 7 35
M  V30 39 1 9 36
M  V30 40 1 11 37
M  V30 41 1 14 38
M  V30 42 1 15 39 CFG=1
M  V30 43 1 16 40
M  V30 44 1 16 41
M  V30 45 1 16 42
M  V30 46 1 18 43
M  V30 47 1 19 44
M  V30 48 1 23 45
M  V30 49 1 24 46
M  V30 50 1 26 47
M  V30 51 1 28 48
M  V30 52 1 29 49
M  V30 END BOND
M  V30 END CTAB
M  END
>  <Dataset>  (369) 
ChEMBL_Kinases

>  <Ligand_Instance>  (369) 
nan

>  <PDB_ID>  (369) 
nan

>  <Standardized_SMILES>  (369) 
Cc1cc(-c2n[nH]c3cc(NC(=O)N[C@@H](C)c4ccc(C#N)cc4)ncc23)ccn1

>  <Name>  (369) 
nan

>  <Pocket>  (369) 
nan

>  <ATP_Site>  (369) 
nan

>  <Peripheral>  (369) 
nan

>  <Num_H_Atoms_ProtBoundConf>  (369) 
nan

>  <Num_Resolved_Atoms>  (369) 
nan

>  <Num_Not_Resolved_Atoms>  (369) 
nan

$$$$
CHEMBL3654858
     RDKit          3D

  0  0  0  0  0  0  0  0  0  0999 V3000
M  V30 BEGIN CTAB
M  V30 COUNTS 47 50 0 0 0
M  V30 BEGIN ATOM
M  V30 1 C 6.645432 -3.482762 -3.541474 0
M  V30 2 C 5.293754 -3.723914 -2.973280 0
M  V30 3 C 4.961336 -3.321830 -1.692047 0
M  V30 4 C 3.696567 -3.553496 -1.175307 0
M  V30 5 C 3.304071 -3.146000 0.171069 0
M  V30 6 N 4.033998 -3.311942 1.304957 0
M  V30 7 N 3.376848 -2.825066 2.358238 0
M  V30 8 C 2.210307 -2.338264 1.908033 0
M  V30 9 C 1.177838 -1.730982 2.593860 0
M  V30 10 C 0.063171 -1.308632 1.900557 0
M  V30 11 N -1.095888 -0.667684 2.419811 0
M  V30 12 C -1.295625 0.746110 2.563298 0
M  V30 13 O -0.340765 1.473515 2.187569 0
M  V30 14 N -2.533595 1.125051 3.105211 0
M  V30 15 C -2.859869 2.526660 3.301971 0 CFG=2
M  V30 16 C -3.083362 2.850470 4.752675 0
M  V30 17 C -4.021956 2.934877 2.469185 0
M  V30 18 N -5.074754 2.109545 2.210743 0
M  V30 19 C -6.120387 2.460694 1.468073 0
M  V30 20 C -6.199298 3.701460 0.908025 0
M  V30 21 C -5.176129 4.605662 1.116817 0
M  V30 22 C -4.119975 4.192331 1.891302 0
M  V30 23 F -3.089678 5.057005 2.120578 0
M  V30 24 N 0.016883 -1.504908 0.557685 0
M  V30 25 C 1.022436 -2.097718 -0.118610 0
M  V30 26 C 2.130232 -2.521997 0.542553 0
M  V30 27 C 2.794683 -4.198754 -1.994525 0
M  V30 28 C 3.135974 -4.595295 -3.269693 0
M  V30 29 N 4.384714 -4.361623 -3.767656 0
M  V30 30 H 6.705993 -2.542652 -4.115768 0
M  V30 31 H 6.909061 -4.381289 -4.144374 0
M  V30 32 H 7.367251 -3.461685 -2.692839 0
M  V30 33 H 5.690254 -2.812644 -1.060415 0
M  V30 34 H 3.723621 -2.829973 3.351280 0
M  V30 35 H 1.147069 -1.543705 3.654049 0
M  V30 36 H -1.744286 -1.445395 2.663192 0
M  V30 37 H -3.256226 0.446735 3.384265 0
M  V30 38 H -1.996456 3.153478 2.960921 0
M  V30 39 H -3.692238 2.080658 5.266644 0
M  V30 40 H -2.092021 2.865977 5.261816 0
M  V30 41 H -3.524620 3.853706 4.826272 0
M  V30 42 H -6.915769 1.722357 1.320476 0
M  V30 43 H -7.031672 4.021129 0.300160 0
M  V30 44 H -5.178763 5.613944 0.696809 0
M  V30 45 H 0.958024 -2.240837 -1.188261 0
M  V30 46 H 1.795074 -4.429977 -1.705186 0
M  V30 47 H 2.488826 -5.106612 -3.977062 0
M  V30 END ATOM
M  V30 BEGIN BOND
M  V30 1 1 1 2
M  V30 2 2 2 3
M  V30 3 1 3 4
M  V30 4 1 4 5
M  V30 5 2 5 6
M  V30 6 1 6 7
M  V30 7 1 7 8
M  V30 8 2 8 9
M  V30 9 1 9 10
M  V30 10 1 10 11
M  V30 11 1 11 12
M  V30 12 2 12 13
M  V30 13 1 12 14
M  V30 14 1 14 15
M  V30 15 1 15 16
M  V30 16 1 15 17
M  V30 17 2 17 18
M  V30 18 1 18 19
M  V30 19 2 19 20
M  V30 20 1 20 21
M  V30 21 2 21 22
M  V30 22 1 22 23
M  V30 23 2 10 24
M  V30 24 1 24 25
M  V30 25 2 25 26
M  V30 26 2 4 27
M  V30 27 1 27 28
M  V30 28 2 28 29
M  V30 29 1 29 2
M  V30 30 1 26 5
M  V30 31 1 26 8
M  V30 32 1 22 17
M  V30 33 1 1 30
M  V30 34 1 1 31
M  V30 35 1 1 32
M  V30 36 1 3 33
M  V30 37 1 7 34
M  V30 38 1 9 35
M  V30 39 1 11 36
M  V30 40 1 14 37
M  V30 41 1 15 38 CFG=3
M  V30 42 1 16 39
M  V30 43 1 16 40
M  V30 44 1 16 41
M  V30 45 1 19 42
M  V30 46 1 20 43
M  V30 47 1 21 44
M  V30 48 1 25 45
M  V30 49 1 27 46
M  V30 50 1 28 47
M  V30 END BOND
M  V30 END CTAB
M  END
>  <Dataset>  (370) 
ChEMBL_Kinases

>  <Ligand_Instance>  (370) 
nan

>  <PDB_ID>  (370) 
nan

>  <Standardized_SMILES>  (370) 
Cc1cc(-c2n[nH]c3cc(NC(=O)N[C@H](C)c4ncccc4F)ncc23)ccn1

>  <Name>  (370) 
nan

>  <Pocket>  (370) 
nan

>  <ATP_Site>  (370) 
nan

>  <Peripheral>  (370) 
nan

>  <Num_H_Atoms_ProtBoundConf>  (370) 
nan

>  <Num_Resolved_Atoms>  (370) 
nan

>  <Num_Not_Resolved_Atoms>  (370) 
nan

$$$$
CHEMBL3654857
     RDKit          3D

  0  0  0  0  0  0  0  0  0  0999 V3000
M  V30 BEGIN CTAB
M  V30 COUNTS 51 54 0 0 0
M  V30 BEGIN ATOM
M  V30 1 C 1.910109 -4.652900 5.011058 0
M  V30 2 O 1.852778 -3.415885 4.329759 0
M  V30 3 C 2.754640 -2.420834 4.640625 0
M  V30 4 C 3.749495 -2.545791 5.605572 0
M  V30 5 C 4.597029 -1.471035 5.826665 0
M  V30 6 N 4.529518 -0.300800 5.170118 0
M  V30 7 C 3.561396 -0.179845 4.231427 0
M  V30 8 C 3.357762 1.063523 3.414345 0 CFG=1
M  V30 9 C 4.482145 2.035890 3.551924 0
M  V30 10 N 3.157568 0.682884 2.008529 0
M  V30 11 C 1.916877 0.903615 1.381927 0
M  V30 12 O 0.882709 1.414010 1.882716 0
M  V30 13 N 1.816548 0.507572 0.033958 0
M  V30 14 C 0.682345 0.619996 -0.818949 0
M  V30 15 C 0.326639 1.654438 -1.641314 0
M  V30 16 C -0.836505 1.503706 -2.368261 0
M  V30 17 N -1.392992 2.369024 -3.236646 0
M  V30 18 N -2.509952 1.814227 -3.707020 0
M  V30 19 C -2.694375 0.585377 -3.153135 0
M  V30 20 C -3.784710 -0.351588 -3.392732 0
M  V30 21 C -4.249468 -0.639140 -4.656780 0
M  V30 22 C -5.289636 -1.532807 -4.887305 0
M  V30 23 N -5.881834 -2.154946 -3.840883 0
M  V30 24 C -5.471200 -1.915936 -2.567626 0
M  V30 25 C -6.128617 -2.604444 -1.428236 0
M  V30 26 C -4.437862 -1.023917 -2.382453 0
M  V30 27 C -1.631683 0.379031 -2.297896 0
M  V30 28 C -1.225652 -0.631639 -1.453657 0
M  V30 29 N -0.093778 -0.491258 -0.742756 0
M  V30 30 C 2.680793 -1.205294 3.955287 0
M  V30 31 H 2.752024 -5.225569 4.580022 0
M  V30 32 H 0.930122 -5.141729 4.827236 0
M  V30 33 H 2.027447 -4.433108 6.087693 0
M  V30 34 H 3.828336 -3.476836 6.150697 0
M  V30 35 H 5.338572 -1.637696 6.583322 0
M  V30 36 H 2.386671 1.501265 3.754389 0
M  V30 37 H 4.941763 1.954353 4.557875 0
M  V30 38 H 4.109164 3.077975 3.413867 0
M  V30 39 H 5.265478 1.858114 2.779055 0
M  V30 40 H 3.964661 0.252787 1.518109 0
M  V30 41 H 2.593724 0.071263 -0.507709 0
M  V30 42 H 0.996345 2.477798 -1.631797 0
M  V30 43 H -1.013368 3.316563 -3.498265 0
M  V30 44 H -3.796676 -0.157999 -5.513524 0
M  V30 45 H -5.659867 -1.763340 -5.879091 0
M  V30 46 H -5.463005 -3.388862 -1.010642 0
M  V30 47 H -6.405971 -1.848838 -0.639516 0
M  V30 48 H -7.089650 -3.048948 -1.775754 0
M  V30 49 H -4.147465 -0.866939 -1.356879 0
M  V30 50 H -1.841453 -1.531529 -1.383099 0
M  V30 51 H 1.900762 -1.110666 3.200410 0
M  V30 END ATOM
M  V30 BEGIN BOND
M  V30 1 1 1 2
M  V30 2 1 2 3
M  V30 3 2 3 4
M  V30 4 1 4 5
M  V30 5 2 5 6
M  V30 6 1 6 7
M  V30 7 1 7 8
M  V30 8 1 8 9
M  V30 9 1 8 10
M  V30 10 1 10 11
M  V30 11 2 11 12
M  V30 12 1 11 13
M  V30 13 1 13 14
M  V30 14 2 14 15
M  V30 15 1 15 16
M  V30 16 1 16 17
M  V30 17 1 17 18
M  V30 18 2 18 19
M  V30 19 1 19 20
M  V30 20 2 20 21
M  V30 21 1 21 22
M  V30 22 2 22 23
M  V30 23 1 23 24
M  V30 24 1 24 25
M  V30 25 2 24 26
M  V30 26 1 19 27
M  V30 27 1 27 28
M  V30 28 2 28 29
M  V30 29 2 7 30
M  V30 30 1 30 3
M  V30 31 1 29 14
M  V30 32 2 27 16
M  V30 33 1 26 20
M  V30 34 1 1 31
M  V30 35 1 1 32
M  V30 36 1 1 33
M  V30 37 1 4 34
M  V30 38 1 5 35
M  V30 39 1 8 36 CFG=1
M  V30 40 1 9 37
M  V30 41 1 9 38
M  V30 42 1 9 39
M  V30 43 1 10 40
M  V30 44 1 13 41
M  V30 45 1 15 42
M  V30 46 1 17 43
M  V30 47 1 21 44
M  V30 48 1 22 45
M  V30 49 1 25 46
M  V30 50 1 25 47
M  V30 51 1 25 48
M  V30 52 1 26 49
M  V30 53 1 28 50
M  V30 54 1 30 51
M  V30 END BOND
M  V30 END CTAB
M  END
>  <Dataset>  (371) 
ChEMBL_Kinases

>  <Ligand_Instance>  (371) 
nan

>  <PDB_ID>  (371) 
nan

>  <Standardized_SMILES>  (371) 
COc1ccnc([C@@H](C)NC(=O)Nc2cc3[nH]nc(-c4ccnc(C)c4)c3cn2)c1

>  <Name>  (371) 
nan

>  <Pocket>  (371) 
nan

>  <ATP_Site>  (371) 
nan

>  <Peripheral>  (371) 
nan

>  <Num_H_Atoms_ProtBoundConf>  (371) 
nan

>  <Num_Resolved_Atoms>  (371) 
nan

>  <Num_Not_Resolved_Atoms>  (371) 
nan

$$$$
CHEMBL3654856
     RDKit          3D

  0  0  0  0  0  0  0  0  0  0999 V3000
M  V30 BEGIN CTAB
M  V30 COUNTS 47 50 0 0 0
M  V30 BEGIN ATOM
M  V30 1 C -1.931175 -7.876563 1.292200 0
M  V30 2 C -0.537593 -7.457935 0.951750 0
M  V30 3 C -0.279969 -6.203858 0.438461 0
M  V30 4 C 0.974325 -5.736179 0.097259 0
M  V30 5 C 1.198245 -4.399108 -0.443420 0
M  V30 6 N 1.990364 -4.137178 -1.494114 0
M  V30 7 N 2.008780 -2.830506 -1.769427 0
M  V30 8 C 1.200185 -2.238794 -0.862602 0
M  V30 9 C 0.887300 -0.899094 -0.725967 0
M  V30 10 C 0.013368 -0.607596 0.321270 0
M  V30 11 N -0.445024 0.703998 0.647071 0
M  V30 12 C 0.064672 1.695521 1.506313 0
M  V30 13 O 1.111208 1.261024 2.038887 0
M  V30 14 N -0.625026 2.906817 1.616494 0
M  V30 15 C -0.120934 3.930810 2.487911 0 CFG=2
M  V30 16 C -1.110796 4.340384 3.552719 0
M  V30 17 C 0.104571 5.145181 1.651395 0
M  V30 18 C -0.843161 5.554478 0.736300 0
M  V30 19 C -0.673931 6.671552 -0.056842 0
M  V30 20 Cl -1.889425 7.165381 -1.205482 0
M  V30 21 C 0.487305 7.435943 0.046994 0
M  V30 22 C 1.412345 6.985518 0.981112 0
M  V30 23 N 1.206594 5.886615 1.737061 0
M  V30 24 N -0.485577 -1.567523 1.136432 0
M  V30 25 C -0.180875 -2.867805 1.002525 0
M  V30 26 C 0.676386 -3.195215 -0.016734 0
M  V30 27 C 2.012252 -6.646971 0.311621 0
M  V30 28 C 1.749449 -7.892127 0.822166 0
M  V30 29 N 0.501183 -8.300921 1.140051 0
M  V30 30 H -2.446426 -7.025454 1.791754 0
M  V30 31 H -2.464780 -8.201312 0.388606 0
M  V30 32 H -1.844432 -8.739204 2.005394 0
M  V30 33 H -1.141448 -5.570187 0.307344 0
M  V30 34 H 2.531148 -2.331550 -2.525242 0
M  V30 35 H 1.235141 -0.092111 -1.320836 0
M  V30 36 H -1.329726 0.808744 0.065951 0
M  V30 37 H -1.494419 3.061513 1.071237 0
M  V30 38 H 0.795710 3.636007 2.997225 0
M  V30 39 H -0.982023 3.718772 4.451944 0
M  V30 40 H -0.855985 5.381754 3.845649 0
M  V30 41 H -2.149410 4.364579 3.173409 0
M  V30 42 H -1.773508 5.023742 0.587477 0
M  V30 43 H 0.694678 8.315578 -0.531726 0
M  V30 44 H 2.352982 7.489134 1.158101 0
M  V30 45 H -0.574139 -3.640509 1.648129 0
M  V30 46 H 3.031758 -6.342864 0.063382 0
M  V30 47 H 2.529921 -8.626753 1.002396 0
M  V30 END ATOM
M  V30 BEGIN BOND
M  V30 1 1 1 2
M  V30 2 2 2 3
M  V30 3 1 3 4
M  V30 4 1 4 5
M  V30 5 2 5 6
M  V30 6 1 6 7
M  V30 7 1 7 8
M  V30 8 2 8 9
M  V30 9 1 9 10
M  V30 10 1 10 11
M  V30 11 1 11 12
M  V30 12 2 12 13
M  V30 13 1 12 14
M  V30 14 1 14 15
M  V30 15 1 15 16
M  V30 16 1 15 17
M  V30 17 2 17 18
M  V30 18 1 18 19
M  V30 19 1 19 20
M  V30 20 2 19 21
M  V30 21 1 21 22
M  V30 22 2 22 23
M  V30 23 2 10 24
M  V30 24 1 24 25
M  V30 25 2 25 26
M  V30 26 2 4 27
M  V30 27 1 27 28
M  V30 28 2 28 29
M  V30 29 1 29 2
M  V30 30 1 26 5
M  V30 31 1 26 8
M  V30 32 1 23 17
M  V30 33 1 1 30
M  V30 34 1 1 31
M  V30 35 1 1 32
M  V30 36 1 3 33
M  V30 37 1 7 34
M  V30 38 1 9 35
M  V30 39 1 11 36
M  V30 40 1 14 37
M  V30 41 1 15 38 CFG=1
M  V30 42 1 16 39
M  V30 43 1 16 40
M  V30 44 1 16 41
M  V30 45 1 18 42
M  V30 46 1 21 43
M  V30 47 1 22 44
M  V30 48 1 25 45
M  V30 49 1 27 46
M  V30 50 1 28 47
M  V30 END BOND
M  V30 END CTAB
M  END
>  <Dataset>  (372) 
ChEMBL_Kinases

>  <Ligand_Instance>  (372) 
nan

>  <PDB_ID>  (372) 
nan

>  <Standardized_SMILES>  (372) 
Cc1cc(-c2n[nH]c3cc(NC(=O)N[C@H](C)c4cc(Cl)ccn4)ncc23)ccn1

>  <Name>  (372) 
nan

>  <Pocket>  (372) 
nan

>  <ATP_Site>  (372) 
nan

>  <Peripheral>  (372) 
nan

>  <Num_H_Atoms_ProtBoundConf>  (372) 
nan

>  <Num_Resolved_Atoms>  (372) 
nan

>  <Num_Not_Resolved_Atoms>  (372) 
nan

$$$$
CHEMBL3654855
     RDKit          3D

  0  0  0  0  0  0  0  0  0  0999 V3000
M  V30 BEGIN CTAB
M  V30 COUNTS 47 49 0 0 0
M  V30 BEGIN ATOM
M  V30 1 C 4.639360 -1.862936 2.571448 0
M  V30 2 C 3.873226 -2.022604 1.300893 0
M  V30 3 C 4.722087 -2.212412 0.096803 0
M  V30 4 N 5.556749 -3.381502 0.108443 0
M  V30 5 C 6.080161 -3.522577 -1.293154 0
M  V30 6 C 6.743418 -3.206796 0.924976 0
M  V30 7 N 3.163496 -0.732727 1.102243 0
M  V30 8 C 1.742784 -0.774514 1.073991 0
M  V30 9 O 1.009106 -1.793276 1.197508 0
M  V30 10 N 1.006099 0.427427 0.889863 0
M  V30 11 C -0.402508 0.599668 0.830287 0
M  V30 12 C -0.927211 0.820436 2.100814 0
M  V30 13 C -2.293266 1.022885 2.318049 0
M  V30 14 N -3.099288 1.253560 3.369713 0
M  V30 15 N -4.353617 1.366654 2.964295 0
M  V30 16 C -4.447679 1.219354 1.639034 0
M  V30 17 C -5.645903 1.274376 0.815513 0
M  V30 18 C -6.505570 2.336146 1.120552 0
M  V30 19 C -7.687166 2.494776 0.400542 0
M  V30 20 C -7.961064 1.568997 -0.609098 0
M  V30 21 F -9.099214 1.684151 -1.334298 0
M  V30 22 C -7.098212 0.526119 -0.895215 0
M  V30 23 C -5.920842 0.362281 -0.182776 0
M  V30 24 C -3.154539 1.001494 1.215340 0
M  V30 25 C -2.567173 0.777958 -0.007597 0
M  V30 26 N -1.251843 0.579842 -0.243413 0
M  V30 27 H 5.193855 -2.731179 2.929018 0
M  V30 28 H 5.327559 -0.986750 2.552944 0
M  V30 29 H 3.940354 -1.597536 3.428458 0
M  V30 30 H 3.102763 -2.831437 1.404716 0
M  V30 31 H 4.078842 -2.245458 -0.846327 0
M  V30 32 H 5.371495 -1.290591 -0.094717 0
M  V30 33 H 6.619029 -2.579242 -1.483389 0
M  V30 34 H 5.218339 -3.594391 -1.981478 0
M  V30 35 H 6.728374 -4.406230 -1.289516 0
M  V30 36 H 7.659048 -3.443924 0.297937 0
M  V30 37 H 6.827054 -2.188828 1.310241 0
M  V30 38 H 6.734349 -3.961225 1.763973 0
M  V30 39 H 3.700433 0.132495 0.993786 0
M  V30 40 H 1.544140 1.330126 0.778072 0
M  V30 41 H -0.387515 0.861987 3.025452 0
M  V30 42 H -2.744122 1.325552 4.356057 0
M  V30 43 H -6.312399 3.059446 1.895352 0
M  V30 44 H -8.424793 3.271526 0.543993 0
M  V30 45 H -7.295131 -0.190379 -1.665456 0
M  V30 46 H -5.221905 -0.436684 -0.376540 0
M  V30 47 H -3.191075 0.751669 -0.895737 0
M  V30 END ATOM
M  V30 BEGIN BOND
M  V30 1 1 1 2
M  V30 2 1 2 3
M  V30 3 1 3 4
M  V30 4 1 4 5
M  V30 5 1 4 6
M  V30 6 1 2 7
M  V30 7 1 7 8
M  V30 8 2 8 9
M  V30 9 1 8 10
M  V30 10 1 10 11
M  V30 11 2 11 12
M  V30 12 1 12 13
M  V30 13 1 13 14
M  V30 14 1 14 15
M  V30 15 2 15 16
M  V30 16 1 16 17
M  V30 17 2 17 18
M  V30 18 1 18 19
M  V30 19 2 19 20
M  V30 20 1 20 21
M  V30 21 1 20 22
M  V30 22 2 22 23
M  V30 23 1 16 24
M  V30 24 1 24 25
M  V30 25 2 25 26
M  V30 26 1 26 11
M  V30 27 2 24 13
M  V30 28 1 23 17
M  V30 29 1 1 27
M  V30 30 1 1 28
M  V30 31 1 1 29
M  V30 32 1 2 30
M  V30 33 1 3 31
M  V30 34 1 3 32
M  V30 35 1 5 33
M  V30 36 1 5 34
M  V30 37 1 5 35
M  V30 38 1 6 36
M  V30 39 1 6 37
M  V30 40 1 6 38
M  V30 41 1 7 39
M  V30 42 1 10 40
M  V30 43 1 12 41
M  V30 44 1 14 42
M  V30 45 1 18 43
M  V30 46 1 19 44
M  V30 47 1 22 45
M  V30 48 1 23 46
M  V30 49 1 25 47
M  V30 END BOND
M  V30 END CTAB
M  END
>  <Dataset>  (373) 
ChEMBL_Kinases

>  <Ligand_Instance>  (373) 
nan

>  <PDB_ID>  (373) 
nan

>  <Standardized_SMILES>  (373) 
CC(CN(C)C)NC(=O)Nc1cc2[nH]nc(-c3ccc(F)cc3)c2cn1

>  <Name>  (373) 
nan

>  <Pocket>  (373) 
nan

>  <ATP_Site>  (373) 
nan

>  <Peripheral>  (373) 
nan

>  <Num_H_Atoms_ProtBoundConf>  (373) 
nan

>  <Num_Resolved_Atoms>  (373) 
nan

>  <Num_Not_Resolved_Atoms>  (373) 
nan

$$$$
CHEMBL3654854
     RDKit          3D

  0  0  0  0  0  0  0  0  0  0999 V3000
M  V30 BEGIN CTAB
M  V30 COUNTS 47 49 0 0 0
M  V30 BEGIN ATOM
M  V30 1 C -0.529564 -6.539174 0.698884 0
M  V30 2 C -0.174561 -5.139672 0.132407 0
M  V30 3 C 1.253273 -4.871982 0.526692 0
M  V30 4 N 1.783412 -3.602484 0.127824 0
M  V30 5 C 1.329523 -2.305568 0.495331 0
M  V30 6 O 0.322784 -2.249111 1.279711 0
M  V30 7 N 1.904747 -1.096591 0.060685 0
M  V30 8 C 1.360722 0.152736 0.497786 0
M  V30 9 C 0.355135 0.726343 -0.282085 0
M  V30 10 C -0.191491 1.935298 0.114738 0
M  V30 11 N -1.148568 2.758530 -0.373818 0
M  V30 12 N -1.230739 3.798231 0.470745 0
M  V30 13 C -0.353914 3.660480 1.482298 0
M  V30 14 C -0.281370 4.688279 2.516737 0
M  V30 15 C 0.937874 5.140849 2.937432 0
M  V30 16 C 1.017413 6.120350 3.923002 0
M  V30 17 C -0.083468 6.669243 4.508889 0
M  V30 18 F -0.007154 7.627494 5.473131 0
M  V30 19 C -1.324092 6.201436 4.073451 0
M  V30 20 C -1.424783 5.229204 3.095833 0
M  V30 21 C 0.323592 2.475280 1.276998 0
M  V30 22 C 1.315088 1.928104 2.062763 0
M  V30 23 N 1.828831 0.735168 1.637936 0
M  V30 24 N -0.301364 -5.166129 -1.288050 0
M  V30 25 C -0.193320 -3.851894 -1.848680 0
M  V30 26 C -1.417606 -5.898154 -1.801847 0
M  V30 27 H 0.364131 -7.163146 0.490606 0
M  V30 28 H -1.374975 -6.973519 0.153757 0
M  V30 29 H -0.664778 -6.466355 1.796347 0
M  V30 30 H -0.848896 -4.418216 0.582799 0
M  V30 31 H 1.941591 -5.670115 0.162679 0
M  V30 32 H 1.307629 -4.933684 1.639885 0
M  V30 33 H 2.627866 -3.537896 -0.517303 0
M  V30 34 H 2.727617 -1.154193 -0.580552 0
M  V30 35 H -0.000625 0.259090 -1.171119 0
M  V30 36 H -1.691012 2.576148 -1.244427 0
M  V30 37 H 1.887212 4.784241 2.549920 0
M  V30 38 H 1.969342 6.497596 4.275560 0
M  V30 39 H -2.216907 6.613653 4.515383 0
M  V30 40 H -2.407683 4.890773 2.783320 0
M  V30 41 H 1.657606 2.424073 2.960873 0
M  V30 42 H -0.765462 -3.841789 -2.825227 0
M  V30 43 H 0.837764 -3.511294 -2.051411 0
M  V30 44 H -0.772494 -3.113871 -1.226324 0
M  V30 45 H -2.348222 -5.802761 -1.230804 0
M  V30 46 H -1.089676 -6.965542 -1.895226 0
M  V30 47 H -1.620341 -5.563728 -2.845931 0
M  V30 END ATOM
M  V30 BEGIN BOND
M  V30 1 1 1 2
M  V30 2 1 2 3
M  V30 3 1 3 4
M  V30 4 1 4 5
M  V30 5 2 5 6
M  V30 6 1 5 7
M  V30 7 1 7 8
M  V30 8 2 8 9
M  V30 9 1 9 10
M  V30 10 1 10 11
M  V30 11 1 11 12
M  V30 12 2 12 13
M  V30 13 1 13 14
M  V30 14 2 14 15
M  V30 15 1 15 16
M  V30 16 2 16 17
M  V30 17 1 17 18
M  V30 18 1 17 19
M  V30 19 2 19 20
M  V30 20 1 13 21
M  V30 21 1 21 22
M  V30 22 2 22 23
M  V30 23 1 2 24
M  V30 24 1 24 25
M  V30 25 1 24 26
M  V30 26 1 23 8
M  V30 27 2 21 10
M  V30 28 1 20 14
M  V30 29 1 1 27
M  V30 30 1 1 28
M  V30 31 1 1 29
M  V30 32 1 2 30
M  V30 33 1 3 31
M  V30 34 1 3 32
M  V30 35 1 4 33
M  V30 36 1 7 34
M  V30 37 1 9 35
M  V30 38 1 11 36
M  V30 39 1 15 37
M  V30 40 1 16 38
M  V30 41 1 19 39
M  V30 42 1 20 40
M  V30 43 1 22 41
M  V30 44 1 25 42
M  V30 45 1 25 43
M  V30 46 1 25 44
M  V30 47 1 26 45
M  V30 48 1 26 46
M  V30 49 1 26 47
M  V30 END BOND
M  V30 END CTAB
M  END
>  <Dataset>  (374) 
ChEMBL_Kinases

>  <Ligand_Instance>  (374) 
nan

>  <PDB_ID>  (374) 
nan

>  <Standardized_SMILES>  (374) 
CC(CNC(=O)Nc1cc2[nH]nc(-c3ccc(F)cc3)c2cn1)N(C)C

>  <Name>  (374) 
nan

>  <Pocket>  (374) 
nan

>  <ATP_Site>  (374) 
nan

>  <Peripheral>  (374) 
nan

>  <Num_H_Atoms_ProtBoundConf>  (374) 
nan

>  <Num_Resolved_Atoms>  (374) 
nan

>  <Num_Not_Resolved_Atoms>  (374) 
nan

$$$$
CHEMBL3654853
     RDKit          3D

  0  0  0  0  0  0  0  0  0  0999 V3000
M  V30 BEGIN CTAB
M  V30 COUNTS 49 52 0 0 0
M  V30 BEGIN ATOM
M  V30 1 C 4.004504 -5.817771 0.628823 0
M  V30 2 N 3.931898 -4.491426 0.048794 0
M  V30 3 C 3.995988 -4.508610 -1.391419 0
M  V30 4 C 4.986474 -3.498166 -1.934704 0
M  V30 5 O 4.813187 -2.239092 -1.380351 0
M  V30 6 C 4.787463 -2.273484 -0.006079 0
M  V30 7 C 3.424233 -1.894972 0.504518 0
M  V30 8 N 3.011964 -0.561832 0.106666 0
M  V30 9 C 1.718811 -0.255275 0.614849 0
M  V30 10 O 1.056277 -1.062340 1.312137 0
M  V30 11 N 1.100346 1.017350 0.347604 0
M  V30 12 C -0.196694 1.356519 0.842978 0
M  V30 13 C -0.435659 1.971593 2.061225 0
M  V30 14 C -1.728196 2.261085 2.455989 0
M  V30 15 N -2.266497 2.836444 3.547948 0
M  V30 16 N -3.594970 2.883655 3.443158 0
M  V30 17 C -3.991088 2.333420 2.261006 0
M  V30 18 C -5.346655 2.187715 1.758672 0
M  V30 19 C -5.759742 0.999973 1.188187 0
M  V30 20 C -7.067806 0.871343 0.707840 0
M  V30 21 C -7.992828 1.917499 0.783293 0
M  V30 22 F -9.250423 1.782420 0.317317 0
M  V30 23 C -7.518147 3.074666 1.363024 0
M  V30 24 C -6.240682 3.254753 1.852018 0
M  V30 25 C -2.811259 1.950050 1.657708 0
M  V30 26 C -2.524305 1.338690 0.454297 0
M  V30 27 N -1.255698 1.053866 0.065433 0
M  V30 28 C 5.062737 -3.677091 0.510554 0
M  V30 29 H 4.665885 -5.776853 1.542975 0
M  V30 30 H 4.451151 -6.535986 -0.081513 0
M  V30 31 H 3.039425 -6.190758 0.973848 0
M  V30 32 H 4.302752 -5.505553 -1.778158 0
M  V30 33 H 2.996183 -4.260329 -1.832502 0
M  V30 34 H 4.776655 -3.387596 -3.033846 0
M  V30 35 H 6.037383 -3.845435 -1.886575 0
M  V30 36 H 5.515748 -1.591075 0.476422 0
M  V30 37 H 3.414720 -1.907511 1.623490 0
M  V30 38 H 2.658794 -2.663369 0.204113 0
M  V30 39 H 3.515678 0.159850 -0.472454 0
M  V30 40 H 1.653160 1.694381 -0.235847 0
M  V30 41 H 0.407187 2.210934 2.676932 0
M  V30 42 H -1.694384 3.188906 4.353386 0
M  V30 43 H -5.114201 0.140122 1.088161 0
M  V30 44 H -7.386939 -0.064693 0.260375 0
M  V30 45 H -8.276249 3.872796 1.403239 0
M  V30 46 H -5.961111 4.219366 2.296809 0
M  V30 47 H -3.325781 1.070470 -0.214066 0
M  V30 48 H 5.021145 -3.623494 1.621337 0
M  V30 49 H 5.982468 -4.122605 0.137989 0
M  V30 END ATOM
M  V30 BEGIN BOND
M  V30 1 1 1 2
M  V30 2 1 2 3
M  V30 3 1 3 4
M  V30 4 1 4 5
M  V30 5 1 5 6
M  V30 6 1 6 7
M  V30 7 1 7 8
M  V30 8 1 8 9
M  V30 9 2 9 10
M  V30 10 1 9 11
M  V30 11 1 11 12
M  V30 12 2 12 13
M  V30 13 1 13 14
M  V30 14 1 14 15
M  V30 15 1 15 16
M  V30 16 2 16 17
M  V30 17 1 17 18
M  V30 18 2 18 19
M  V30 19 1 19 20
M  V30 20 2 20 21
M  V30 21 1 21 22
M  V30 22 1 21 23
M  V30 23 2 23 24
M  V30 24 1 17 25
M  V30 25 1 25 26
M  V30 26 2 26 27
M  V30 27 1 6 28
M  V30 28 1 28 2
M  V30 29 1 27 12
M  V30 30 2 25 14
M  V30 31 1 24 18
M  V30 32 1 1 29
M  V30 33 1 1 30
M  V30 34 1 1 31
M  V30 35 1 3 32
M  V30 36 1 3 33
M  V30 37 1 4 34
M  V30 38 1 4 35
M  V30 39 1 6 36
M  V30 40 1 7 37
M  V30 41 1 7 38
M  V30 42 1 8 39
M  V30 43 1 11 40
M  V30 44 1 13 41
M  V30 45 1 15 42
M  V30 46 1 19 43
M  V30 47 1 20 44
M  V30 48 1 23 45
M  V30 49 1 24 46
M  V30 50 1 26 47
M  V30 51 1 28 48
M  V30 52 1 28 49
M  V30 END BOND
M  V30 END CTAB
M  END
>  <Dataset>  (375) 
ChEMBL_Kinases

>  <Ligand_Instance>  (375) 
nan

>  <PDB_ID>  (375) 
nan

>  <Standardized_SMILES>  (375) 
CN1CCOC(CNC(=O)Nc2cc3[nH]nc(-c4ccc(F)cc4)c3cn2)C1

>  <Name>  (375) 
nan

>  <Pocket>  (375) 
nan

>  <ATP_Site>  (375) 
nan

>  <Peripheral>  (375) 
nan

>  <Num_H_Atoms_ProtBoundConf>  (375) 
nan

>  <Num_Resolved_Atoms>  (375) 
nan

>  <Num_Not_Resolved_Atoms>  (375) 
nan

$$$$
CHEMBL3654852
     RDKit          3D

  0  0  0  0  0  0  0  0  0  0999 V3000
M  V30 BEGIN CTAB
M  V30 COUNTS 47 50 0 0 0
M  V30 BEGIN ATOM
M  V30 1 C -2.611002 -6.427110 -1.887988 0
M  V30 2 C -1.737419 -6.415539 -0.683494 0
M  V30 3 C -0.712069 -5.495144 -0.561885 0
M  V30 4 C 0.113978 -5.454439 0.534633 0
M  V30 5 C 1.200000 -4.489646 0.677773 0
M  V30 6 N 2.467404 -4.759364 1.099176 0
M  V30 7 N 3.198126 -3.641920 1.110145 0
M  V30 8 C 2.372811 -2.665100 0.689721 0
M  V30 9 C 2.686317 -1.327746 0.538079 0
M  V30 10 F 3.844900 -0.710604 0.765895 0
M  V30 11 C 1.678344 -0.493924 0.090073 0
M  V30 12 N 1.720758 0.913675 -0.153983 0
M  V30 13 C 1.365048 1.674242 1.019539 0
M  V30 14 O 1.048218 1.165425 2.147250 0
M  V30 15 N 1.355579 3.092709 0.953581 0
M  V30 16 C 1.002658 3.895790 2.114485 0
M  V30 17 C 1.982278 4.969058 2.439119 0
M  V30 18 C -0.315881 4.530725 1.773298 0
M  V30 19 C -1.369277 4.567902 2.680409 0
M  V30 20 C -2.588062 5.133687 2.418016 0
M  V30 21 C -2.773652 5.701756 1.168665 0
M  V30 22 C -1.734439 5.668322 0.265634 0
M  V30 23 N -0.553049 5.102636 0.563291 0
M  V30 24 N 0.446240 -0.980886 -0.183059 0
M  V30 25 C 0.124830 -2.283175 -0.040129 0
M  V30 26 C 1.107975 -3.142917 0.405308 0
M  V30 27 C -0.063837 -6.355144 1.569517 0
M  V30 28 C -1.103640 -7.251020 1.392772 0
M  V30 29 N -1.895328 -7.281147 0.329200 0
M  V30 30 H -3.041067 -5.392372 -1.959023 0
M  V30 31 H -2.036308 -6.715120 -2.766089 0
M  V30 32 H -3.474905 -7.091043 -1.710354 0
M  V30 33 H -0.575458 -4.792294 -1.372430 0
M  V30 34 H 4.195846 -3.566489 1.389435 0
M  V30 35 H 1.961422 1.439132 -1.020251 0
M  V30 36 H 1.604340 3.578176 0.062229 0
M  V30 37 H 0.768623 3.207792 2.969153 0
M  V30 38 H 1.961183 5.119270 3.552294 0
M  V30 39 H 3.026418 4.728024 2.189525 0
M  V30 40 H 1.706037 5.943354 1.974926 0
M  V30 41 H -1.146220 4.101174 3.639864 0
M  V30 42 H -3.307456 5.083716 3.226624 0
M  V30 43 H -3.755289 6.141471 0.997434 0
M  V30 44 H -1.928800 6.121951 -0.688202 0
M  V30 45 H -0.855787 -2.686876 -0.254570 0
M  V30 46 H 0.530510 -6.413248 2.482995 0
M  V30 47 H -1.300817 -7.991993 2.172995 0
M  V30 END ATOM
M  V30 BEGIN BOND
M  V30 1 1 1 2
M  V30 2 2 2 3
M  V30 3 1 3 4
M  V30 4 1 4 5
M  V30 5 2 5 6
M  V30 6 1 6 7
M  V30 7 1 7 8
M  V30 8 2 8 9
M  V30 9 1 9 10
M  V30 10 1 9 11
M  V30 11 1 11 12
M  V30 12 1 12 13
M  V30 13 2 13 14
M  V30 14 1 13 15
M  V30 15 1 15 16
M  V30 16 1 16 17
M  V30 17 1 16 18
M  V30 18 2 18 19
M  V30 19 1 19 20
M  V30 20 2 20 21
M  V30 21 1 21 22
M  V30 22 2 22 23
M  V30 23 2 11 24
M  V30 24 1 24 25
M  V30 25 2 25 26
M  V30 26 2 4 27
M  V30 27 1 27 28
M  V30 28 2 28 29
M  V30 29 1 29 2
M  V30 30 1 26 5
M  V30 31 1 26 8
M  V30 32 1 23 18
M  V30 33 1 1 30
M  V30 34 1 1 31
M  V30 35 1 1 32
M  V30 36 1 3 33
M  V30 37 1 7 34
M  V30 38 1 12 35
M  V30 39 1 15 36
M  V30 40 1 16 37
M  V30 41 1 17 38
M  V30 42 1 17 39
M  V30 43 1 17 40
M  V30 44 1 19 41
M  V30 45 1 20 42
M  V30 46 1 21 43
M  V30 47 1 22 44
M  V30 48 1 25 45
M  V30 49 1 27 46
M  V30 50 1 28 47
M  V30 END BOND
M  V30 END CTAB
M  END
>  <Dataset>  (376) 
ChEMBL_Kinases

>  <Ligand_Instance>  (376) 
nan

>  <PDB_ID>  (376) 
nan

>  <Standardized_SMILES>  (376) 
Cc1cc(-c2n[nH]c3c(F)c(NC(=O)NC(C)c4ccccn4)ncc23)ccn1

>  <Name>  (376) 
nan

>  <Pocket>  (376) 
nan

>  <ATP_Site>  (376) 
nan

>  <Peripheral>  (376) 
nan

>  <Num_H_Atoms_ProtBoundConf>  (376) 
nan

>  <Num_Resolved_Atoms>  (376) 
nan

>  <Num_Not_Resolved_Atoms>  (376) 
nan

$$$$
CHEMBL3654851
     RDKit          3D

  0  0  0  0  0  0  0  0  0  0999 V3000
M  V30 BEGIN CTAB
M  V30 COUNTS 44 46 0 0 0
M  V30 BEGIN ATOM
M  V30 1 C 4.501493 -4.819519 -0.192123 0
M  V30 2 N 3.328508 -4.018667 -0.316849 0
M  V30 3 C 2.094786 -4.646434 0.034689 0
M  V30 4 C 3.235459 -3.225484 -1.503350 0
M  V30 5 C 4.265424 -2.130081 -1.491580 0
M  V30 6 N 4.102847 -1.240762 -0.354446 0
M  V30 7 C 2.898133 -0.480882 -0.121825 0
M  V30 8 O 2.030777 -0.689541 -1.020945 0
M  V30 9 N 2.792941 0.373404 1.011071 0
M  V30 10 C 1.516355 1.014332 1.032298 0
M  V30 11 C 1.123815 2.216195 0.479456 0
M  V30 12 C -0.192248 2.607748 0.649272 0
M  V30 13 N -0.774214 3.734442 0.192663 0
M  V30 14 N -2.028027 3.647887 0.609486 0
M  V30 15 C -2.251220 2.517479 1.304849 0
M  V30 16 C -3.520426 2.102572 1.905792 0
M  V30 17 C -3.460603 1.625862 3.200356 0
M  V30 18 C -4.598644 1.212670 3.841894 0
M  V30 19 C -5.828946 1.255625 3.230915 0
M  V30 20 F -7.002017 0.857895 3.817048 0
M  V30 21 C -5.866265 1.741619 1.921070 0
M  V30 22 C -4.729863 2.168856 1.241216 0
M  V30 23 C -1.069380 1.805032 1.354091 0
M  V30 24 C -0.658384 0.611830 1.896625 0
M  V30 25 N 0.644761 0.243120 1.717972 0
M  V30 26 H 4.273857 -5.888252 0.016519 0
M  V30 27 H 5.180172 -4.785284 -1.063081 0
M  V30 28 H 5.092821 -4.450696 0.696191 0
M  V30 29 H 1.737642 -4.202911 1.004415 0
M  V30 30 H 2.169182 -5.749265 0.074532 0
M  V30 31 H 1.315148 -4.383057 -0.714193 0
M  V30 32 H 3.510062 -3.917800 -2.355074 0
M  V30 33 H 2.212882 -2.899377 -1.740267 0
M  V30 34 H 5.258798 -2.577957 -1.428294 0
M  V30 35 H 4.189232 -1.546416 -2.436197 0
M  V30 36 H 4.876620 -1.111273 0.363652 0
M  V30 37 H 3.615041 0.438876 1.675139 0
M  V30 38 H 1.925380 2.724170 -0.039050 0
M  V30 39 H -0.321168 4.494552 -0.363483 0
M  V30 40 H -2.587601 1.523797 3.830005 0
M  V30 41 H -4.643799 0.826506 4.852895 0
M  V30 42 H -6.832171 1.792219 1.396800 0
M  V30 43 H -4.756936 2.544045 0.229119 0
M  V30 44 H -1.372337 0.012101 2.438313 0
M  V30 END ATOM
M  V30 BEGIN BOND
M  V30 1 1 1 2
M  V30 2 1 2 3
M  V30 3 1 2 4
M  V30 4 1 4 5
M  V30 5 1 5 6
M  V30 6 1 6 7
M  V30 7 2 7 8
M  V30 8 1 7 9
M  V30 9 1 9 10
M  V30 10 2 10 11
M  V30 11 1 11 12
M  V30 12 1 12 13
M  V30 13 1 13 14
M  V30 14 2 14 15
M  V30 15 1 15 16
M  V30 16 2 16 17
M  V30 17 1 17 18
M  V30 18 2 18 19
M  V30 19 1 19 20
M  V30 20 1 19 21
M  V30 21 2 21 22
M  V30 22 1 15 23
M  V30 23 1 23 24
M  V30 24 2 24 25
M  V30 25 1 25 10
M  V30 26 2 23 12
M  V30 27 1 22 16
M  V30 28 1 1 26
M  V30 29 1 1 27
M  V30 30 1 1 28
M  V30 31 1 3 29
M  V30 32 1 3 30
M  V30 33 1 3 31
M  V30 34 1 4 32
M  V30 35 1 4 33
M  V30 36 1 5 34
M  V30 37 1 5 35
M  V30 38 1 6 36
M  V30 39 1 9 37
M  V30 40 1 11 38
M  V30 41 1 13 39
M  V30 42 1 17 40
M  V30 43 1 18 41
M  V30 44 1 21 42
M  V30 45 1 22 43
M  V30 46 1 24 44
M  V30 END BOND
M  V30 END CTAB
M  END
>  <Dataset>  (377) 
ChEMBL_Kinases

>  <Ligand_Instance>  (377) 
nan

>  <PDB_ID>  (377) 
nan

>  <Standardized_SMILES>  (377) 
CN(C)CCNC(=O)Nc1cc2[nH]nc(-c3ccc(F)cc3)c2cn1

>  <Name>  (377) 
nan

>  <Pocket>  (377) 
nan

>  <ATP_Site>  (377) 
nan

>  <Peripheral>  (377) 
nan

>  <Num_H_Atoms_ProtBoundConf>  (377) 
nan

>  <Num_Resolved_Atoms>  (377) 
nan

>  <Num_Not_Resolved_Atoms>  (377) 
nan

$$$$
CHEMBL3654850
     RDKit          3D

  0  0  0  0  0  0  0  0  0  0999 V3000
M  V30 BEGIN CTAB
M  V30 COUNTS 51 55 0 0 0
M  V30 BEGIN ATOM
M  V30 1 C 1.156941 0.970976 -2.224769 0
M  V30 2 N 1.328065 0.450117 -0.899693 0
M  V30 3 C 2.672611 0.420224 -0.423051 0
M  V30 4 C 3.079918 1.615045 0.401512 0
M  V30 5 C 4.473461 1.396144 0.880728 0
M  V30 6 C 4.702513 0.565287 1.975227 0
M  V30 7 C 6.005979 0.348540 2.436089 0
M  V30 8 C 7.064435 0.968065 1.793995 0
M  V30 9 C 6.865620 1.793766 0.710633 0
M  V30 10 C 5.581727 1.996383 0.270310 0
M  V30 11 N 2.147751 1.850410 1.507404 0
M  V30 12 C 1.044862 0.974211 1.280801 0
M  V30 13 N -0.069864 1.132627 2.180978 0
M  V30 14 C -1.093094 0.198843 1.797112 0
M  V30 15 C -2.066730 0.716599 0.949426 0
M  V30 16 C -3.066589 -0.149586 0.551185 0
M  V30 17 N -4.131417 -0.003204 -0.232982 0
M  V30 18 N -4.801511 -1.144912 -0.309742 0
M  V30 19 C -4.198399 -2.103810 0.430127 0
M  V30 20 C -4.652851 -3.464093 0.571899 0
M  V30 21 C -4.645269 -3.995141 1.836983 0
M  V30 22 C -5.078648 -5.313558 1.999334 0
M  V30 23 C -5.501617 -6.054823 0.913831 0
M  V30 24 F -5.933636 -7.337615 1.003943 0
M  V30 25 C -5.511029 -5.523347 -0.362832 0
M  V30 26 C -5.079443 -4.220370 -0.504346 0
M  V30 27 C -3.091620 -1.460555 0.976800 0
M  V30 28 C -2.103410 -1.936697 1.820281 0
M  V30 29 N -1.133977 -1.088160 2.203870 0
M  V30 30 O 0.553293 1.112646 -0.035710 0
M  V30 31 H 1.294707 2.080493 -2.240119 0
M  V30 32 H 0.123383 0.677784 -2.562452 0
M  V30 33 H 1.827373 0.499302 -2.969090 0
M  V30 34 H 2.904896 -0.537761 0.109687 0
M  V30 35 H 3.351594 0.410043 -1.310997 0
M  V30 36 H 3.014696 2.504809 -0.254777 0
M  V30 37 H 3.889157 0.058278 2.510853 0
M  V30 38 H 6.244219 -0.296038 3.295471 0
M  V30 39 H 8.116695 0.866432 2.072450 0
M  V30 40 H 7.651219 2.310981 0.159855 0
M  V30 41 H 5.336667 2.618191 -0.559238 0
M  V30 42 H 1.810605 2.832281 1.513290 0
M  V30 43 H 1.400269 -0.090375 1.428384 0
M  V30 44 H -0.334785 1.720067 3.012692 0
M  V30 45 H -2.051625 1.737630 0.614736 0
M  V30 46 H -4.386151 0.905453 -0.716351 0
M  V30 47 H -4.347373 -3.539399 2.764285 0
M  V30 48 H -5.127593 -5.863411 2.925580 0
M  V30 49 H -5.827536 -6.043751 -1.258163 0
M  V30 50 H -5.054629 -3.720915 -1.477495 0
M  V30 51 H -2.106151 -2.970814 2.166718 0
M  V30 END ATOM
M  V30 BEGIN BOND
M  V30 1 1 1 2
M  V30 2 1 2 3
M  V30 3 1 3 4
M  V30 4 1 4 5
M  V30 5 2 5 6
M  V30 6 1 6 7
M  V30 7 2 7 8
M  V30 8 1 8 9
M  V30 9 2 9 10
M  V30 10 1 4 11
M  V30 11 1 11 12
M  V30 12 1 12 13
M  V30 13 1 13 14
M  V30 14 2 14 15
M  V30 15 1 15 16
M  V30 16 1 16 17
M  V30 17 1 17 18
M  V30 18 2 18 19
M  V30 19 1 19 20
M  V30 20 2 20 21
M  V30 21 1 21 22
M  V30 22 2 22 23
M  V30 23 1 23 24
M  V30 24 1 23 25
M  V30 25 2 25 26
M  V30 26 1 19 27
M  V30 27 1 27 28
M  V30 28 2 28 29
M  V30 29 1 12 30
M  V30 30 1 30 2
M  V30 31 1 10 5
M  V30 32 1 29 14
M  V30 33 2 27 16
M  V30 34 1 26 20
M  V30 35 1 1 31
M  V30 36 1 1 32
M  V30 37 1 1 33
M  V30 38 1 3 34
M  V30 39 1 3 35
M  V30 40 1 4 36
M  V30 41 1 6 37
M  V30 42 1 7 38
M  V30 43 1 8 39
M  V30 44 1 9 40
M  V30 45 1 10 41
M  V30 46 1 11 42
M  V30 47 1 12 43
M  V30 48 1 13 44
M  V30 49 1 15 45
M  V30 50 1 17 46
M  V30 51 1 21 47
M  V30 52 1 22 48
M  V30 53 1 25 49
M  V30 54 1 26 50
M  V30 55 1 28 51
M  V30 END BOND
M  V30 END CTAB
M  END
>  <Dataset>  (378) 
ChEMBL_Kinases

>  <Ligand_Instance>  (378) 
nan

>  <PDB_ID>  (378) 
nan

>  <Standardized_SMILES>  (378) 
CN1CC(c2ccccc2)NC(Nc2cc3[nH]nc(-c4ccc(F)cc4)c3cn2)O1

>  <Name>  (378) 
nan

>  <Pocket>  (378) 
nan

>  <ATP_Site>  (378) 
nan

>  <Peripheral>  (378) 
nan

>  <Num_H_Atoms_ProtBoundConf>  (378) 
nan

>  <Num_Resolved_Atoms>  (378) 
nan

>  <Num_Not_Resolved_Atoms>  (378) 
nan

$$$$
CHEMBL3654849
     RDKit          3D

  0  0  0  0  0  0  0  0  0  0999 V3000
M  V30 BEGIN CTAB
M  V30 COUNTS 39 42 0 0 0
M  V30 BEGIN ATOM
M  V30 1 O 2.428604 -2.073793 0.057029 0
M  V30 2 C 2.244467 -2.010688 -1.185592 0
M  V30 3 N 3.103960 -2.712998 -2.061570 0
M  V30 4 C 4.235462 -3.542828 -1.689410 0
M  V30 5 C 5.212058 -2.711727 -0.964312 0
M  V30 6 C 5.475406 -2.367260 0.332232 0
M  V30 7 C 6.571866 -1.520313 0.350802 0
M  V30 8 N 6.912997 -1.400697 -0.960187 0
M  V30 9 O 6.118682 -2.092449 -1.689718 0
M  V30 10 N 1.165609 -1.226782 -1.684874 0
M  V30 11 C 0.326586 -0.534947 -0.728094 0
M  V30 12 C 0.594181 0.755302 -0.288676 0
M  V30 13 C -0.300880 1.295412 0.634499 0
M  V30 14 N -0.288973 2.505990 1.222330 0
M  V30 15 N -1.349381 2.571997 2.033231 0
M  V30 16 C -2.033754 1.395138 1.955628 0
M  V30 17 C -3.254804 1.076431 2.694861 0
M  V30 18 C -3.515755 -0.104880 3.358056 0
M  V30 19 C -4.718683 -0.282013 4.024210 0
M  V30 20 C -5.700781 0.704516 4.054714 0
M  V30 21 F -6.853442 0.456292 4.728656 0
M  V30 22 C -5.452071 1.899285 3.391368 0
M  V30 23 C -4.240831 2.036762 2.739166 0
M  V30 24 C -1.382889 0.545090 1.058968 0
M  V30 25 C -1.626479 -0.738366 0.605278 0
M  V30 26 N -0.735654 -1.242904 -0.297257 0
M  V30 27 H 2.909809 -2.630465 -3.089123 0
M  V30 28 H 4.649500 -4.099999 -2.522143 0
M  V30 29 H 3.842510 -4.269313 -0.914477 0
M  V30 30 H 4.853258 -2.763001 1.118896 0
M  V30 31 H 6.889962 -1.169062 1.322017 0
M  V30 32 H 1.039338 -1.195002 -2.725129 0
M  V30 33 H 1.467717 1.261709 -0.680324 0
M  V30 34 H 0.405280 3.257890 1.083260 0
M  V30 35 H -2.740630 -0.856908 3.321916 0
M  V30 36 H -4.866857 -1.223373 4.523590 0
M  V30 37 H -6.202067 2.671928 3.405920 0
M  V30 38 H -4.109124 2.984656 2.244837 0
M  V30 39 H -2.487230 -1.289436 0.965533 0
M  V30 END ATOM
M  V30 BEGIN BOND
M  V30 1 2 1 2
M  V30 2 1 2 3
M  V30 3 1 3 4
M  V30 4 1 4 5
M  V30 5 2 5 6
M  V30 6 1 6 7
M  V30 7 2 7 8
M  V30 8 1 8 9
M  V30 9 1 2 10
M  V30 10 1 10 11
M  V30 11 2 11 12
M  V30 12 1 12 13
M  V30 13 1 13 14
M  V30 14 1 14 15
M  V30 15 2 15 16
M  V30 16 1 16 17
M  V30 17 2 17 18
M  V30 18 1 18 19
M  V30 19 2 19 20
M  V30 20 1 20 21
M  V30 21 1 20 22
M  V30 22 2 22 23
M  V30 23 1 16 24
M  V30 24 1 24 25
M  V30 25 2 25 26
M  V30 26 1 9 5
M  V30 27 1 26 11
M  V30 28 2 24 13
M  V30 29 1 23 17
M  V30 30 1 3 27
M  V30 31 1 4 28
M  V30 32 1 4 29
M  V30 33 1 6 30
M  V30 34 1 7 31
M  V30 35 1 10 32
M  V30 36 1 12 33
M  V30 37 1 14 34
M  V30 38 1 18 35
M  V30 39 1 19 36
M  V30 40 1 22 37
M  V30 41 1 23 38
M  V30 42 1 25 39
M  V30 END BOND
M  V30 END CTAB
M  END
>  <Dataset>  (379) 
ChEMBL_Kinases

>  <Ligand_Instance>  (379) 
nan

>  <PDB_ID>  (379) 
nan

>  <Standardized_SMILES>  (379) 
O=C(NCc1ccno1)Nc1cc2[nH]nc(-c3ccc(F)cc3)c2cn1

>  <Name>  (379) 
nan

>  <Pocket>  (379) 
nan

>  <ATP_Site>  (379) 
nan

>  <Peripheral>  (379) 
nan

>  <Num_H_Atoms_ProtBoundConf>  (379) 
nan

>  <Num_Resolved_Atoms>  (379) 
nan

>  <Num_Not_Resolved_Atoms>  (379) 
nan

$$$$
CHEMBL3654848
     RDKit          3D

  0  0  0  0  0  0  0  0  0  0999 V3000
M  V30 BEGIN CTAB
M  V30 COUNTS 39 42 0 0 0
M  V30 BEGIN ATOM
M  V30 1 O 2.510550 -1.978963 0.007924 0
M  V30 2 C 2.347949 -1.962539 -1.258450 0
M  V30 3 N 3.295118 -2.590626 -2.100287 0
M  V30 4 C 4.444944 -3.248096 -1.501584 0
M  V30 5 C 5.201302 -2.227465 -0.743178 0
M  V30 6 N 5.130618 -1.802329 0.529943 0
M  V30 7 C 6.065418 -0.830133 0.720492 0
M  V30 8 C 6.701544 -0.698164 -0.517307 0
M  V30 9 O 6.144415 -1.550719 -1.336127 0
M  V30 10 N 1.186307 -1.293730 -1.792812 0
M  V30 11 C 0.288735 -0.688527 -0.840543 0
M  V30 12 C 0.444113 0.627448 -0.422724 0
M  V30 13 C -0.441263 1.164897 0.492229 0
M  V30 14 N -0.568944 2.367995 1.085792 0
M  V30 15 N -1.617744 2.383021 1.914685 0
M  V30 16 C -2.236487 1.168417 1.901936 0
M  V30 17 C -3.416590 0.778215 2.667636 0
M  V30 18 C -3.465307 -0.433801 3.327617 0
M  V30 19 C -4.579256 -0.837300 4.068853 0
M  V30 20 C -5.684732 -0.004886 4.156674 0
M  V30 21 F -6.765610 -0.401564 4.878622 0
M  V30 22 C -5.639012 1.223585 3.489474 0
M  V30 23 C -4.516152 1.603386 2.756455 0
M  V30 24 C -1.487497 0.425988 1.009912 0
M  V30 25 C -1.612787 -0.879110 0.572949 0
M  V30 26 N -0.739569 -1.393440 -0.322985 0
M  V30 27 H 3.177930 -2.587121 -3.141481 0
M  V30 28 H 5.049714 -3.797816 -2.222167 0
M  V30 29 H 4.032960 -3.945866 -0.714244 0
M  V30 30 H 6.139242 -0.377638 1.705657 0
M  V30 31 H 7.490097 0.042895 -0.560650 0
M  V30 32 H 1.126735 -1.325615 -2.841753 0
M  V30 33 H 1.255216 1.227159 -0.813046 0
M  V30 34 H 0.061745 3.188310 0.927472 0
M  V30 35 H -2.646159 -1.133764 3.306235 0
M  V30 36 H -4.628199 -1.780476 4.587684 0
M  V30 37 H -6.502566 1.869143 3.560538 0
M  V30 38 H -4.546926 2.567555 2.264465 0
M  V30 39 H -2.412890 -1.509128 0.942205 0
M  V30 END ATOM
M  V30 BEGIN BOND
M  V30 1 2 1 2
M  V30 2 1 2 3
M  V30 3 1 3 4
M  V30 4 1 4 5
M  V30 5 2 5 6
M  V30 6 1 6 7
M  V30 7 2 7 8
M  V30 8 1 8 9
M  V30 9 1 2 10
M  V30 10 1 10 11
M  V30 11 2 11 12
M  V30 12 1 12 13
M  V30 13 1 13 14
M  V30 14 1 14 15
M  V30 15 2 15 16
M  V30 16 1 16 17
M  V30 17 2 17 18
M  V30 18 1 18 19
M  V30 19 2 19 20
M  V30 20 1 20 21
M  V30 21 1 20 22
M  V30 22 2 22 23
M  V30 23 1 16 24
M  V30 24 1 24 25
M  V30 25 2 25 26
M  V30 26 1 9 5
M  V30 27 1 26 11
M  V30 28 2 24 13
M  V30 29 1 23 17
M  V30 30 1 3 27
M  V30 31 1 4 28
M  V30 32 1 4 29
M  V30 33 1 7 30
M  V30 34 1 8 31
M  V30 35 1 10 32
M  V30 36 1 12 33
M  V30 37 1 14 34
M  V30 38 1 18 35
M  V30 39 1 19 36
M  V30 40 1 22 37
M  V30 41 1 23 38
M  V30 42 1 25 39
M  V30 END BOND
M  V30 END CTAB
M  END
>  <Dataset>  (380) 
ChEMBL_Kinases

>  <Ligand_Instance>  (380) 
nan

>  <PDB_ID>  (380) 
nan

>  <Standardized_SMILES>  (380) 
O=C(NCc1ncco1)Nc1cc2[nH]nc(-c3ccc(F)cc3)c2cn1

>  <Name>  (380) 
nan

>  <Pocket>  (380) 
nan

>  <ATP_Site>  (380) 
nan

>  <Peripheral>  (380) 
nan

>  <Num_H_Atoms_ProtBoundConf>  (380) 
nan

>  <Num_Resolved_Atoms>  (380) 
nan

>  <Num_Not_Resolved_Atoms>  (380) 
nan

$$$$
CHEMBL3654847
     RDKit          3D

  0  0  0  0  0  0  0  0  0  0999 V3000
M  V30 BEGIN CTAB
M  V30 COUNTS 44 47 0 0 0
M  V30 BEGIN ATOM
M  V30 1 O 2.470126 0.729219 1.049566 0
M  V30 2 C 2.419576 0.554873 2.288617 0
M  V30 3 N 3.508898 0.399261 3.160389 0
M  V30 4 C 4.857741 0.436812 2.617363 0
M  V30 5 C 4.979058 -0.681426 1.612584 0
M  V30 6 C 4.729603 -2.049326 2.259562 0
M  V30 7 C 5.407571 -2.916574 1.210589 0
M  V30 8 O 6.500162 -2.213992 0.747330 0
M  V30 9 C 6.414613 -0.899864 1.179342 0
M  V30 10 N 1.063915 0.531041 2.736317 0
M  V30 11 C -0.094531 0.678185 1.938350 0
M  V30 12 C -0.790141 1.811795 1.585964 0
M  V30 13 C -1.900699 1.725149 0.793367 0
M  V30 14 N -2.725407 2.665116 0.326590 0
M  V30 15 N -3.656187 2.064951 -0.401682 0
M  V30 16 C -3.464379 0.730888 -0.428407 0
M  V30 17 C -4.275482 -0.263966 -1.120286 0
M  V30 18 C -5.670216 -0.240810 -1.068644 0
M  V30 19 C -6.405317 -1.211180 -1.744921 0
M  V30 20 C -5.795931 -2.219261 -2.481996 0
M  V30 21 F -6.518758 -3.160388 -3.137639 0
M  V30 22 C -4.417776 -2.256631 -2.543398 0
M  V30 23 C -3.716337 -1.282754 -1.863764 0
M  V30 24 C -2.338934 0.493851 0.335413 0
M  V30 25 C -1.637027 -0.638280 0.692410 0
M  V30 26 N -0.529135 -0.537975 1.484789 0
M  V30 27 H 3.341948 0.257485 4.193946 0
M  V30 28 H 5.593520 0.244214 3.413821 0
M  V30 29 H 5.023719 1.371474 2.084001 0
M  V30 30 H 4.396017 -0.548531 0.700023 0
M  V30 31 H 5.328849 -2.112996 3.173688 0
M  V30 32 H 3.668598 -2.256303 2.379060 0
M  V30 33 H 4.673948 -3.076555 0.368450 0
M  V30 34 H 5.648912 -3.925941 1.597977 0
M  V30 35 H 6.657379 -0.174495 0.377542 0
M  V30 36 H 7.048359 -0.783052 2.077673 0
M  V30 37 H 0.840953 0.393300 3.752973 0
M  V30 38 H -0.374994 2.697675 1.985772 0
M  V30 39 H -2.657520 3.690944 0.498804 0
M  V30 40 H -6.168929 0.534923 -0.500701 0
M  V30 41 H -7.489225 -1.217620 -1.722298 0
M  V30 42 H -3.934832 -3.034237 -3.112287 0
M  V30 43 H -2.639792 -1.374401 -1.956446 0
M  V30 44 H -1.974032 -1.605417 0.337787 0
M  V30 END ATOM
M  V30 BEGIN BOND
M  V30 1 2 1 2
M  V30 2 1 2 3
M  V30 3 1 3 4
M  V30 4 1 4 5
M  V30 5 1 5 6
M  V30 6 1 6 7
M  V30 7 1 7 8
M  V30 8 1 8 9
M  V30 9 1 2 10
M  V30 10 1 10 11
M  V30 11 2 11 12
M  V30 12 1 12 13
M  V30 13 1 13 14
M  V30 14 1 14 15
M  V30 15 2 15 16
M  V30 16 1 16 17
M  V30 17 2 17 18
M  V30 18 1 18 19
M  V30 19 2 19 20
M  V30 20 1 20 21
M  V30 21 1 20 22
M  V30 22 2 22 23
M  V30 23 1 16 24
M  V30 24 1 24 25
M  V30 25 2 25 26
M  V30 26 1 9 5
M  V30 27 1 26 11
M  V30 28 2 24 13
M  V30 29 1 23 17
M  V30 30 1 3 27
M  V30 31 1 4 28
M  V30 32 1 4 29
M  V30 33 1 5 30
M  V30 34 1 6 31
M  V30 35 1 6 32
M  V30 36 1 7 33
M  V30 37 1 7 34
M  V30 38 1 9 35
M  V30 39 1 9 36
M  V30 40 1 10 37
M  V30 41 1 12 38
M  V30 42 1 14 39
M  V30 43 1 18 40
M  V30 44 1 19 41
M  V30 45 1 22 42
M  V30 46 1 23 43
M  V30 47 1 25 44
M  V30 END BOND
M  V30 END CTAB
M  END
>  <Dataset>  (381) 
ChEMBL_Kinases

>  <Ligand_Instance>  (381) 
nan

>  <PDB_ID>  (381) 
nan

>  <Standardized_SMILES>  (381) 
O=C(NCC1CCOC1)Nc1cc2[nH]nc(-c3ccc(F)cc3)c2cn1

>  <Name>  (381) 
nan

>  <Pocket>  (381) 
nan

>  <ATP_Site>  (381) 
nan

>  <Peripheral>  (381) 
nan

>  <Num_H_Atoms_ProtBoundConf>  (381) 
nan

>  <Num_Resolved_Atoms>  (381) 
nan

>  <Num_Not_Resolved_Atoms>  (381) 
nan

$$$$
CHEMBL3654846
     RDKit          3D

  0  0  0  0  0  0  0  0  0  0999 V3000
M  V30 BEGIN CTAB
M  V30 COUNTS 47 50 0 0 0
M  V30 BEGIN ATOM
M  V30 1 O 1.069328 -1.374118 -0.758854 0
M  V30 2 C 1.751558 -1.744892 0.217839 0
M  V30 3 N 3.082384 -2.167625 -0.050756 0
M  V30 4 C 3.604693 -2.165462 -1.371924 0
M  V30 5 C 3.681859 -0.867312 -2.082118 0
M  V30 6 C 4.532578 0.190041 -1.499454 0
M  V30 7 C 5.986057 -0.208009 -1.363631 0
M  V30 8 C 6.140869 -0.376439 0.122799 0
M  V30 9 O 4.999715 0.052460 0.764406 0
M  V30 10 C 4.205905 0.710028 -0.159171 0
M  V30 11 N 1.253929 -1.757855 1.555376 0
M  V30 12 C -0.085223 -1.323784 1.762712 0
M  V30 13 C -0.220261 0.031139 2.009699 0
M  V30 14 C -1.448532 0.573650 2.224762 0
M  V30 15 N -1.887867 1.811196 2.481612 0
M  V30 16 N -3.217818 1.739730 2.600869 0
M  V30 17 C -3.652675 0.485317 2.427598 0
M  V30 18 C -5.054893 0.087484 2.497730 0
M  V30 19 C -5.979245 0.891229 1.834938 0
M  V30 20 C -7.335899 0.629427 1.820918 0
M  V30 21 C -7.800602 -0.481246 2.495210 0
M  V30 22 F -9.128966 -0.788012 2.515023 0
M  V30 23 C -6.899649 -1.291469 3.159065 0
M  V30 24 C -5.529669 -1.024160 3.171270 0
M  V30 25 C -2.525078 -0.294941 2.181501 0
M  V30 26 C -2.416457 -1.652477 1.936678 0
M  V30 27 N -1.169727 -2.146898 1.728081 0
M  V30 28 H 3.706123 -2.489655 0.719592 0
M  V30 29 H 2.905329 -2.815380 -1.982793 0
M  V30 30 H 4.579106 -2.737115 -1.446959 0
M  V30 31 H 2.649950 -0.478139 -2.237642 0
M  V30 32 H 4.088278 -1.088760 -3.112054 0
M  V30 33 H 4.517393 1.054669 -2.227449 0
M  V30 34 H 6.251136 -1.102014 -1.930357 0
M  V30 35 H 6.659859 0.614073 -1.681595 0
M  V30 36 H 7.002146 0.236358 0.515068 0
M  V30 37 H 6.351794 -1.428812 0.397595 0
M  V30 38 H 4.526927 1.798109 -0.079512 0
M  V30 39 H 3.174759 0.704681 0.169589 0
M  V30 40 H 1.893880 -2.083715 2.312878 0
M  V30 41 H 0.632221 0.711978 2.042755 0
M  V30 42 H -1.298468 2.675599 2.572347 0
M  V30 43 H -5.629855 1.763912 1.302946 0
M  V30 44 H -8.019869 1.290034 1.286672 0
M  V30 45 H -7.272377 -2.161304 3.685925 0
M  V30 46 H -4.808393 -1.642877 3.682830 0
M  V30 47 H -3.276168 -2.302913 1.909583 0
M  V30 END ATOM
M  V30 BEGIN BOND
M  V30 1 2 1 2
M  V30 2 1 2 3
M  V30 3 1 3 4
M  V30 4 1 4 5
M  V30 5 1 5 6
M  V30 6 1 6 7
M  V30 7 1 7 8
M  V30 8 1 8 9
M  V30 9 1 9 10
M  V30 10 1 2 11
M  V30 11 1 11 12
M  V30 12 2 12 13
M  V30 13 1 13 14
M  V30 14 1 14 15
M  V30 15 1 15 16
M  V30 16 2 16 17
M  V30 17 1 17 18
M  V30 18 2 18 19
M  V30 19 1 19 20
M  V30 20 2 20 21
M  V30 21 1 21 22
M  V30 22 1 21 23
M  V30 23 2 23 24
M  V30 24 1 17 25
M  V30 25 1 25 26
M  V30 26 2 26 27
M  V30 27 1 10 6
M  V30 28 1 27 12
M  V30 29 2 25 14
M  V30 30 1 24 18
M  V30 31 1 3 28
M  V30 32 1 4 29
M  V30 33 1 4 30
M  V30 34 1 5 31
M  V30 35 1 5 32
M  V30 36 1 6 33
M  V30 37 1 7 34
M  V30 38 1 7 35
M  V30 39 1 8 36
M  V30 40 1 8 37
M  V30 41 1 10 38
M  V30 42 1 10 39
M  V30 43 1 11 40
M  V30 44 1 13 41
M  V30 45 1 15 42
M  V30 46 1 19 43
M  V30 47 1 20 44
M  V30 48 1 23 45
M  V30 49 1 24 46
M  V30 50 1 26 47
M  V30 END BOND
M  V30 END CTAB
M  END
>  <Dataset>  (382) 
ChEMBL_Kinases

>  <Ligand_Instance>  (382) 
nan

>  <PDB_ID>  (382) 
nan

>  <Standardized_SMILES>  (382) 
O=C(NCCC1CCOC1)Nc1cc2[nH]nc(-c3ccc(F)cc3)c2cn1

>  <Name>  (382) 
nan

>  <Pocket>  (382) 
nan

>  <ATP_Site>  (382) 
nan

>  <Peripheral>  (382) 
nan

>  <Num_H_Atoms_ProtBoundConf>  (382) 
nan

>  <Num_Resolved_Atoms>  (382) 
nan

>  <Num_Not_Resolved_Atoms>  (382) 
nan

$$$$
CHEMBL3654845
     RDKit          3D

  0  0  0  0  0  0  0  0  0  0999 V3000
M  V30 BEGIN CTAB
M  V30 COUNTS 50 53 0 0 0
M  V30 BEGIN ATOM
M  V30 1 C -1.223389 -6.541550 0.856666 0
M  V30 2 C -0.484916 -5.875904 -0.273748 0
M  V30 3 C 0.556609 -4.915909 0.168744 0 CFG=1
M  V30 4 N 0.136674 -3.807433 0.960452 0
M  V30 5 C 0.252880 -2.436273 0.599505 0
M  V30 6 O 0.746747 -2.012278 -0.478082 0
M  V30 7 N -0.246820 -1.521684 1.576391 0
M  V30 8 C -0.210595 -0.111216 1.380510 0
M  V30 9 C 0.822583 0.728890 1.749105 0
M  V30 10 C 0.714455 2.084699 1.492767 0
M  V30 11 N 1.577405 3.083332 1.755911 0
M  V30 12 N 1.046145 4.210886 1.331182 0
M  V30 13 C -0.177195 3.960719 0.782394 0
M  V30 14 C -1.095639 4.932349 0.195629 0
M  V30 15 C -2.452979 4.969371 0.440256 0
M  V30 16 C -3.298020 5.900195 -0.128866 0
M  V30 17 N -2.795134 6.831846 -0.970792 0
M  V30 18 C -1.470358 6.785841 -1.201706 0
M  V30 19 C -0.887560 7.810681 -2.134028 0
M  V30 20 C -0.568588 5.883851 -0.666943 0
M  V30 21 C -0.407324 2.603966 0.876654 0
M  V30 22 C -1.428403 1.742424 0.517049 0
M  V30 23 N -1.305966 0.422979 0.774765 0
M  V30 24 C 1.687244 -5.685823 0.749869 0
M  V30 25 C 1.730503 -6.037593 2.059611 0
M  V30 26 C 2.743243 -6.748100 2.665180 0
M  V30 27 C 3.823590 -7.149094 1.885457 0
M  V30 28 C 3.773184 -6.788129 0.554764 0
M  V30 29 N 2.755886 -6.093738 0.023554 0
M  V30 30 H -1.254543 -5.931709 1.793540 0
M  V30 31 H -2.273471 -6.804647 0.532909 0
M  V30 32 H -0.795760 -7.526744 1.156798 0
M  V30 33 H 0.072414 -6.704058 -0.784049 0
M  V30 34 H -1.171516 -5.496125 -1.067090 0
M  V30 35 H 0.987682 -4.468102 -0.775479 0
M  V30 36 H -0.279836 -4.120339 1.864898 0
M  V30 37 H -0.662402 -1.834527 2.479673 0
M  V30 38 H 1.656215 0.250547 2.220891 0
M  V30 39 H 2.517683 2.954677 2.226092 0
M  V30 40 H -2.871384 4.233597 1.109318 0
M  V30 41 H -4.361074 5.907464 0.080074 0
M  V30 42 H -1.666347 8.116329 -2.851126 0
M  V30 43 H 0.020286 7.414394 -2.635992 0
M  V30 44 H -0.514693 8.675209 -1.520797 0
M  V30 45 H 0.479991 5.929684 -0.915101 0
M  V30 46 H -2.307878 2.156959 0.032867 0
M  V30 47 H 0.940270 -5.774035 2.749109 0
M  V30 48 H 2.788912 -7.033449 3.704758 0
M  V30 49 H 4.658876 -7.708367 2.278427 0
M  V30 50 H 4.623837 -7.105502 -0.052706 0
M  V30 END ATOM
M  V30 BEGIN BOND
M  V30 1 1 1 2
M  V30 2 1 2 3
M  V30 3 1 3 4
M  V30 4 1 4 5
M  V30 5 2 5 6
M  V30 6 1 5 7
M  V30 7 1 7 8
M  V30 8 2 8 9
M  V30 9 1 9 10
M  V30 10 1 10 11
M  V30 11 1 11 12
M  V30 12 2 12 13
M  V30 13 1 13 14
M  V30 14 2 14 15
M  V30 15 1 15 16
M  V30 16 2 16 17
M  V30 17 1 17 18
M  V30 18 1 18 19
M  V30 19 2 18 20
M  V30 20 1 13 21
M  V30 21 1 21 22
M  V30 22 2 22 23
M  V30 23 1 3 24
M  V30 24 2 24 25
M  V30 25 1 25 26
M  V30 26 2 26 27
M  V30 27 1 27 28
M  V30 28 2 28 29
M  V30 29 1 23 8
M  V30 30 1 29 24
M  V30 31 2 21 10
M  V30 32 1 20 14
M  V30 33 1 1 30
M  V30 34 1 1 31
M  V30 35 1 1 32
M  V30 36 1 2 33
M  V30 37 1 2 34
M  V30 38 1 3 35 CFG=3
M  V30 39 1 4 36
M  V30 40 1 7 37
M  V30 41 1 9 38
M  V30 42 1 11 39
M  V30 43 1 15 40
M  V30 44 1 16 41
M  V30 45 1 19 42
M  V30 46 1 19 43
M  V30 47 1 19 44
M  V30 48 1 20 45
M  V30 49 1 22 46
M  V30 50 1 25 47
M  V30 51 1 26 48
M  V30 52 1 27 49
M  V30 53 1 28 50
M  V30 END BOND
M  V30 END CTAB
M  END
>  <Dataset>  (383) 
ChEMBL_Kinases

>  <Ligand_Instance>  (383) 
nan

>  <PDB_ID>  (383) 
nan

>  <Standardized_SMILES>  (383) 
CC[C@@H](NC(=O)Nc1cc2[nH]nc(-c3ccnc(C)c3)c2cn1)c1ccccn1

>  <Name>  (383) 
nan

>  <Pocket>  (383) 
nan

>  <ATP_Site>  (383) 
nan

>  <Peripheral>  (383) 
nan

>  <Num_H_Atoms_ProtBoundConf>  (383) 
nan

>  <Num_Resolved_Atoms>  (383) 
nan

>  <Num_Not_Resolved_Atoms>  (383) 
nan

$$$$
CHEMBL3655544
     RDKit          3D

  0  0  0  0  0  0  0  0  0  0999 V3000
M  V30 BEGIN CTAB
M  V30 COUNTS 58 62 0 0 0
M  V30 BEGIN ATOM
M  V30 1 C 2.535780 -2.758199 3.165123 0
M  V30 2 N 3.504310 -1.681608 2.916610 0
M  V30 3 C 4.268070 -1.608005 4.153789 0
M  V30 4 C 3.923327 -0.734575 1.905461 0
M  V30 5 O 4.874236 0.084830 2.123867 0
M  V30 6 C 3.533076 -0.399753 0.545501 0
M  V30 7 C 4.475008 -0.601720 -0.479521 0
M  V30 8 C 4.156599 -0.289917 -1.807613 0
M  V30 9 C 2.908818 0.215060 -2.076216 0
M  V30 10 C 1.949752 0.433240 -1.115793 0
M  V30 11 C 0.668459 0.996177 -1.518709 0
M  V30 12 C -0.387522 1.277381 -0.682264 0
M  V30 13 C -1.590959 1.837930 -1.142042 0
M  V30 14 C -2.538261 2.007918 -0.047443 0
M  V30 15 N -3.057439 3.223083 0.207723 0
M  V30 16 N -3.894395 3.139274 1.245570 0
M  V30 17 C -3.944316 1.866159 1.694157 0
M  V30 18 C -4.579839 1.121961 2.677523 0
M  V30 19 C -4.360977 -0.244752 2.813899 0
M  V30 20 N -3.517526 -0.885086 1.983195 0
M  V30 21 C -2.880239 -0.207579 1.016927 0
M  V30 22 O -2.026238 -0.900293 0.175090 0
M  V30 23 C -1.863933 -2.309511 0.389167 0
M  V30 24 C -2.623057 -3.094372 -0.646005 0
M  V30 25 C -1.934912 -4.285719 -1.202583 0
M  V30 26 O -0.583898 -4.198942 -1.327182 0
M  V30 27 C -0.060651 -2.949761 -1.051653 0
M  V30 28 C -0.424541 -2.678545 0.420778 0
M  V30 29 C -3.086264 1.142168 0.875974 0
M  V30 30 C -1.696057 2.108258 -2.480202 0
M  V30 31 C -0.630391 1.821007 -3.310321 0
M  V30 32 N 0.509551 1.279879 -2.820025 0
M  V30 33 C 2.323365 0.108940 0.149517 0
M  V30 34 H 1.892252 -2.817118 2.276190 0
M  V30 35 H 3.045049 -3.699652 3.367697 0
M  V30 36 H 1.857179 -2.452491 3.998287 0
M  V30 37 H 4.748110 -2.604670 4.337290 0
M  V30 38 H 3.580908 -1.433138 5.007685 0
M  V30 39 H 5.032413 -0.797694 4.147197 0
M  V30 40 H 5.439507 -0.999962 -0.203794 0
M  V30 41 H 4.933113 -0.471666 -2.548181 0
M  V30 42 H 2.788481 0.415342 -3.138401 0
M  V30 43 H -0.162499 1.024821 0.361553 0
M  V30 44 H -4.492035 3.817050 1.761050 0
M  V30 45 H -5.249706 1.678405 3.321380 0
M  V30 46 H -4.904608 -0.692477 3.605814 0
M  V30 47 H -2.311648 -2.494632 1.387530 0
M  V30 48 H -3.625431 -3.361059 -0.191697 0
M  V30 49 H -2.869783 -2.408199 -1.481966 0
M  V30 50 H -2.387535 -4.590287 -2.181293 0
M  V30 51 H -2.161952 -5.154431 -0.516564 0
M  V30 52 H 1.023814 -3.005547 -1.137958 0
M  V30 53 H -0.476942 -2.163706 -1.717745 0
M  V30 54 H -0.294708 -3.631820 0.962503 0
M  V30 55 H 0.227471 -1.884695 0.837109 0
M  V30 56 H -2.655702 2.536357 -2.727181 0
M  V30 57 H -0.785086 2.061153 -4.351118 0
M  V30 58 H 1.605008 0.257340 0.959576 0
M  V30 END ATOM
M  V30 BEGIN BOND
M  V30 1 1 1 2
M  V30 2 1 2 3
M  V30 3 1 2 4
M  V30 4 2 4 5
M  V30 5 1 4 6
M  V30 6 2 6 7
M  V30 7 1 7 8
M  V30 8 2 8 9
M  V30 9 1 9 10
M  V30 10 1 10 11
M  V30 11 2 11 12
M  V30 12 1 12 13
M  V30 13 1 13 14
M  V30 14 2 14 15
M  V30 15 1 15 16
M  V30 16 1 16 17
M  V30 17 2 17 18
M  V30 18 1 18 19
M  V30 19 2 19 20
M  V30 20 1 20 21
M  V30 21 1 21 22
M  V30 22 1 22 23
M  V30 23 1 23 24
M  V30 24 1 24 25
M  V30 25 1 25 26
M  V30 26 1 26 27
M  V30 27 1 27 28
M  V30 28 2 21 29
M  V30 29 2 13 30
M  V30 30 1 30 31
M  V30 31 2 31 32
M  V30 32 2 10 33
M  V30 33 1 33 6
M  V30 34 1 32 11
M  V30 35 1 29 14
M  V30 36 1 29 17
M  V30 37 1 28 23
M  V30 38 1 1 34
M  V30 39 1 1 35
M  V30 40 1 1 36
M  V30 41 1 3 37
M  V30 42 1 3 38
M  V30 43 1 3 39
M  V30 44 1 7 40
M  V30 45 1 8 41
M  V30 46 1 9 42
M  V30 47 1 12 43
M  V30 48 1 16 44
M  V30 49 1 18 45
M  V30 50 1 19 46
M  V30 51 1 23 47
M  V30 52 1 24 48
M  V30 53 1 24 49
M  V30 54 1 25 50
M  V30 55 1 25 51
M  V30 56 1 27 52
M  V30 57 1 27 53
M  V30 58 1 28 54
M  V30 59 1 28 55
M  V30 60 1 30 56
M  V30 61 1 31 57
M  V30 62 1 33 58
M  V30 END BOND
M  V30 END CTAB
M  END
>  <Dataset>  (384) 
ChEMBL_Kinases

>  <Ligand_Instance>  (384) 
nan

>  <PDB_ID>  (384) 
nan

>  <Standardized_SMILES>  (384) 
CN(C)C(=O)c1cccc(-c2cc(-c3n[nH]c4ccnc(OC5CCOCC5)c34)ccn2)c1

>  <Name>  (384) 
nan

>  <Pocket>  (384) 
nan

>  <ATP_Site>  (384) 
nan

>  <Peripheral>  (384) 
nan

>  <Num_H_Atoms_ProtBoundConf>  (384) 
nan

>  <Num_Resolved_Atoms>  (384) 
nan

>  <Num_Not_Resolved_Atoms>  (384) 
nan

$$$$
CHEMBL3654828
     RDKit          3D

  0  0  0  0  0  0  0  0  0  0999 V3000
M  V30 BEGIN CTAB
M  V30 COUNTS 40 43 0 0 0
M  V30 BEGIN ATOM
M  V30 1 C -2.416297 -6.782924 3.545236 0
M  V30 2 C -1.428164 -5.742320 3.114728 0
M  V30 3 C -1.763649 -4.412411 3.045614 0
M  V30 4 C -0.821541 -3.464729 2.640857 0
M  V30 5 C -1.155699 -2.052711 2.560855 0
M  V30 6 N -1.821718 -1.287603 3.432675 0
M  V30 7 N -1.923385 -0.026849 2.990047 0
M  V30 8 C -1.308895 0.043900 1.794820 0
M  V30 9 C -1.154088 1.129820 0.956187 0
M  V30 10 C -0.473884 0.932455 -0.228118 0
M  V30 11 N -0.192046 1.894838 -1.244267 0
M  V30 12 C 1.004283 2.666361 -1.204830 0
M  V30 13 O 1.805834 2.461828 -0.230649 0
M  V30 14 N 1.406032 3.651835 -2.145819 0
M  V30 15 C 2.690047 4.294617 -1.860072 0
M  V30 16 C 2.808460 5.015876 -0.589170 0
M  V30 17 N 2.918127 5.592778 0.419726 0
M  V30 18 C 3.568809 4.676403 -2.985632 0
M  V30 19 C 3.956365 3.460465 -2.230998 0
M  V30 20 N 0.007374 -0.291566 -0.520320 0
M  V30 21 C -0.150971 -1.344157 0.308221 0
M  V30 22 C -0.823849 -1.216751 1.513906 0
M  V30 23 C 0.432169 -3.969739 2.328104 0
M  V30 24 C 0.771961 -5.304404 2.396531 0
M  V30 25 N -0.182441 -6.177158 2.795406 0
M  V30 26 H -3.407215 -6.459343 3.185543 0
M  V30 27 H -2.126080 -7.767453 3.118280 0
M  V30 28 H -2.466054 -6.881419 4.633827 0
M  V30 29 H -2.752713 -4.100776 3.303449 0
M  V30 30 H -2.408210 0.761897 3.508038 0
M  V30 31 H -1.501963 2.119112 1.114816 0
M  V30 32 H -0.791409 2.122508 -2.070885 0
M  V30 33 H 0.703226 3.775134 -2.926390 0
M  V30 34 H 4.211016 5.572718 -2.847609 0
M  V30 35 H 3.226882 4.560586 -4.044654 0
M  V30 36 H 3.739061 2.438927 -2.561106 0
M  V30 37 H 4.808372 3.517931 -1.504982 0
M  V30 38 H 0.247710 -2.312014 0.042921 0
M  V30 39 H 1.208680 -3.298522 2.008552 0
M  V30 40 H 1.759345 -5.645583 2.142991 0
M  V30 END ATOM
M  V30 BEGIN BOND
M  V30 1 1 1 2
M  V30 2 2 2 3
M  V30 3 1 3 4
M  V30 4 1 4 5
M  V30 5 2 5 6
M  V30 6 1 6 7
M  V30 7 1 7 8
M  V30 8 2 8 9
M  V30 9 1 9 10
M  V30 10 1 10 11
M  V30 11 1 11 12
M  V30 12 2 12 13
M  V30 13 1 12 14
M  V30 14 1 14 15
M  V30 15 1 15 16
M  V30 16 3 16 17
M  V30 17 1 15 18
M  V30 18 1 18 19
M  V30 19 2 10 20
M  V30 20 1 20 21
M  V30 21 2 21 22
M  V30 22 2 4 23
M  V30 23 1 23 24
M  V30 24 2 24 25
M  V30 25 1 25 2
M  V30 26 1 22 5
M  V30 27 1 22 8
M  V30 28 1 19 15
M  V30 29 1 1 26
M  V30 30 1 1 27
M  V30 31 1 1 28
M  V30 32 1 3 29
M  V30 33 1 7 30
M  V30 34 1 9 31
M  V30 35 1 11 32
M  V30 36 1 14 33
M  V30 37 1 18 34
M  V30 38 1 18 35
M  V30 39 1 19 36
M  V30 40 1 19 37
M  V30 41 1 21 38
M  V30 42 1 23 39
M  V30 43 1 24 40
M  V30 END BOND
M  V30 END CTAB
M  END
>  <Dataset>  (385) 
ChEMBL_Kinases

>  <Ligand_Instance>  (385) 
nan

>  <PDB_ID>  (385) 
nan

>  <Standardized_SMILES>  (385) 
Cc1cc(-c2n[nH]c3cc(NC(=O)NC4(C#N)CC4)ncc23)ccn1

>  <Name>  (385) 
nan

>  <Pocket>  (385) 
nan

>  <ATP_Site>  (385) 
nan

>  <Peripheral>  (385) 
nan

>  <Num_H_Atoms_ProtBoundConf>  (385) 
nan

>  <Num_Resolved_Atoms>  (385) 
nan

>  <Num_Not_Resolved_Atoms>  (385) 
nan

$$$$
CHEMBL3654829
     RDKit          3D

  0  0  0  0  0  0  0  0  0  0999 V3000
M  V30 BEGIN CTAB
M  V30 COUNTS 45 47 0 0 0
M  V30 BEGIN ATOM
M  V30 1 C 5.559915 -3.804059 -2.301546 0
M  V30 2 O 4.855115 -3.280824 -1.221152 0
M  V30 3 C 4.994405 -4.131461 -0.113066 0
M  V30 4 C 4.222981 -3.546708 1.051963 0
M  V30 5 C 4.383396 -4.454301 2.228346 0
M  V30 6 N 2.813274 -3.450458 0.636709 0
M  V30 7 C 2.154988 -2.215315 0.622786 0
M  V30 8 O 2.621194 -1.100353 0.933702 0
M  V30 9 N 0.794396 -2.230107 0.205563 0
M  V30 10 C -0.071628 -1.099614 0.113088 0
M  V30 11 C -0.250264 -0.287305 -0.990536 0
M  V30 12 C -1.145029 0.758596 -0.858671 0
M  V30 13 N -1.488093 1.680781 -1.783792 0
M  V30 14 N -2.381618 2.491333 -1.213924 0
M  V30 15 C -2.615115 2.095662 0.072207 0
M  V30 16 C -3.523392 2.711944 1.041446 0
M  V30 17 C -4.804460 3.069254 0.600354 0
M  V30 18 C -5.710141 3.659479 1.481526 0
M  V30 19 N -5.354696 3.889596 2.767372 0
M  V30 20 C -4.123212 3.553523 3.217577 0
M  V30 21 C -3.665329 3.776348 4.615201 0
M  V30 22 C -3.206646 2.968085 2.367600 0
M  V30 23 C -1.831995 0.987790 0.316958 0
M  V30 24 C -1.618944 0.138821 1.408464 0
M  V30 25 N -0.734961 -0.893744 1.276872 0
M  V30 26 H 5.149278 -4.807727 -2.542666 0
M  V30 27 H 5.486587 -3.112568 -3.144668 0
M  V30 28 H 6.619645 -3.933840 -2.012308 0
M  V30 29 H 6.083510 -4.154377 0.105632 0
M  V30 30 H 4.693144 -5.163095 -0.339223 0
M  V30 31 H 4.556231 -2.533088 1.305304 0
M  V30 32 H 3.416901 -4.988066 2.464222 0
M  V30 33 H 4.782737 -3.951641 3.132784 0
M  V30 34 H 5.090230 -5.265725 1.974174 0
M  V30 35 H 2.340698 -4.341071 0.357982 0
M  V30 36 H 0.247562 -3.081017 -0.090050 0
M  V30 37 H 0.329085 -0.544593 -1.862790 0
M  V30 38 H -1.126000 1.755010 -2.768473 0
M  V30 39 H -5.169373 2.915720 -0.427541 0
M  V30 40 H -6.712407 3.959573 1.208160 0
M  V30 41 H -3.334926 2.823206 5.091472 0
M  V30 42 H -4.383365 4.340828 5.222082 0
M  V30 43 H -2.733395 4.405584 4.537747 0
M  V30 44 H -2.220042 2.692648 2.705562 0
M  V30 45 H -2.161409 0.324270 2.327694 0
M  V30 END ATOM
M  V30 BEGIN BOND
M  V30 1 1 1 2
M  V30 2 1 2 3
M  V30 3 1 3 4
M  V30 4 1 4 5
M  V30 5 1 4 6
M  V30 6 1 6 7
M  V30 7 2 7 8
M  V30 8 1 7 9
M  V30 9 1 9 10
M  V30 10 2 10 11
M  V30 11 1 11 12
M  V30 12 1 12 13
M  V30 13 1 13 14
M  V30 14 2 14 15
M  V30 15 1 15 16
M  V30 16 2 16 17
M  V30 17 1 17 18
M  V30 18 2 18 19
M  V30 19 1 19 20
M  V30 20 1 20 21
M  V30 21 2 20 22
M  V30 22 1 15 23
M  V30 23 1 23 24
M  V30 24 2 24 25
M  V30 25 1 25 10
M  V30 26 2 23 12
M  V30 27 1 22 16
M  V30 28 1 1 26
M  V30 29 1 1 27
M  V30 30 1 1 28
M  V30 31 1 3 29
M  V30 32 1 3 30
M  V30 33 1 4 31
M  V30 34 1 5 32
M  V30 35 1 5 33
M  V30 36 1 5 34
M  V30 37 1 6 35
M  V30 38 1 9 36
M  V30 39 1 11 37
M  V30 40 1 13 38
M  V30 41 1 17 39
M  V30 42 1 18 40
M  V30 43 1 21 41
M  V30 44 1 21 42
M  V30 45 1 21 43
M  V30 46 1 22 44
M  V30 47 1 24 45
M  V30 END BOND
M  V30 END CTAB
M  END
>  <Dataset>  (386) 
ChEMBL_Kinases

>  <Ligand_Instance>  (386) 
nan

>  <PDB_ID>  (386) 
nan

>  <Standardized_SMILES>  (386) 
COCC(C)NC(=O)Nc1cc2[nH]nc(-c3ccnc(C)c3)c2cn1

>  <Name>  (386) 
nan

>  <Pocket>  (386) 
nan

>  <ATP_Site>  (386) 
nan

>  <Peripheral>  (386) 
nan

>  <Num_H_Atoms_ProtBoundConf>  (386) 
nan

>  <Num_Resolved_Atoms>  (386) 
nan

>  <Num_Not_Resolved_Atoms>  (386) 
nan

$$$$
CHEMBL3654830
     RDKit          3D

  0  0  0  0  0  0  0  0  0  0999 V3000
M  V30 BEGIN CTAB
M  V30 COUNTS 45 47 0 0 0
M  V30 BEGIN ATOM
M  V30 1 C -3.778377 -7.528310 1.531522 0
M  V30 2 C -3.940842 -6.053682 1.318804 0
M  V30 3 C -2.974003 -5.154622 1.694659 0
M  V30 4 C -3.119419 -3.786575 1.499832 0
M  V30 5 C -1.981333 -3.003293 1.967557 0
M  V30 6 N -1.279660 -3.085213 3.114917 0
M  V30 7 N -0.314394 -2.173516 3.135454 0
M  V30 8 C -0.378499 -1.480338 1.987862 0
M  V30 9 C 0.360962 -0.437321 1.479549 0
M  V30 10 C 0.163413 0.171251 0.266103 0
M  V30 11 N 0.881145 1.237502 -0.309256 0
M  V30 12 C 1.976981 1.968168 0.176900 0
M  V30 13 O 2.389054 1.630224 1.291746 0
M  V30 14 N 2.618765 3.020069 -0.487634 0
M  V30 15 C 3.751087 3.791200 -0.034943 0
M  V30 16 C 4.067121 4.882198 -1.072554 0
M  V30 17 C 3.559337 4.457483 1.286183 0
M  V30 18 C 5.012897 2.939613 -0.001746 0
M  V30 19 O 4.903932 1.862294 0.846368 0
M  V30 20 N -0.865577 -0.356875 -0.430632 0
M  V30 21 C -1.606362 -1.362343 0.018647 0
M  V30 22 C -1.416047 -1.980083 1.235490 0
M  V30 23 C -4.267344 -3.296559 0.910295 0
M  V30 24 C -5.220401 -4.222282 0.543425 0
M  V30 25 N -5.061420 -5.536926 0.739776 0
M  V30 26 H -4.634760 -8.047018 1.098531 0
M  V30 27 H -2.863503 -7.840419 0.970796 0
M  V30 28 H -3.605129 -7.762779 2.597867 0
M  V30 29 H -2.087504 -5.607081 2.156743 0
M  V30 30 H 0.368165 -2.030953 3.913567 0
M  V30 31 H 1.160907 -0.082296 2.105682 0
M  V30 32 H 0.593134 1.578626 -1.248048 0
M  V30 33 H 2.209102 3.266707 -1.439285 0
M  V30 34 H 3.219390 5.598021 -1.068700 0
M  V30 35 H 4.964632 5.414383 -0.729793 0
M  V30 36 H 4.211515 4.449458 -2.066317 0
M  V30 37 H 4.000836 3.814920 2.085847 0
M  V30 38 H 2.499918 4.687511 1.483072 0
M  V30 39 H 4.118504 5.413001 1.288424 0
M  V30 40 H 5.225787 2.529750 -1.028294 0
M  V30 41 H 5.894998 3.517602 0.270064 0
M  V30 42 H 4.923078 0.983905 0.357955 0
M  V30 43 H -2.424535 -1.735088 -0.607066 0
M  V30 44 H -4.315542 -2.222887 0.788660 0
M  V30 45 H -6.111173 -3.800431 0.082118 0
M  V30 END ATOM
M  V30 BEGIN BOND
M  V30 1 1 1 2
M  V30 2 2 2 3
M  V30 3 1 3 4
M  V30 4 1 4 5
M  V30 5 2 5 6
M  V30 6 1 6 7
M  V30 7 1 7 8
M  V30 8 2 8 9
M  V30 9 1 9 10
M  V30 10 1 10 11
M  V30 11 1 11 12
M  V30 12 2 12 13
M  V30 13 1 12 14
M  V30 14 1 14 15
M  V30 15 1 15 16
M  V30 16 1 15 17
M  V30 17 1 15 18
M  V30 18 1 18 19
M  V30 19 2 10 20
M  V30 20 1 20 21
M  V30 21 2 21 22
M  V30 22 2 4 23
M  V30 23 1 23 24
M  V30 24 2 24 25
M  V30 25 1 25 2
M  V30 26 1 22 5
M  V30 27 1 22 8
M  V30 28 1 1 26
M  V30 29 1 1 27
M  V30 30 1 1 28
M  V30 31 1 3 29
M  V30 32 1 7 30
M  V30 33 1 9 31
M  V30 34 1 11 32
M  V30 35 1 14 33
M  V30 36 1 16 34
M  V30 37 1 16 35
M  V30 38 1 16 36
M  V30 39 1 17 37
M  V30 40 1 17 38
M  V30 41 1 17 39
M  V30 42 1 18 40
M  V30 43 1 18 41
M  V30 44 1 19 42
M  V30 45 1 21 43
M  V30 46 1 23 44
M  V30 47 1 24 45
M  V30 END BOND
M  V30 END CTAB
M  END
>  <Dataset>  (387) 
ChEMBL_Kinases

>  <Ligand_Instance>  (387) 
nan

>  <PDB_ID>  (387) 
nan

>  <Standardized_SMILES>  (387) 
Cc1cc(-c2n[nH]c3cc(NC(=O)NC(C)(C)CO)ncc23)ccn1

>  <Name>  (387) 
nan

>  <Pocket>  (387) 
nan

>  <ATP_Site>  (387) 
nan

>  <Peripheral>  (387) 
nan

>  <Num_H_Atoms_ProtBoundConf>  (387) 
nan

>  <Num_Resolved_Atoms>  (387) 
nan

>  <Num_Not_Resolved_Atoms>  (387) 
nan

$$$$
CHEMBL3654831
     RDKit          3D

  0  0  0  0  0  0  0  0  0  0999 V3000
M  V30 BEGIN CTAB
M  V30 COUNTS 45 47 0 0 0
M  V30 BEGIN ATOM
M  V30 1 C 5.902432 -3.670095 -0.604973 0
M  V30 2 C 5.647348 -2.281224 -0.012225 0
M  V30 3 C 4.561931 -1.673304 -0.840144 0 CFG=2
M  V30 4 C 4.957711 -1.549905 -2.294739 0
M  V30 5 O 5.978554 -0.619455 -2.383570 0
M  V30 6 N 4.112019 -0.382012 -0.364736 0
M  V30 7 C 2.747510 -0.235840 0.034540 0
M  V30 8 O 1.948302 -1.224247 -0.028615 0
M  V30 9 N 2.206113 0.993122 0.516789 0
M  V30 10 C 0.835788 1.083102 0.902076 0
M  V30 11 C 0.301788 2.281510 1.373980 0
M  V30 12 C -1.035211 2.266322 1.721431 0
M  V30 13 N -1.816822 3.254723 2.200373 0
M  V30 14 N -3.048956 2.794051 2.397035 0
M  V30 15 C -3.107770 1.476076 2.047983 0
M  V30 16 C -4.265214 0.586526 2.106370 0
M  V30 17 C -5.462006 1.115831 1.613989 0
M  V30 18 C -6.613767 0.323530 1.636617 0
M  V30 19 N -6.524525 -0.923480 2.133909 0
M  V30 20 C -5.381876 -1.419823 2.600577 0
M  V30 21 C -5.384319 -2.792430 3.123480 0
M  V30 22 C -4.211597 -0.698141 2.609377 0
M  V30 23 C -1.833106 1.142384 1.620436 0
M  V30 24 C -1.252292 -0.026580 1.144363 0
M  V30 25 N 0.056682 -0.018607 0.802285 0
M  V30 26 H 4.984106 -4.056182 -1.118918 0
M  V30 27 H 6.703101 -3.657715 -1.358390 0
M  V30 28 H 6.134315 -4.395306 0.199814 0
M  V30 29 H 5.314424 -2.403725 1.017548 0
M  V30 30 H 6.612938 -1.741659 -0.101320 0
M  V30 31 H 3.685291 -2.363942 -0.800532 0
M  V30 32 H 4.033363 -1.221581 -2.844101 0
M  V30 33 H 5.319383 -2.514664 -2.694126 0
M  V30 34 H 5.874693 -0.009409 -3.153196 0
M  V30 35 H 4.726187 0.452432 -0.295510 0
M  V30 36 H 2.819352 1.824306 0.585362 0
M  V30 37 H 0.934724 3.146328 1.446692 0
M  V30 38 H -1.500417 4.248878 2.392100 0
M  V30 39 H -5.502004 2.137190 1.214730 0
M  V30 40 H -7.507642 0.781259 1.245054 0
M  V30 41 H -4.747327 -2.774747 4.051172 0
M  V30 42 H -6.387539 -3.152207 3.421858 0
M  V30 43 H -4.864408 -3.466749 2.417806 0
M  V30 44 H -3.270422 -1.081682 2.984107 0
M  V30 45 H -1.852002 -0.925862 1.053387 0
M  V30 END ATOM
M  V30 BEGIN BOND
M  V30 1 1 1 2
M  V30 2 1 2 3
M  V30 3 1 3 4
M  V30 4 1 4 5
M  V30 5 1 3 6
M  V30 6 1 6 7
M  V30 7 2 7 8
M  V30 8 1 7 9
M  V30 9 1 9 10
M  V30 10 2 10 11
M  V30 11 1 11 12
M  V30 12 1 12 13
M  V30 13 1 13 14
M  V30 14 2 14 15
M  V30 15 1 15 16
M  V30 16 2 16 17
M  V30 17 1 17 18
M  V30 18 2 18 19
M  V30 19 1 19 20
M  V30 20 1 20 21
M  V30 21 2 20 22
M  V30 22 1 15 23
M  V30 23 1 23 24
M  V30 24 2 24 25
M  V30 25 1 25 10
M  V30 26 2 23 12
M  V30 27 1 22 16
M  V30 28 1 1 26
M  V30 29 1 1 27
M  V30 30 1 1 28
M  V30 31 1 2 29
M  V30 32 1 2 30
M  V30 33 1 3 31 CFG=3
M  V30 34 1 4 32
M  V30 35 1 4 33
M  V30 36 1 5 34
M  V30 37 1 6 35
M  V30 38 1 9 36
M  V30 39 1 11 37
M  V30 40 1 13 38
M  V30 41 1 17 39
M  V30 42 1 18 40
M  V30 43 1 21 41
M  V30 44 1 21 42
M  V30 45 1 21 43
M  V30 46 1 22 44
M  V30 47 1 24 45
M  V30 END BOND
M  V30 END CTAB
M  END
>  <Dataset>  (388) 
ChEMBL_Kinases

>  <Ligand_Instance>  (388) 
nan

>  <PDB_ID>  (388) 
nan

>  <Standardized_SMILES>  (388) 
CC[C@H](CO)NC(=O)Nc1cc2[nH]nc(-c3ccnc(C)c3)c2cn1

>  <Name>  (388) 
nan

>  <Pocket>  (388) 
nan

>  <ATP_Site>  (388) 
nan

>  <Peripheral>  (388) 
nan

>  <Num_H_Atoms_ProtBoundConf>  (388) 
nan

>  <Num_Resolved_Atoms>  (388) 
nan

>  <Num_Not_Resolved_Atoms>  (388) 
nan

$$$$
CHEMBL3654832
     RDKit          3D

  0  0  0  0  0  0  0  0  0  0999 V3000
M  V30 BEGIN CTAB
M  V30 COUNTS 50 53 0 0 0
M  V30 BEGIN ATOM
M  V30 1 C -1.534506 -6.540674 -3.096473 0
M  V30 2 C -0.391149 -5.819381 -3.715271 0
M  V30 3 C 0.224507 -4.787537 -3.075123 0
M  V30 4 C 1.288924 -4.047692 -3.547841 0
M  V30 5 C 1.903300 -2.951034 -2.807741 0
M  V30 6 N 3.241658 -2.743313 -2.657016 0
M  V30 7 N 3.438932 -1.649026 -1.922093 0
M  V30 8 C 2.245097 -1.126287 -1.582129 0
M  V30 9 C 1.862283 -0.024403 -0.847122 0
M  V30 10 C 0.531046 0.283574 -0.652249 0
M  V30 11 N 0.240006 1.443358 0.122339 0
M  V30 12 C 0.076114 1.388922 1.540906 0
M  V30 13 O 0.206167 0.243083 2.066201 0
M  V30 14 N -0.212591 2.577593 2.256203 0
M  V30 15 C -0.359986 2.429563 3.669665 0 CFG=1
M  V30 16 C 0.530813 3.345321 4.481116 0
M  V30 17 N -0.003685 3.089773 5.824595 0
M  V30 18 C 0.601608 1.835241 6.272421 0
M  V30 19 C -1.433775 2.955813 5.668733 0
M  V30 20 C -1.717774 2.879512 4.175060 0 CFG=2
M  V30 21 C -2.820563 1.926411 3.837839 0
M  V30 22 N -0.413432 -0.529264 -1.205038 0
M  V30 23 C -0.063733 -1.612075 -1.927552 0
M  V30 24 C 1.261877 -1.933954 -2.131785 0
M  V30 25 C 1.732198 -4.434638 -4.796129 0
M  V30 26 C 1.119713 -5.468757 -5.444460 0
M  V30 27 N 0.083553 -6.152640 -4.929347 0
M  V30 28 H -1.448368 -7.631158 -3.269797 0
M  V30 29 H -2.492413 -6.215452 -3.558453 0
M  V30 30 H -1.526350 -6.308676 -2.001235 0
M  V30 31 H -0.176536 -4.531189 -2.087536 0
M  V30 32 H 4.343264 -1.205492 -1.617114 0
M  V30 33 H 2.631397 0.590128 -0.428721 0
M  V30 34 H 0.144371 2.369156 -0.379473 0
M  V30 35 H -0.314095 3.504820 1.800335 0
M  V30 36 H -0.221894 1.385626 3.988018 0
M  V30 37 H 1.595531 3.111344 4.427835 0
M  V30 38 H 0.266627 4.390732 4.246254 0
M  V30 39 H 0.789269 1.854870 7.370767 0
M  V30 40 H 1.587768 1.660576 5.793075 0
M  V30 41 H -0.027452 0.946855 5.992124 0
M  V30 42 H -1.745641 1.979966 6.108182 0
M  V30 43 H -2.017850 3.742136 6.166601 0
M  V30 44 H -1.977023 3.898733 3.766780 0
M  V30 45 H -3.578674 1.987478 4.660660 0
M  V30 46 H -2.429728 0.892804 3.726890 0
M  V30 47 H -3.316920 2.296960 2.915683 0
M  V30 48 H -0.836232 -2.237693 -2.353412 0
M  V30 49 H 2.572688 -3.900088 -5.244512 0
M  V30 50 H 1.443181 -5.801364 -6.431395 0
M  V30 END ATOM
M  V30 BEGIN BOND
M  V30 1 1 1 2
M  V30 2 2 2 3
M  V30 3 1 3 4
M  V30 4 1 4 5
M  V30 5 2 5 6
M  V30 6 1 6 7
M  V30 7 1 7 8
M  V30 8 2 8 9
M  V30 9 1 9 10
M  V30 10 1 10 11
M  V30 11 1 11 12
M  V30 12 2 12 13
M  V30 13 1 12 14
M  V30 14 1 14 15
M  V30 15 1 15 16
M  V30 16 1 16 17
M  V30 17 1 17 18
M  V30 18 1 17 19
M  V30 19 1 19 20
M  V30 20 1 20 21
M  V30 21 2 10 22
M  V30 22 1 22 23
M  V30 23 2 23 24
M  V30 24 2 4 25
M  V30 25 1 25 26
M  V30 26 2 26 27
M  V30 27 1 27 2
M  V30 28 1 24 5
M  V30 29 1 24 8
M  V30 30 1 20 15
M  V30 31 1 1 28
M  V30 32 1 1 29
M  V30 33 1 1 30
M  V30 34 1 3 31
M  V30 35 1 7 32
M  V30 36 1 9 33
M  V30 37 1 11 34
M  V30 38 1 14 35
M  V30 39 1 15 36 CFG=1
M  V30 40 1 16 37
M  V30 41 1 16 38
M  V30 42 1 18 39
M  V30 43 1 18 40
M  V30 44 1 18 41
M  V30 45 1 19 42
M  V30 46 1 19 43
M  V30 47 1 20 44 CFG=3
M  V30 48 1 21 45
M  V30 49 1 21 46
M  V30 50 1 21 47
M  V30 51 1 23 48
M  V30 52 1 25 49
M  V30 53 1 26 50
M  V30 END BOND
M  V30 END CTAB
M  END
>  <Dataset>  (389) 
ChEMBL_Kinases

>  <Ligand_Instance>  (389) 
nan

>  <PDB_ID>  (389) 
nan

>  <Standardized_SMILES>  (389) 
Cc1cc(-c2n[nH]c3cc(NC(=O)N[C@H]4CN(C)C[C@@H]4C)ncc23)ccn1

>  <Name>  (389) 
nan

>  <Pocket>  (389) 
nan

>  <ATP_Site>  (389) 
nan

>  <Peripheral>  (389) 
nan

>  <Num_H_Atoms_ProtBoundConf>  (389) 
nan

>  <Num_Resolved_Atoms>  (389) 
nan

>  <Num_Not_Resolved_Atoms>  (389) 
nan

$$$$
CHEMBL3654833
     RDKit          3D

  0  0  0  0  0  0  0  0  0  0999 V3000
M  V30 BEGIN CTAB
M  V30 COUNTS 50 53 0 0 0
M  V30 BEGIN ATOM
M  V30 1 C -0.800565 -8.276490 1.627188 0
M  V30 2 C -0.042744 -7.826215 0.432759 0
M  V30 3 C 0.384217 -6.519597 0.322538 0
M  V30 4 C 1.090283 -6.075628 -0.777266 0
M  V30 5 C 1.580055 -4.713792 -0.976876 0
M  V30 6 N 2.820026 -4.358062 -1.419808 0
M  V30 7 N 2.894989 -3.029660 -1.472950 0
M  V30 8 C 1.731969 -2.454585 -1.075840 0
M  V30 9 C 1.327566 -1.139067 -0.960256 0
M  V30 10 C 0.028830 -0.932224 -0.508015 0
M  V30 11 N -0.354913 0.440426 -0.400851 0
M  V30 12 C -0.134981 1.137930 0.813604 0
M  V30 13 O 0.389963 0.613076 1.829817 0
M  V30 14 N -0.547939 2.481240 0.814085 0
M  V30 15 C -0.452111 3.444720 1.910352 0 CFG=2
M  V30 16 C -1.805051 4.039264 2.164578 0
M  V30 17 N -1.580568 5.381534 2.608339 0
M  V30 18 C -2.577848 6.310228 2.112695 0
M  V30 19 C -0.247816 5.778485 2.269581 0
M  V30 20 C 0.374567 4.639569 1.500629 0 CFG=1
M  V30 21 C 1.840560 4.454072 1.888711 0
M  V30 22 N -0.796563 -1.962313 -0.197171 0
M  V30 23 C -0.386445 -3.249408 -0.315337 0
M  V30 24 C 0.906078 -3.528415 -0.763940 0
M  V30 25 C 1.360683 -7.005388 -1.786234 0
M  V30 26 C 0.907686 -8.312628 -1.627043 0
M  V30 27 N 0.210774 -8.728776 -0.529704 0
M  V30 28 H -0.342802 -9.241601 1.954881 0
M  V30 29 H -1.845438 -8.555151 1.317280 0
M  V30 30 H -0.829634 -7.510446 2.421426 0
M  V30 31 H 0.178835 -5.800860 1.095604 0
M  V30 32 H 3.704870 -2.437643 -1.769505 0
M  V30 33 H 1.986142 -0.324072 -1.208140 0
M  V30 34 H -0.780840 0.773453 -1.305194 0
M  V30 35 H -0.993620 2.950927 -0.028028 0
M  V30 36 H 0.012959 2.972184 2.804338 0
M  V30 37 H -2.483879 3.947043 1.300829 0
M  V30 38 H -2.261076 3.482806 3.032804 0
M  V30 39 H -3.373875 5.715799 1.594760 0
M  V30 40 H -2.169430 7.046003 1.390637 0
M  V30 41 H -3.082667 6.884610 2.909852 0
M  V30 42 H -0.203216 6.741006 1.717758 0
M  V30 43 H 0.330952 5.914800 3.206553 0
M  V30 44 H 0.314143 4.767281 0.406326 0
M  V30 45 H 2.118405 3.397651 1.970471 0
M  V30 46 H 2.521911 4.938242 1.156827 0
M  V30 47 H 2.017066 4.942524 2.878820 0
M  V30 48 H -1.062087 -4.056151 -0.061623 0
M  V30 49 H 1.902390 -6.765335 -2.683774 0
M  V30 50 H 1.121710 -9.032800 -2.417223 0
M  V30 END ATOM
M  V30 BEGIN BOND
M  V30 1 1 1 2
M  V30 2 2 2 3
M  V30 3 1 3 4
M  V30 4 1 4 5
M  V30 5 2 5 6
M  V30 6 1 6 7
M  V30 7 1 7 8
M  V30 8 2 8 9
M  V30 9 1 9 10
M  V30 10 1 10 11
M  V30 11 1 11 12
M  V30 12 2 12 13
M  V30 13 1 12 14
M  V30 14 1 14 15
M  V30 15 1 15 16
M  V30 16 1 16 17
M  V30 17 1 17 18
M  V30 18 1 17 19
M  V30 19 1 19 20
M  V30 20 1 20 21
M  V30 21 2 10 22
M  V30 22 1 22 23
M  V30 23 2 23 24
M  V30 24 2 4 25
M  V30 25 1 25 26
M  V30 26 2 26 27
M  V30 27 1 27 2
M  V30 28 1 24 5
M  V30 29 1 24 8
M  V30 30 1 20 15
M  V30 31 1 1 28
M  V30 32 1 1 29
M  V30 33 1 1 30
M  V30 34 1 3 31
M  V30 35 1 7 32
M  V30 36 1 9 33
M  V30 37 1 11 34
M  V30 38 1 14 35
M  V30 39 1 15 36 CFG=1
M  V30 40 1 16 37
M  V30 41 1 16 38
M  V30 42 1 18 39
M  V30 43 1 18 40
M  V30 44 1 18 41
M  V30 45 1 19 42
M  V30 46 1 19 43
M  V30 47 1 20 44 CFG=3
M  V30 48 1 21 45
M  V30 49 1 21 46
M  V30 50 1 21 47
M  V30 51 1 23 48
M  V30 52 1 25 49
M  V30 53 1 26 50
M  V30 END BOND
M  V30 END CTAB
M  END
>  <Dataset>  (390) 
ChEMBL_Kinases

>  <Ligand_Instance>  (390) 
nan

>  <PDB_ID>  (390) 
nan

>  <Standardized_SMILES>  (390) 
Cc1cc(-c2n[nH]c3cc(NC(=O)N[C@@H]4CN(C)C[C@H]4C)ncc23)ccn1

>  <Name>  (390) 
nan

>  <Pocket>  (390) 
nan

>  <ATP_Site>  (390) 
nan

>  <Peripheral>  (390) 
nan

>  <Num_H_Atoms_ProtBoundConf>  (390) 
nan

>  <Num_Resolved_Atoms>  (390) 
nan

>  <Num_Not_Resolved_Atoms>  (390) 
nan

$$$$
CHEMBL3654834
     RDKit          3D

  0  0  0  0  0  0  0  0  0  0999 V3000
M  V30 BEGIN CTAB
M  V30 COUNTS 60 64 0 0 0
M  V30 BEGIN ATOM
M  V30 1 C 8.651694 0.364267 0.678421 0
M  V30 2 C 8.159735 -0.941293 1.141101 0
M  V30 3 C 6.897776 -0.896020 1.728376 0
M  V30 4 C 6.363769 -2.099531 2.191309 0
M  V30 5 C 5.047438 -2.248252 2.839206 0
M  V30 6 N 4.848568 -3.000365 3.961807 0
M  V30 7 N 3.576584 -2.946949 4.309762 0
M  V30 8 C 2.956658 -2.160617 3.411078 0
M  V30 9 C 1.636129 -1.782176 3.322403 0
M  V30 10 C 1.333471 -0.953039 2.263208 0
M  V30 11 N 0.050011 -0.488976 2.027151 0
M  V30 12 C -1.236056 -0.178533 1.689860 0
M  V30 13 O -0.912939 -1.291260 1.075139 0
M  V30 14 N -2.515403 0.004974 1.268916 0
M  V30 15 C -3.445500 -0.719187 0.389889 0 CFG=1
M  V30 16 C -4.725439 -0.850026 1.150332 0
M  V30 17 N -5.272173 0.486640 1.068338 0
M  V30 18 C -6.706849 0.344571 1.239218 0
M  V30 19 C -4.915815 0.983347 -0.224284 0
M  V30 20 C -3.755961 0.184455 -0.745689 0 CFG=2
M  V30 21 C -4.160934 -0.460919 -2.004753 0
M  V30 22 C -4.640808 -1.727645 -2.233458 0
M  V30 23 C -4.995015 -2.270265 -3.445405 0
M  V30 24 C -4.860598 -1.463056 -4.582863 0
M  V30 25 C -4.380290 -0.185056 -4.386873 0
M  V30 26 C -4.026871 0.343317 -3.146872 0
M  V30 27 C -3.511736 1.745583 -3.043451 0
M  V30 28 N 2.225195 -0.516984 1.354726 0
M  V30 29 C 3.540174 -0.872966 1.412609 0
M  V30 30 C 3.832805 -1.688163 2.456339 0
M  V30 31 C 7.070100 -3.303503 2.069239 0
M  V30 32 C 8.315319 -3.223905 1.468073 0
M  V30 33 N 8.851090 -2.077666 1.014596 0
M  V30 34 H 8.861504 1.083771 1.479538 0
M  V30 35 H 7.890921 0.742107 -0.058385 0
M  V30 36 H 9.585636 0.168946 0.085951 0
M  V30 37 H 6.285944 -0.013979 1.862967 0
M  V30 38 H 3.117239 -3.421746 5.130239 0
M  V30 39 H 0.843412 -2.071101 3.991925 0
M  V30 40 H -0.129105 0.394225 2.546092 0
M  V30 41 H -2.495596 0.891905 1.871803 0
M  V30 42 H -3.010990 -1.689864 0.091014 0
M  V30 43 H -5.406896 -1.614840 0.761119 0
M  V30 44 H -4.502221 -1.024509 2.233936 0
M  V30 45 H -6.867390 0.101828 2.322008 0
M  V30 46 H -7.095483 -0.520741 0.683098 0
M  V30 47 H -7.246081 1.270083 0.993118 0
M  V30 48 H -4.680527 2.067120 -0.168133 0
M  V30 49 H -5.818596 0.914255 -0.857720 0
M  V30 50 H -2.897301 0.901162 -0.933056 0
M  V30 51 H -4.739846 -2.353549 -1.359898 0
M  V30 52 H -5.361829 -3.284820 -3.494181 0
M  V30 53 H -5.122859 -1.832059 -5.546813 0
M  V30 54 H -4.275613 0.441888 -5.282427 0
M  V30 55 H -4.158595 2.407731 -2.472414 0
M  V30 56 H -2.443165 1.755320 -2.723615 0
M  V30 57 H -3.474850 2.142675 -4.079991 0
M  V30 58 H 4.256966 -0.523979 0.683744 0
M  V30 59 H 6.665490 -4.249107 2.426211 0
M  V30 60 H 8.882380 -4.138490 1.361290 0
M  V30 END ATOM
M  V30 BEGIN BOND
M  V30 1 1 1 2
M  V30 2 2 2 3
M  V30 3 1 3 4
M  V30 4 1 4 5
M  V30 5 2 5 6
M  V30 6 1 6 7
M  V30 7 1 7 8
M  V30 8 2 8 9
M  V30 9 1 9 10
M  V30 10 1 10 11
M  V30 11 1 11 12
M  V30 12 2 12 13
M  V30 13 1 12 14
M  V30 14 1 14 15
M  V30 15 1 15 16
M  V30 16 1 16 17
M  V30 17 1 17 18
M  V30 18 1 17 19
M  V30 19 1 19 20
M  V30 20 1 20 21
M  V30 21 2 21 22
M  V30 22 1 22 23
M  V30 23 2 23 24
M  V30 24 1 24 25
M  V30 25 2 25 26
M  V30 26 1 26 27
M  V30 27 2 10 28
M  V30 28 1 28 29
M  V30 29 2 29 30
M  V30 30 2 4 31
M  V30 31 1 31 32
M  V30 32 2 32 33
M  V30 33 1 33 2
M  V30 34 1 30 5
M  V30 35 1 30 8
M  V30 36 1 20 15
M  V30 37 1 26 21
M  V30 38 1 1 34
M  V30 39 1 1 35
M  V30 40 1 1 36
M  V30 41 1 3 37
M  V30 42 1 7 38
M  V30 43 1 9 39
M  V30 44 1 11 40
M  V30 45 1 14 41
M  V30 46 1 15 42 CFG=3
M  V30 47 1 16 43
M  V30 48 1 16 44
M  V30 49 1 18 45
M  V30 50 1 18 46
M  V30 51 1 18 47
M  V30 52 1 19 48
M  V30 53 1 19 49
M  V30 54 1 20 50 CFG=3
M  V30 55 1 22 51
M  V30 56 1 23 52
M  V30 57 1 24 53
M  V30 58 1 25 54
M  V30 59 1 27 55
M  V30 60 1 27 56
M  V30 61 1 27 57
M  V30 62 1 29 58
M  V30 63 1 31 59
M  V30 64 1 32 60
M  V30 END BOND
M  V30 END CTAB
M  END
>  <Dataset>  (391) 
ChEMBL_Kinases

>  <Ligand_Instance>  (391) 
nan

>  <PDB_ID>  (391) 
nan

>  <Standardized_SMILES>  (391) 
Cc1cc(-c2n[nH]c3cc(NC(=O)N[C@H]4CN(C)C[C@@H]4c4ccccc4C)ncc23)ccn1

>  <Name>  (391) 
nan

>  <Pocket>  (391) 
nan

>  <ATP_Site>  (391) 
nan

>  <Peripheral>  (391) 
nan

>  <Num_H_Atoms_ProtBoundConf>  (391) 
nan

>  <Num_Resolved_Atoms>  (391) 
nan

>  <Num_Not_Resolved_Atoms>  (391) 
nan

$$$$
CHEMBL3654844
     RDKit          3D

  0  0  0  0  0  0  0  0  0  0999 V3000
M  V30 BEGIN CTAB
M  V30 COUNTS 50 53 0 0 0
M  V30 BEGIN ATOM
M  V30 1 C -1.149234 -6.266072 0.311331 0
M  V30 2 C -1.043847 -5.559877 1.643349 0
M  V30 3 C 0.220764 -4.743066 1.754443 0 CFG=2
M  V30 4 N 0.346400 -3.723851 0.767901 0
M  V30 5 C 0.310940 -2.343859 1.075213 0
M  V30 6 O 0.174034 -1.810947 2.185807 0
M  V30 7 N 0.454906 -1.480180 -0.071342 0
M  V30 8 C 0.447679 -0.055906 -0.006689 0
M  V30 9 C 1.556422 0.745822 0.172312 0
M  V30 10 C 1.432476 2.121210 0.218909 0
M  V30 11 N 2.345195 3.106564 0.380874 0
M  V30 12 N 1.698580 4.261490 0.350217 0
M  V30 13 C 0.376824 4.084998 0.172308 0
M  V30 14 C -0.682444 5.087253 0.081529 0
M  V30 15 C -0.676754 6.130846 1.011273 0
M  V30 16 C -1.612820 7.146038 1.046480 0
M  V30 17 N -2.594634 7.110894 0.108875 0
M  V30 18 C -2.637045 6.117134 -0.810691 0
M  V30 19 C -3.712882 6.057226 -1.855532 0
M  V30 20 C -1.700351 5.105114 -0.842555 0
M  V30 21 C 0.166506 2.703872 0.082616 0
M  V30 22 C -0.908074 1.876927 -0.093001 0
M  V30 23 N -0.763576 0.521423 -0.136073 0
M  V30 24 C 1.437456 -5.566041 1.963369 0
M  V30 25 C 2.184757 -6.053479 0.929143 0
M  V30 26 C 3.312001 -6.815727 1.038678 0
M  V30 27 C 3.771947 -7.146694 2.317752 0
M  V30 28 C 3.009541 -6.649148 3.355145 0
M  V30 29 N 1.905210 -5.901475 3.193242 0
M  V30 30 H -2.205145 -6.239476 -0.077350 0
M  V30 31 H -0.444844 -5.895577 -0.453236 0
M  V30 32 H -0.946203 -7.374353 0.386513 0
M  V30 33 H -1.945748 -4.977247 1.914225 0
M  V30 34 H -1.039586 -6.387091 2.407744 0
M  V30 35 H 0.101830 -4.197818 2.742907 0
M  V30 36 H 0.467463 -4.090459 -0.203529 0
M  V30 37 H 0.579544 -1.793138 -1.078699 0
M  V30 38 H 2.510723 0.245634 0.271902 0
M  V30 39 H 3.377871 2.952477 0.506171 0
M  V30 40 H 0.091383 6.198083 1.780186 0
M  V30 41 H -1.566979 7.930984 1.784910 0
M  V30 42 H -3.307621 6.189185 -2.879962 0
M  V30 43 H -4.153914 5.017571 -1.841000 0
M  V30 44 H -4.512064 6.772703 -1.664489 0
M  V30 45 H -1.712742 4.300167 -1.568126 0
M  V30 46 H -1.875754 2.336008 -0.196290 0
M  V30 47 H 1.920661 -5.857961 -0.098702 0
M  V30 48 H 3.901609 -7.200041 0.218106 0
M  V30 49 H 4.636132 -7.732861 2.505086 0
M  V30 50 H 3.354929 -6.898714 4.368014 0
M  V30 END ATOM
M  V30 BEGIN BOND
M  V30 1 1 1 2
M  V30 2 1 2 3
M  V30 3 1 3 4
M  V30 4 1 4 5
M  V30 5 2 5 6
M  V30 6 1 5 7
M  V30 7 1 7 8
M  V30 8 2 8 9
M  V30 9 1 9 10
M  V30 10 1 10 11
M  V30 11 1 11 12
M  V30 12 2 12 13
M  V30 13 1 13 14
M  V30 14 2 14 15
M  V30 15 1 15 16
M  V30 16 2 16 17
M  V30 17 1 17 18
M  V30 18 1 18 19
M  V30 19 2 18 20
M  V30 20 1 13 21
M  V30 21 1 21 22
M  V30 22 2 22 23
M  V30 23 1 3 24
M  V30 24 2 24 25
M  V30 25 1 25 26
M  V30 26 2 26 27
M  V30 27 1 27 28
M  V30 28 2 28 29
M  V30 29 1 23 8
M  V30 30 1 29 24
M  V30 31 2 21 10
M  V30 32 1 20 14
M  V30 33 1 1 30
M  V30 34 1 1 31
M  V30 35 1 1 32
M  V30 36 1 2 33
M  V30 37 1 2 34
M  V30 38 1 3 35 CFG=1
M  V30 39 1 4 36
M  V30 40 1 7 37
M  V30 41 1 9 38
M  V30 42 1 11 39
M  V30 43 1 15 40
M  V30 44 1 16 41
M  V30 45 1 19 42
M  V30 46 1 19 43
M  V30 47 1 19 44
M  V30 48 1 20 45
M  V30 49 1 22 46
M  V30 50 1 25 47
M  V30 51 1 26 48
M  V30 52 1 27 49
M  V30 53 1 28 50
M  V30 END BOND
M  V30 END CTAB
M  END
>  <Dataset>  (392) 
ChEMBL_Kinases

>  <Ligand_Instance>  (392) 
nan

>  <PDB_ID>  (392) 
nan

>  <Standardized_SMILES>  (392) 
CC[C@H](NC(=O)Nc1cc2[nH]nc(-c3ccnc(C)c3)c2cn1)c1ccccn1

>  <Name>  (392) 
nan

>  <Pocket>  (392) 
nan

>  <ATP_Site>  (392) 
nan

>  <Peripheral>  (392) 
nan

>  <Num_H_Atoms_ProtBoundConf>  (392) 
nan

>  <Num_Resolved_Atoms>  (392) 
nan

>  <Num_Not_Resolved_Atoms>  (392) 
nan

$$$$
CHEMBL3654836
     RDKit          3D

  0  0  0  0  0  0  0  0  0  0999 V3000
M  V30 BEGIN CTAB
M  V30 COUNTS 54 58 0 0 0
M  V30 BEGIN ATOM
M  V30 1 C 2.902476 -8.536425 -0.161989 0
M  V30 2 C 3.588469 -7.420166 -0.889688 0
M  V30 3 C 3.491974 -6.136930 -0.417773 0
M  V30 4 C 4.083469 -5.042558 -1.014359 0
M  V30 5 C 4.005079 -3.662838 -0.542933 0
M  V30 6 N 5.046501 -2.781591 -0.454107 0
M  V30 7 N 4.598362 -1.619060 0.018948 0
M  V30 8 C 3.276683 -1.752336 0.232793 0
M  V30 9 C 2.343482 -0.841675 0.718166 0
M  V30 10 C 1.011142 -1.244155 0.846135 0
M  V30 11 N -0.049550 -0.426048 1.327312 0
M  V30 12 C -0.893992 0.409931 0.571221 0
M  V30 13 O -0.695675 0.442109 -0.659689 0
M  V30 14 N -1.889433 1.141138 1.246679 0
M  V30 15 C -2.812725 2.027716 0.567665 0 CFG=1
M  V30 16 C -4.261052 1.582833 0.811945 0
M  V30 17 N -4.649376 2.116922 2.093013 0
M  V30 18 C -4.372056 1.239651 3.182451 0
M  V30 19 C -4.043587 3.406316 2.145790 0
M  V30 20 C -2.838399 3.371521 1.263053 0 CFG=2
M  V30 21 C -2.662129 4.517590 0.334749 0
M  V30 22 C -2.721645 5.874528 1.061270 0
M  V30 23 C -3.682612 5.518503 -0.011017 0
M  V30 24 N 0.663700 -2.505657 0.495595 0
M  V30 25 C 1.533276 -3.411463 0.024335 0
M  V30 26 C 2.834493 -3.031883 -0.105073 0
M  V30 27 C 4.818644 -5.288376 -2.166821 0
M  V30 28 C 4.900318 -6.585890 -2.620288 0
M  V30 29 N 4.309848 -7.625852 -2.011720 0
M  V30 30 H 3.458712 -8.772707 0.766943 0
M  V30 31 H 1.871999 -8.215763 0.110168 0
M  V30 32 H 2.863307 -9.431084 -0.797516 0
M  V30 33 H 2.926194 -5.944926 0.470671 0
M  V30 34 H 5.130480 -0.732532 0.207919 0
M  V30 35 H 2.572444 0.177659 1.011161 0
M  V30 36 H -0.164094 -0.497486 2.363853 0
M  V30 37 H -1.976523 1.050559 2.279952 0
M  V30 38 H -2.657532 2.076933 -0.514821 0
M  V30 39 H -4.367738 0.495411 0.868232 0
M  V30 40 H -4.928107 2.002578 0.029006 0
M  V30 41 H -4.148091 0.203735 2.831352 0
M  V30 42 H -5.321800 1.109180 3.782726 0
M  V30 43 H -3.629000 1.606462 3.917982 0
M  V30 44 H -4.821324 4.130080 1.763298 0
M  V30 45 H -3.780109 3.654503 3.201927 0
M  V30 46 H -1.946933 3.410217 1.968610 0
M  V30 47 H -1.786605 4.393560 -0.354254 0
M  V30 48 H -3.073538 5.908892 2.102342 0
M  V30 49 H -1.912876 6.571830 0.827632 0
M  V30 50 H -3.510558 6.043636 -1.001685 0
M  V30 51 H -4.729802 5.270801 0.144345 0
M  V30 52 H 1.219715 -4.411908 -0.246277 0
M  V30 53 H 5.306306 -4.497232 -2.688097 0
M  V30 54 H 5.460747 -6.861704 -3.522434 0
M  V30 END ATOM
M  V30 BEGIN BOND
M  V30 1 1 1 2
M  V30 2 2 2 3
M  V30 3 1 3 4
M  V30 4 1 4 5
M  V30 5 2 5 6
M  V30 6 1 6 7
M  V30 7 1 7 8
M  V30 8 2 8 9
M  V30 9 1 9 10
M  V30 10 1 10 11
M  V30 11 1 11 12
M  V30 12 2 12 13
M  V30 13 1 12 14
M  V30 14 1 14 15
M  V30 15 1 15 16
M  V30 16 1 16 17
M  V30 17 1 17 18
M  V30 18 1 17 19
M  V30 19 1 19 20
M  V30 20 1 20 21
M  V30 21 1 21 22
M  V30 22 1 22 23
M  V30 23 2 10 24
M  V30 24 1 24 25
M  V30 25 2 25 26
M  V30 26 2 4 27
M  V30 27 1 27 28
M  V30 28 2 28 29
M  V30 29 1 29 2
M  V30 30 1 26 5
M  V30 31 1 26 8
M  V30 32 1 20 15
M  V30 33 1 23 21
M  V30 34 1 1 30
M  V30 35 1 1 31
M  V30 36 1 1 32
M  V30 37 1 3 33
M  V30 38 1 7 34
M  V30 39 1 9 35
M  V30 40 1 11 36
M  V30 41 1 14 37
M  V30 42 1 15 38 CFG=3
M  V30 43 1 16 39
M  V30 44 1 16 40
M  V30 45 1 18 41
M  V30 46 1 18 42
M  V30 47 1 18 43
M  V30 48 1 19 44
M  V30 49 1 19 45
M  V30 50 1 20 46 CFG=1
M  V30 51 1 21 47
M  V30 52 1 22 48
M  V30 53 1 22 49
M  V30 54 1 23 50
M  V30 55 1 23 51
M  V30 56 1 25 52
M  V30 57 1 27 53
M  V30 58 1 28 54
M  V30 END BOND
M  V30 END CTAB
M  END
>  <Dataset>  (393) 
ChEMBL_Kinases

>  <Ligand_Instance>  (393) 
nan

>  <PDB_ID>  (393) 
nan

>  <Standardized_SMILES>  (393) 
Cc1cc(-c2n[nH]c3cc(NC(=O)N[C@H]4CN(C)C[C@@H]4C4CC4)ncc23)ccn1

>  <Name>  (393) 
nan

>  <Pocket>  (393) 
nan

>  <ATP_Site>  (393) 
nan

>  <Peripheral>  (393) 
nan

>  <Num_H_Atoms_ProtBoundConf>  (393) 
nan

>  <Num_Resolved_Atoms>  (393) 
nan

>  <Num_Not_Resolved_Atoms>  (393) 
nan

$$$$
CHEMBL3654837
     RDKit          3D

  0  0  0  0  0  0  0  0  0  0999 V3000
M  V30 BEGIN CTAB
M  V30 COUNTS 61 65 0 0 0
M  V30 BEGIN ATOM
M  V30 1 C 1.101135 1.624790 9.377029 0
M  V30 2 C 1.325579 2.612455 8.264384 0
M  V30 3 C 1.514855 2.143927 6.983879 0
M  V30 4 C 1.721948 3.003517 5.943710 0
M  V30 5 C 1.929293 2.579091 4.564203 0
M  V30 6 N 2.824839 2.975254 3.638135 0
M  V30 7 N 2.672515 2.338760 2.510912 0
M  V30 8 C 1.657151 1.475962 2.627127 0
M  V30 9 C 1.056636 0.572949 1.809227 0
M  V30 10 C -0.003625 -0.233425 2.144021 0
M  V30 11 N -0.660868 -1.181635 1.339318 0
M  V30 12 C -0.447699 -1.580741 0.004916 0
M  V30 13 O 0.482468 -1.003500 -0.582650 0
M  V30 14 N -1.159582 -2.547477 -0.730628 0
M  V30 15 C -0.795135 -2.828652 -2.106255 0 CFG=1
M  V30 16 C -0.398083 -4.284752 -2.153876 0
M  V30 17 N -1.641032 -4.993841 -2.341649 0
M  V30 18 C -1.502023 -6.277917 -2.962844 0
M  V30 19 C -2.549246 -4.111744 -3.025709 0
M  V30 20 C -2.020597 -2.721771 -2.941096 0 CFG=2
M  V30 21 C -1.839288 -2.124888 -4.311321 0
M  V30 22 C -0.895812 -2.871476 -5.194173 0
M  V30 23 C 0.496964 -2.340676 -5.234246 0
M  V30 24 O 0.632754 -1.018198 -4.886306 0
M  V30 25 C -0.483985 -0.302955 -5.283732 0
M  V30 26 C -1.574981 -0.644674 -4.269963 0
M  V30 27 N -0.449266 -0.077766 3.401288 0
M  V30 28 C 0.113406 0.798653 4.236071 0
M  V30 29 C 1.171766 1.607685 3.911137 0
M  V30 30 C 1.721514 4.352209 6.301047 0
M  V30 31 C 1.535544 4.845862 7.567946 0
M  V30 32 N 1.334578 3.924239 8.554332 0
M  V30 33 H 0.448135 0.797525 9.044574 0
M  V30 34 H 0.636592 2.135616 10.247657 0
M  V30 35 H 2.084816 1.197263 9.705855 0
M  V30 36 H 1.498490 1.081739 6.804616 0
M  V30 37 H 3.239317 2.458961 1.630112 0
M  V30 38 H 1.460483 0.496569 0.815913 0
M  V30 39 H -1.456364 -1.732640 1.712388 0
M  V30 40 H -1.947992 -3.032111 -0.222164 0
M  V30 41 H 0.039717 -2.200398 -2.384012 0
M  V30 42 H 0.371114 -4.518681 -2.892280 0
M  V30 43 H -0.003152 -4.609950 -1.157902 0
M  V30 44 H -1.705994 -6.257880 -4.068535 0
M  V30 45 H -0.546828 -6.752867 -2.705546 0
M  V30 46 H -2.307762 -6.922707 -2.536617 0
M  V30 47 H -3.536388 -4.218626 -2.489432 0
M  V30 48 H -2.752817 -4.461416 -4.064200 0
M  V30 49 H -2.781282 -2.086775 -2.431852 0
M  V30 50 H -2.859231 -2.238508 -4.774034 0
M  V30 51 H -1.278394 -2.863801 -6.255560 0
M  V30 52 H -0.950130 -3.942566 -4.901550 0
M  V30 53 H 1.156117 -3.021763 -4.619742 0
M  V30 54 H 0.937994 -2.432462 -6.260799 0
M  V30 55 H -0.330755 0.785033 -5.258051 0
M  V30 56 H -0.769285 -0.593600 -6.308467 0
M  V30 57 H -2.446099 -0.016848 -4.536722 0
M  V30 58 H -1.226218 -0.289453 -3.292807 0
M  V30 59 H -0.312109 0.862293 5.244694 0
M  V30 60 H 1.883014 5.082339 5.505587 0
M  V30 61 H 1.555474 5.925833 7.730072 0
M  V30 END ATOM
M  V30 BEGIN BOND
M  V30 1 1 1 2
M  V30 2 2 2 3
M  V30 3 1 3 4
M  V30 4 1 4 5
M  V30 5 2 5 6
M  V30 6 1 6 7
M  V30 7 1 7 8
M  V30 8 2 8 9
M  V30 9 1 9 10
M  V30 10 1 10 11
M  V30 11 1 11 12
M  V30 12 2 12 13
M  V30 13 1 12 14
M  V30 14 1 14 15
M  V30 15 1 15 16
M  V30 16 1 16 17
M  V30 17 1 17 18
M  V30 18 1 17 19
M  V30 19 1 19 20
M  V30 20 1 20 21
M  V30 21 1 21 22
M  V30 22 1 22 23
M  V30 23 1 23 24
M  V30 24 1 24 25
M  V30 25 1 25 26
M  V30 26 2 10 27
M  V30 27 1 27 28
M  V30 28 2 28 29
M  V30 29 2 4 30
M  V30 30 1 30 31
M  V30 31 2 31 32
M  V30 32 1 32 2
M  V30 33 1 29 5
M  V30 34 1 29 8
M  V30 35 1 20 15
M  V30 36 1 26 21
M  V30 37 1 1 33
M  V30 38 1 1 34
M  V30 39 1 1 35
M  V30 40 1 3 36
M  V30 41 1 7 37
M  V30 42 1 9 38
M  V30 43 1 11 39
M  V30 44 1 14 40
M  V30 45 1 15 41 CFG=3
M  V30 46 1 16 42
M  V30 47 1 16 43
M  V30 48 1 18 44
M  V30 49 1 18 45
M  V30 50 1 18 46
M  V30 51 1 19 47
M  V30 52 1 19 48
M  V30 53 1 20 49 CFG=1
M  V30 54 1 21 50
M  V30 55 1 22 51
M  V30 56 1 22 52
M  V30 57 1 23 53
M  V30 58 1 23 54
M  V30 59 1 25 55
M  V30 60 1 25 56
M  V30 61 1 26 57
M  V30 62 1 26 58
M  V30 63 1 28 59
M  V30 64 1 30 60
M  V30 65 1 31 61
M  V30 END BOND
M  V30 END CTAB
M  END
>  <Dataset>  (394) 
ChEMBL_Kinases

>  <Ligand_Instance>  (394) 
nan

>  <PDB_ID>  (394) 
nan

>  <Standardized_SMILES>  (394) 
Cc1cc(-c2n[nH]c3cc(NC(=O)N[C@H]4CN(C)C[C@@H]4C4CCOCC4)ncc23)ccn1

>  <Name>  (394) 
nan

>  <Pocket>  (394) 
nan

>  <ATP_Site>  (394) 
nan

>  <Peripheral>  (394) 
nan

>  <Num_H_Atoms_ProtBoundConf>  (394) 
nan

>  <Num_Resolved_Atoms>  (394) 
nan

>  <Num_Not_Resolved_Atoms>  (394) 
nan

$$$$
CHEMBL3654838
     RDKit          3D

  0  0  0  0  0  0  0  0  0  0999 V3000
M  V30 BEGIN CTAB
M  V30 COUNTS 57 61 0 0 0
M  V30 BEGIN ATOM
M  V30 1 C 6.140971 -0.533378 7.505415 0
M  V30 2 C 5.063234 -1.136099 6.672584 0
M  V30 3 C 5.250812 -1.341351 5.317999 0
M  V30 4 C 4.251375 -1.900020 4.548806 0
M  V30 5 C 4.346720 -2.159880 3.117117 0
M  V30 6 N 5.387002 -2.721790 2.484254 0
M  V30 7 N 5.159629 -2.817564 1.173988 0
M  V30 8 C 3.940625 -2.311507 0.905409 0
M  V30 9 C 3.215834 -2.161899 -0.261093 0
M  V30 10 C 1.953017 -1.585081 -0.196137 0
M  V30 11 N 1.120149 -1.381317 -1.339364 0
M  V30 12 C -0.159113 -0.789125 -1.228214 0
M  V30 13 O -0.586654 -0.430272 -0.101551 0
M  V30 14 N -0.987715 -0.580706 -2.343797 0
M  V30 15 C -2.289338 0.024793 -2.214629 0 CFG=1
M  V30 16 C -2.220938 1.373724 -2.901594 0
M  V30 17 N -3.322545 1.496539 -3.795470 0
M  V30 18 C -2.892569 2.062544 -5.065970 0
M  V30 19 C -3.740039 0.158214 -4.062610 0
M  V30 20 C -3.408605 -0.695646 -2.855567 0 CFG=2
M  V30 21 C -4.640291 -0.734909 -2.008293 0
M  V30 22 C -5.335887 -1.912977 -1.822814 0
M  V30 23 C -6.462215 -1.848055 -1.022994 0
M  V30 24 C -6.860566 -0.652753 -0.443220 0
M  V30 25 F -7.946816 -0.501890 0.350635 0
M  V30 26 C -6.138959 0.526686 -0.646443 0
M  V30 27 C -5.013582 0.467464 -1.444143 0
M  V30 28 N 1.487901 -1.195229 1.005826 0
M  V30 29 C 2.170327 -1.329189 2.149972 0
M  V30 30 C 3.427009 -1.896907 2.126628 0
M  V30 31 C 3.071079 -2.242306 5.174841 0
M  V30 32 C 2.893520 -2.031771 6.535286 0
M  V30 33 N 3.893402 -1.483447 7.253921 0
M  V30 34 H 5.734277 0.446279 7.858651 0
M  V30 35 H 6.351512 -1.220646 8.344489 0
M  V30 36 H 7.025803 -0.328820 6.875409 0
M  V30 37 H 6.171930 -1.076926 4.815201 0
M  V30 38 H 5.809821 -3.217102 0.461278 0
M  V30 39 H 3.595346 -2.477268 -1.222351 0
M  V30 40 H 1.476914 -1.680399 -2.274594 0
M  V30 41 H -0.611045 -0.888296 -3.275222 0
M  V30 42 H -2.430474 0.234063 -1.126890 0
M  V30 43 H -2.169330 2.215149 -2.155295 0
M  V30 44 H -1.274753 1.471088 -3.509965 0
M  V30 45 H -1.800895 2.337692 -4.976090 0
M  V30 46 H -2.910820 1.327720 -5.895014 0
M  V30 47 H -3.423284 2.990269 -5.310570 0
M  V30 48 H -4.844312 0.190278 -4.219035 0
M  V30 49 H -3.265161 -0.232732 -4.986332 0
M  V30 50 H -3.169827 -1.688595 -3.273038 0
M  V30 51 H -5.013528 -2.838863 -2.281396 0
M  V30 52 H -7.059595 -2.723493 -0.829108 0
M  V30 53 H -6.424029 1.475512 -0.207830 0
M  V30 54 H -4.432995 1.380964 -1.616408 0
M  V30 55 H 1.745913 -0.997390 3.083712 0
M  V30 56 H 2.196790 -2.686564 4.720057 0
M  V30 57 H 2.016981 -2.260571 7.122656 0
M  V30 END ATOM
M  V30 BEGIN BOND
M  V30 1 1 1 2
M  V30 2 2 2 3
M  V30 3 1 3 4
M  V30 4 1 4 5
M  V30 5 2 5 6
M  V30 6 1 6 7
M  V30 7 1 7 8
M  V30 8 2 8 9
M  V30 9 1 9 10
M  V30 10 1 10 11
M  V30 11 1 11 12
M  V30 12 2 12 13
M  V30 13 1 12 14
M  V30 14 1 14 15
M  V30 15 1 15 16
M  V30 16 1 16 17
M  V30 17 1 17 18
M  V30 18 1 17 19
M  V30 19 1 19 20
M  V30 20 1 20 21
M  V30 21 2 21 22
M  V30 22 1 22 23
M  V30 23 2 23 24
M  V30 24 1 24 25
M  V30 25 1 24 26
M  V30 26 2 26 27
M  V30 27 2 10 28
M  V30 28 1 28 29
M  V30 29 2 29 30
M  V30 30 2 4 31
M  V30 31 1 31 32
M  V30 32 2 32 33
M  V30 33 1 33 2
M  V30 34 1 30 5
M  V30 35 1 30 8
M  V30 36 1 20 15
M  V30 37 1 27 21
M  V30 38 1 1 34
M  V30 39 1 1 35
M  V30 40 1 1 36
M  V30 41 1 3 37
M  V30 42 1 7 38
M  V30 43 1 9 39
M  V30 44 1 11 40
M  V30 45 1 14 41
M  V30 46 1 15 42 CFG=1
M  V30 47 1 16 43
M  V30 48 1 16 44
M  V30 49 1 18 45
M  V30 50 1 18 46
M  V30 51 1 18 47
M  V30 52 1 19 48
M  V30 53 1 19 49
M  V30 54 1 20 50 CFG=3
M  V30 55 1 22 51
M  V30 56 1 23 52
M  V30 57 1 26 53
M  V30 58 1 27 54
M  V30 59 1 29 55
M  V30 60 1 31 56
M  V30 61 1 32 57
M  V30 END BOND
M  V30 END CTAB
M  END
>  <Dataset>  (395) 
ChEMBL_Kinases

>  <Ligand_Instance>  (395) 
nan

>  <PDB_ID>  (395) 
nan

>  <Standardized_SMILES>  (395) 
Cc1cc(-c2n[nH]c3cc(NC(=O)N[C@H]4CN(C)C[C@@H]4c4ccc(F)cc4)ncc23)ccn1

>  <Name>  (395) 
nan

>  <Pocket>  (395) 
nan

>  <ATP_Site>  (395) 
nan

>  <Peripheral>  (395) 
nan

>  <Num_H_Atoms_ProtBoundConf>  (395) 
nan

>  <Num_Resolved_Atoms>  (395) 
nan

>  <Num_Not_Resolved_Atoms>  (395) 
nan

$$$$
CHEMBL3654839
     RDKit          3D

  0  0  0  0  0  0  0  0  0  0999 V3000
M  V30 BEGIN CTAB
M  V30 COUNTS 49 52 0 0 0
M  V30 BEGIN ATOM
M  V30 1 C 0.115421 -8.099469 -0.997996 0
M  V30 2 C -0.252755 -6.850742 -1.724265 0
M  V30 3 C 0.588650 -5.758351 -1.578378 0
M  V30 4 C 0.386508 -4.516445 -2.190524 0
M  V30 5 C 1.350878 -3.445697 -1.953732 0
M  V30 6 N 2.706436 -3.533271 -1.972705 0
M  V30 7 N 3.232685 -2.326949 -1.706068 0
M  V30 8 C 2.192747 -1.488930 -1.521225 0
M  V30 9 C 2.251712 -0.140464 -1.223304 0
M  V30 10 C 1.060384 0.544444 -1.072320 0
M  V30 11 N 0.829944 1.915924 -0.769393 0
M  V30 12 C 0.721696 2.290354 0.586980 0
M  V30 13 O 0.837765 1.381040 1.414672 0
M  V30 14 N 0.502580 3.528477 1.175632 0
M  V30 15 C 0.310023 4.481462 2.225662 0
M  V30 16 C -0.855399 4.316006 3.116842 0
M  V30 17 C -0.952748 3.195765 4.022755 0
M  V30 18 C -0.160863 2.194237 4.327324 0
M  V30 19 C -0.842748 1.335429 5.365414 0
M  V30 20 C -2.320762 1.659880 5.159703 0
M  V30 21 C -2.228989 3.129972 4.833972 0
M  V30 22 N -0.126666 -0.096893 -1.214329 0
M  V30 23 C -0.184176 -1.430038 -1.508863 0
M  V30 24 C 0.986244 -2.145480 -1.666597 0
M  V30 25 C -0.742270 -4.423582 -2.984056 0
M  V30 26 C -1.575348 -5.516457 -3.124167 0
M  V30 27 N -1.335459 -6.690781 -2.512600 0
M  V30 28 H 0.715249 -8.787779 -1.622564 0
M  V30 29 H -0.791336 -8.621066 -0.673164 0
M  V30 30 H 0.658986 -7.813967 -0.057501 0
M  V30 31 H 1.476393 -5.852644 -0.946145 0
M  V30 32 H 4.253525 -2.115556 -1.659087 0
M  V30 33 H 3.104801 0.482809 -1.085379 0
M  V30 34 H 0.733175 2.675211 -1.464637 0
M  V30 35 H 0.417072 4.172236 0.303943 0
M  V30 36 H 1.283613 4.364045 2.862225 0
M  V30 37 H 0.442085 5.511584 1.858567 0
M  V30 38 H -1.786789 4.296893 2.460204 0
M  V30 39 H -0.900198 5.256528 3.752543 0
M  V30 40 H 0.806300 1.985251 3.956662 0
M  V30 41 H -0.499740 1.583429 6.377783 0
M  V30 42 H -0.642084 0.259655 5.193108 0
M  V30 43 H -2.930103 1.453182 6.035989 0
M  V30 44 H -2.619698 1.142262 4.226711 0
M  V30 45 H -3.098808 3.507325 4.300711 0
M  V30 46 H -2.034640 3.726168 5.761938 0
M  V30 47 H -1.122183 -1.958681 -1.625915 0
M  V30 48 H -0.922125 -3.491031 -3.462555 0
M  V30 49 H -2.446087 -5.392746 -3.756269 0
M  V30 END ATOM
M  V30 BEGIN BOND
M  V30 1 1 1 2
M  V30 2 2 2 3
M  V30 3 1 3 4
M  V30 4 1 4 5
M  V30 5 2 5 6
M  V30 6 1 6 7
M  V30 7 1 7 8
M  V30 8 2 8 9
M  V30 9 1 9 10
M  V30 10 1 10 11
M  V30 11 1 11 12
M  V30 12 2 12 13
M  V30 13 1 12 14
M  V30 14 1 14 15
M  V30 15 1 15 16
M  V30 16 1 16 17
M  V30 17 2 17 18
M  V30 18 1 18 19
M  V30 19 1 19 20
M  V30 20 1 20 21
M  V30 21 2 10 22
M  V30 22 1 22 23
M  V30 23 2 23 24
M  V30 24 2 4 25
M  V30 25 1 25 26
M  V30 26 2 26 27
M  V30 27 1 27 2
M  V30 28 1 24 5
M  V30 29 1 24 8
M  V30 30 1 21 17
M  V30 31 1 1 28
M  V30 32 1 1 29
M  V30 33 1 1 30
M  V30 34 1 3 31
M  V30 35 1 7 32
M  V30 36 1 9 33
M  V30 37 1 11 34
M  V30 38 1 14 35
M  V30 39 1 15 36
M  V30 40 1 15 37
M  V30 41 1 16 38
M  V30 42 1 16 39
M  V30 43 1 18 40
M  V30 44 1 19 41
M  V30 45 1 19 42
M  V30 46 1 20 43
M  V30 47 1 20 44
M  V30 48 1 21 45
M  V30 49 1 21 46
M  V30 50 1 23 47
M  V30 51 1 25 48
M  V30 52 1 26 49
M  V30 END BOND
M  V30 END CTAB
M  END
>  <Dataset>  (396) 
ChEMBL_Kinases

>  <Ligand_Instance>  (396) 
nan

>  <PDB_ID>  (396) 
nan

>  <Standardized_SMILES>  (396) 
Cc1cc(-c2n[nH]c3cc(NC(=O)NCCC4=CCCC4)ncc23)ccn1

>  <Name>  (396) 
nan

>  <Pocket>  (396) 
nan

>  <ATP_Site>  (396) 
nan

>  <Peripheral>  (396) 
nan

>  <Num_H_Atoms_ProtBoundConf>  (396) 
nan

>  <Num_Resolved_Atoms>  (396) 
nan

>  <Num_Not_Resolved_Atoms>  (396) 
nan

$$$$
CHEMBL3654840
     RDKit          3D

  0  0  0  0  0  0  0  0  0  0999 V3000
M  V30 BEGIN CTAB
M  V30 COUNTS 55 59 0 0 0
M  V30 BEGIN ATOM
M  V30 1 C 2.709062 -3.865989 -3.640523 0
M  V30 2 N 2.832861 -4.669195 -2.428536 0
M  V30 3 C 3.283184 -3.754670 -1.399633 0
M  V30 4 C 1.974755 -3.363965 -0.718528 0 CFG=2
M  V30 5 N 2.151079 -2.630298 0.492034 0
M  V30 6 C 1.620998 -1.328701 0.678615 0
M  V30 7 O 0.986628 -0.917631 -0.348852 0
M  V30 8 N 1.793454 -0.585468 1.890564 0
M  V30 9 C 1.154271 0.711985 1.818737 0
M  V30 10 C 1.723827 1.889757 1.376334 0
M  V30 11 C 0.943623 3.030761 1.384717 0
M  V30 12 N 1.279502 4.278691 1.003757 0
M  V30 13 N 0.195393 5.016347 1.199363 0
M  V30 14 C -0.822127 4.275891 1.693837 0
M  V30 15 C -2.165019 4.741173 2.033455 0
M  V30 16 C -2.810925 5.574364 1.135669 0
M  V30 17 C -4.093013 6.081688 1.350037 0
M  V30 18 C -4.714029 5.709406 2.530029 0
M  V30 19 F -5.956617 6.207967 2.725834 0
M  V30 20 C -4.101136 4.872618 3.462351 0
M  V30 21 C -2.820853 4.393619 3.200205 0
M  V30 22 C -0.366354 2.978794 1.825751 0
M  V30 23 C -0.911978 1.781089 2.264627 0
M  V30 24 N -0.137342 0.664215 2.252836 0
M  V30 25 C 1.368384 -4.722539 -0.578086 0 CFG=1
M  V30 26 C 0.003610 -4.766209 -0.094048 0
M  V30 27 C -0.268239 -5.536705 1.038505 0
M  V30 28 C -1.531127 -5.649731 1.585155 0
M  V30 29 C -2.565448 -4.963269 0.973290 0
M  V30 30 C -2.287004 -4.205884 -0.143481 0
M  V30 31 C -1.032172 -4.074415 -0.712711 0
M  V30 32 C 1.544390 -5.214162 -1.996545 0
M  V30 33 H 1.686281 -3.403115 -3.593316 0
M  V30 34 H 3.394555 -2.974228 -3.596678 0
M  V30 35 H 2.895509 -4.429220 -4.561177 0
M  V30 36 H 3.868988 -4.322943 -0.620602 0
M  V30 37 H 3.835427 -2.887613 -1.760377 0
M  V30 38 H 1.379150 -2.788224 -1.476425 0
M  V30 39 H 2.694376 -3.088821 1.255878 0
M  V30 40 H 2.353769 -1.109888 2.622096 0
M  V30 41 H 2.753887 1.804596 1.056885 0
M  V30 42 H 2.197712 4.583144 0.636462 0
M  V30 43 H -2.331793 5.870608 0.209566 0
M  V30 44 H -4.583835 6.731179 0.639338 0
M  V30 45 H -4.624142 4.603564 4.378677 0
M  V30 46 H -2.327344 3.744857 3.907334 0
M  V30 47 H -1.938563 1.767156 2.604434 0
M  V30 48 H 2.010995 -5.347251 0.071604 0
M  V30 49 H 0.500668 -6.090900 1.553052 0
M  V30 50 H -1.720132 -6.250895 2.461616 0
M  V30 51 H -3.556836 -5.040735 1.387100 0
M  V30 52 H -3.113438 -3.680603 -0.600799 0
M  V30 53 H -0.852242 -3.472867 -1.586874 0
M  V30 54 H 1.641175 -6.314244 -2.039876 0
M  V30 55 H 0.799278 -4.804025 -2.695429 0
M  V30 END ATOM
M  V30 BEGIN BOND
M  V30 1 1 1 2
M  V30 2 1 2 3
M  V30 3 1 3 4
M  V30 4 1 4 5
M  V30 5 1 5 6
M  V30 6 2 6 7
M  V30 7 1 6 8
M  V30 8 1 8 9
M  V30 9 2 9 10
M  V30 10 1 10 11
M  V30 11 1 11 12
M  V30 12 1 12 13
M  V30 13 2 13 14
M  V30 14 1 14 15
M  V30 15 2 15 16
M  V30 16 1 16 17
M  V30 17 2 17 18
M  V30 18 1 18 19
M  V30 19 1 18 20
M  V30 20 2 20 21
M  V30 21 1 14 22
M  V30 22 1 22 23
M  V30 23 2 23 24
M  V30 24 1 4 25
M  V30 25 1 25 26
M  V30 26 2 26 27
M  V30 27 1 27 28
M  V30 28 2 28 29
M  V30 29 1 29 30
M  V30 30 2 30 31
M  V30 31 1 25 32
M  V30 32 1 32 2
M  V30 33 1 24 9
M  V30 34 1 31 26
M  V30 35 2 22 11
M  V30 36 1 21 15
M  V30 37 1 1 33
M  V30 38 1 1 34
M  V30 39 1 1 35
M  V30 40 1 3 36
M  V30 41 1 3 37
M  V30 42 1 4 38 CFG=3
M  V30 43 1 5 39
M  V30 44 1 8 40
M  V30 45 1 10 41
M  V30 46 1 12 42
M  V30 47 1 16 43
M  V30 48 1 17 44
M  V30 49 1 20 45
M  V30 50 1 21 46
M  V30 51 1 23 47
M  V30 52 1 25 48 CFG=1
M  V30 53 1 27 49
M  V30 54 1 28 50
M  V30 55 1 29 51
M  V30 56 1 30 52
M  V30 57 1 31 53
M  V30 58 1 32 54
M  V30 59 1 32 55
M  V30 END BOND
M  V30 END CTAB
M  END
>  <Dataset>  (397) 
ChEMBL_Kinases

>  <Ligand_Instance>  (397) 
nan

>  <PDB_ID>  (397) 
nan

>  <Standardized_SMILES>  (397) 
CN1C[C@H](NC(=O)Nc2cc3[nH]nc(-c4ccc(F)cc4)c3cn2)[C@@H](c2ccccc2)C1

>  <Name>  (397) 
nan

>  <Pocket>  (397) 
nan

>  <ATP_Site>  (397) 
nan

>  <Peripheral>  (397) 
nan

>  <Num_H_Atoms_ProtBoundConf>  (397) 
nan

>  <Num_Resolved_Atoms>  (397) 
nan

>  <Num_Not_Resolved_Atoms>  (397) 
nan

$$$$
CHEMBL3654841
     RDKit          3D

  0  0  0  0  0  0  0  0  0  0999 V3000
M  V30 BEGIN CTAB
M  V30 COUNTS 55 59 0 0 0
M  V30 BEGIN ATOM
M  V30 1 C -1.062971 -4.760484 4.225324 0
M  V30 2 N -1.285796 -5.113642 2.863411 0
M  V30 3 C -1.742465 -4.073584 2.003261 0
M  V30 4 C -0.612911 -3.749418 1.053728 0 CFG=1
M  V30 5 N 0.056029 -2.560486 1.602220 0
M  V30 6 C 0.103566 -1.313294 0.926400 0
M  V30 7 O -0.429964 -1.132746 -0.206197 0
M  V30 8 N 0.805144 -0.298248 1.646070 0
M  V30 9 C 0.918473 0.999565 1.065531 0
M  V30 10 C 1.891647 1.513510 0.232928 0
M  V30 11 C 1.768441 2.820759 -0.197379 0
M  V30 12 N 2.609273 3.492678 -1.006000 0
M  V30 13 N 2.063715 4.711834 -1.127590 0
M  V30 14 C 0.923255 4.799694 -0.421117 0
M  V30 15 C 0.046905 5.965910 -0.307457 0
M  V30 16 C -0.243157 6.637948 -1.480242 0
M  V30 17 C -1.059770 7.758543 -1.516875 0
M  V30 18 C -1.605389 8.220938 -0.329111 0
M  V30 19 F -2.419535 9.300825 -0.206800 0
M  V30 20 C -1.314069 7.548634 0.837622 0
M  V30 21 C -0.492877 6.420629 0.879148 0
M  V30 22 C 0.693422 3.589254 0.200861 0
M  V30 23 C -0.269989 3.059018 1.033497 0
M  V30 24 N -0.131333 1.771353 1.446032 0
M  V30 25 C 0.256801 -4.948590 1.076904 0 CFG=2
M  V30 26 C 0.164650 -5.641573 -0.250010 0
M  V30 27 C 1.322862 -5.858901 -0.964876 0
M  V30 28 C 1.205685 -6.508498 -2.198574 0
M  V30 29 C -0.048784 -6.912562 -2.667920 0
M  V30 30 C -1.196075 -6.682533 -1.931222 0
M  V30 31 C -1.068332 -6.041276 -0.716271 0
M  V30 32 C -0.222297 -5.808801 2.208493 0
M  V30 33 H -0.260770 -5.319052 4.714766 0
M  V30 34 H -2.021947 -4.899740 4.802718 0
M  V30 35 H -0.784495 -3.672366 4.345071 0
M  V30 36 H -2.693077 -4.312212 1.479880 0
M  V30 37 H -1.984457 -3.198385 2.653492 0
M  V30 38 H -1.061310 -3.525417 0.066896 0
M  V30 39 H 0.487958 -2.735059 2.535502 0
M  V30 40 H 1.259448 -0.403602 2.580586 0
M  V30 41 H 2.660474 0.798492 0.012651 0
M  V30 42 H 3.491838 3.152225 -1.446403 0
M  V30 43 H 0.148152 6.336533 -2.458727 0
M  V30 44 H -1.325459 8.324632 -2.381789 0
M  V30 45 H -1.715487 7.870684 1.788683 0
M  V30 46 H -0.256173 5.883944 1.786944 0
M  V30 47 H -1.100646 3.685760 1.328228 0
M  V30 48 H 1.325595 -4.708240 1.304247 0
M  V30 49 H 2.310736 -5.561908 -0.636806 0
M  V30 50 H 2.097515 -6.694497 -2.784869 0
M  V30 51 H -0.073949 -7.407416 -3.623825 0
M  V30 52 H -2.139369 -7.015730 -2.341163 0
M  V30 53 H -1.996634 -5.888486 -0.184160 0
M  V30 54 H 0.591517 -6.070045 2.940794 0
M  V30 55 H -0.638536 -6.787505 1.850741 0
M  V30 END ATOM
M  V30 BEGIN BOND
M  V30 1 1 1 2
M  V30 2 1 2 3
M  V30 3 1 3 4
M  V30 4 1 4 5
M  V30 5 1 5 6
M  V30 6 2 6 7
M  V30 7 1 6 8
M  V30 8 1 8 9
M  V30 9 2 9 10
M  V30 10 1 10 11
M  V30 11 1 11 12
M  V30 12 1 12 13
M  V30 13 2 13 14
M  V30 14 1 14 15
M  V30 15 2 15 16
M  V30 16 1 16 17
M  V30 17 2 17 18
M  V30 18 1 18 19
M  V30 19 1 18 20
M  V30 20 2 20 21
M  V30 21 1 14 22
M  V30 22 1 22 23
M  V30 23 2 23 24
M  V30 24 1 4 25
M  V30 25 1 25 26
M  V30 26 2 26 27
M  V30 27 1 27 28
M  V30 28 2 28 29
M  V30 29 1 29 30
M  V30 30 2 30 31
M  V30 31 1 25 32
M  V30 32 1 32 2
M  V30 33 1 24 9
M  V30 34 1 31 26
M  V30 35 2 22 11
M  V30 36 1 21 15
M  V30 37 1 1 33
M  V30 38 1 1 34
M  V30 39 1 1 35
M  V30 40 1 3 36
M  V30 41 1 3 37
M  V30 42 1 4 38 CFG=3
M  V30 43 1 5 39
M  V30 44 1 8 40
M  V30 45 1 10 41
M  V30 46 1 12 42
M  V30 47 1 16 43
M  V30 48 1 17 44
M  V30 49 1 20 45
M  V30 50 1 21 46
M  V30 51 1 23 47
M  V30 52 1 25 48 CFG=1
M  V30 53 1 27 49
M  V30 54 1 28 50
M  V30 55 1 29 51
M  V30 56 1 30 52
M  V30 57 1 31 53
M  V30 58 1 32 54
M  V30 59 1 32 55
M  V30 END BOND
M  V30 END CTAB
M  END
>  <Dataset>  (398) 
ChEMBL_Kinases

>  <Ligand_Instance>  (398) 
nan

>  <PDB_ID>  (398) 
nan

>  <Standardized_SMILES>  (398) 
CN1C[C@@H](NC(=O)Nc2cc3[nH]nc(-c4ccc(F)cc4)c3cn2)[C@H](c2ccccc2)C1

>  <Name>  (398) 
nan

>  <Pocket>  (398) 
nan

>  <ATP_Site>  (398) 
nan

>  <Peripheral>  (398) 
nan

>  <Num_H_Atoms_ProtBoundConf>  (398) 
nan

>  <Num_Resolved_Atoms>  (398) 
nan

>  <Num_Not_Resolved_Atoms>  (398) 
nan

$$$$
CHEMBL3654842
     RDKit          3D

  0  0  0  0  0  0  0  0  0  0999 V3000
M  V30 BEGIN CTAB
M  V30 COUNTS 60 64 0 0 0
M  V30 BEGIN ATOM
M  V30 1 C 7.163574 -3.352050 5.207685 0
M  V30 2 C 6.585115 -1.993909 5.385114 0
M  V30 3 C 5.944817 -1.314290 4.358150 0
M  V30 4 C 5.406564 -0.057137 4.514074 0
M  V30 5 C 4.748714 0.599648 3.402085 0
M  V30 6 N 4.892263 1.871555 2.995489 0
M  V30 7 N 4.135242 2.139849 1.941950 0
M  V30 8 C 3.481603 0.992081 1.664724 0
M  V30 9 C 2.573067 0.779301 0.646394 0
M  V30 10 C 2.028685 -0.471564 0.551909 0
M  V30 11 N 1.067224 -0.987336 -0.391230 0
M  V30 12 C -0.327470 -0.889755 -0.084797 0
M  V30 13 O -0.764510 -0.382352 0.954279 0
M  V30 14 N -1.139488 -1.441606 -1.109958 0
M  V30 15 C -2.601251 -1.461887 -1.029176 0 CFG=2
M  V30 16 C -3.160056 -2.833207 -1.233804 0
M  V30 17 N -4.186047 -2.625951 -2.258879 0
M  V30 18 C -4.487118 -3.939482 -2.786420 0
M  V30 19 C -3.392863 -1.819146 -3.192158 0
M  V30 20 C -3.069459 -0.652648 -2.246750 0 CFG=1
M  V30 21 C -4.382894 -0.015215 -1.974379 0
M  V30 22 C -5.202724 -0.359130 -0.920486 0
M  V30 23 C -6.423122 0.228026 -0.660387 0
M  V30 24 C -6.832582 1.232751 -1.534751 0
M  V30 25 C -6.014431 1.580020 -2.591237 0
M  V30 26 C -4.776955 0.972809 -2.841106 0
M  V30 27 C -4.047431 1.484265 -4.026470 0
M  V30 28 N 2.366276 -1.466076 1.423107 0
M  V30 29 C 3.260339 -1.244880 2.419558 0
M  V30 30 C 3.837282 0.000562 2.556519 0
M  V30 31 C 5.540868 0.505380 5.777233 0
M  V30 32 C 6.181248 -0.183366 6.790695 0
M  V30 33 N 6.696301 -1.408874 6.607993 0
M  V30 34 H 8.204566 -3.382735 5.594624 0
M  V30 35 H 7.150469 -3.610127 4.121964 0
M  V30 36 H 6.563344 -4.110946 5.764478 0
M  V30 37 H 5.914894 -1.871593 3.432055 0
M  V30 38 H 4.072737 3.053501 1.445886 0
M  V30 39 H 2.217496 1.446304 -0.096451 0
M  V30 40 H 1.494393 -1.403448 -1.249089 0
M  V30 41 H -0.806121 -1.877487 -2.000405 0
M  V30 42 H -2.861240 -0.994242 -0.077489 0
M  V30 43 H -3.556553 -3.308326 -0.329637 0
M  V30 44 H -2.433770 -3.509210 -1.776035 0
M  V30 45 H -3.748732 -4.120364 -3.595754 0
M  V30 46 H -5.498493 -4.027552 -3.217353 0
M  V30 47 H -4.262479 -4.748695 -2.033234 0
M  V30 48 H -3.979508 -1.500484 -4.056406 0
M  V30 49 H -2.485871 -2.395280 -3.417446 0
M  V30 50 H -2.296447 0.009141 -2.617158 0
M  V30 51 H -4.885629 -1.138736 -0.241311 0
M  V30 52 H -7.053221 -0.054615 0.171574 0
M  V30 53 H -7.779384 1.740185 -1.394401 0
M  V30 54 H -6.389512 2.378910 -3.248207 0
M  V30 55 H -2.982993 1.260680 -4.051362 0
M  V30 56 H -4.205757 2.596764 -4.067273 0
M  V30 57 H -4.496692 1.008797 -4.940280 0
M  V30 58 H 3.543964 -2.014967 3.121860 0
M  V30 59 H 5.127908 1.488958 5.925340 0
M  V30 60 H 6.288526 0.254220 7.781408 0
M  V30 END ATOM
M  V30 BEGIN BOND
M  V30 1 1 1 2
M  V30 2 2 2 3
M  V30 3 1 3 4
M  V30 4 1 4 5
M  V30 5 2 5 6
M  V30 6 1 6 7
M  V30 7 1 7 8
M  V30 8 2 8 9
M  V30 9 1 9 10
M  V30 10 1 10 11
M  V30 11 1 11 12
M  V30 12 2 12 13
M  V30 13 1 12 14
M  V30 14 1 14 15
M  V30 15 1 15 16
M  V30 16 1 16 17
M  V30 17 1 17 18
M  V30 18 1 17 19
M  V30 19 1 19 20
M  V30 20 1 20 21
M  V30 21 2 21 22
M  V30 22 1 22 23
M  V30 23 2 23 24
M  V30 24 1 24 25
M  V30 25 2 25 26
M  V30 26 1 26 27
M  V30 27 2 10 28
M  V30 28 1 28 29
M  V30 29 2 29 30
M  V30 30 2 4 31
M  V30 31 1 31 32
M  V30 32 2 32 33
M  V30 33 1 33 2
M  V30 34 1 30 5
M  V30 35 1 30 8
M  V30 36 1 20 15
M  V30 37 1 26 21
M  V30 38 1 1 34
M  V30 39 1 1 35
M  V30 40 1 1 36
M  V30 41 1 3 37
M  V30 42 1 7 38
M  V30 43 1 9 39
M  V30 44 1 11 40
M  V30 45 1 14 41
M  V30 46 1 15 42 CFG=1
M  V30 47 1 16 43
M  V30 48 1 16 44
M  V30 49 1 18 45
M  V30 50 1 18 46
M  V30 51 1 18 47
M  V30 52 1 19 48
M  V30 53 1 19 49
M  V30 54 1 20 50 CFG=3
M  V30 55 1 22 51
M  V30 56 1 23 52
M  V30 57 1 24 53
M  V30 58 1 25 54
M  V30 59 1 27 55
M  V30 60 1 27 56
M  V30 61 1 27 57
M  V30 62 1 29 58
M  V30 63 1 31 59
M  V30 64 1 32 60
M  V30 END BOND
M  V30 END CTAB
M  END
>  <Dataset>  (399) 
ChEMBL_Kinases

>  <Ligand_Instance>  (399) 
nan

>  <PDB_ID>  (399) 
nan

>  <Standardized_SMILES>  (399) 
Cc1cc(-c2n[nH]c3cc(NC(=O)N[C@@H]4CN(C)C[C@H]4c4ccccc4C)ncc23)ccn1

>  <Name>  (399) 
nan

>  <Pocket>  (399) 
nan

>  <ATP_Site>  (399) 
nan

>  <Peripheral>  (399) 
nan

>  <Num_H_Atoms_ProtBoundConf>  (399) 
nan

>  <Num_Resolved_Atoms>  (399) 
nan

>  <Num_Not_Resolved_Atoms>  (399) 
nan

$$$$
CHEMBL3654843
     RDKit          3D

  0  0  0  0  0  0  0  0  0  0999 V3000
M  V30 BEGIN CTAB
M  V30 COUNTS 60 64 0 0 0
M  V30 BEGIN ATOM
M  V30 1 C 9.514233 -1.472591 3.496742 0
M  V30 2 C 8.038795 -1.519097 3.671094 0
M  V30 3 C 7.225473 -0.816234 2.805360 0
M  V30 4 C 5.836931 -0.834209 2.935946 0
M  V30 5 C 4.937402 -0.106963 2.045404 0
M  V30 6 N 5.094875 1.172954 1.630809 0
M  V30 7 N 4.106484 1.540350 0.827715 0
M  V30 8 C 3.306129 0.460422 0.735717 0
M  V30 9 C 2.135754 0.336723 0.011414 0
M  V30 10 C 1.477778 -0.876123 0.067812 0
M  V30 11 N 0.267829 -1.250131 -0.581102 0
M  V30 12 C -1.022131 -1.065670 0.016156 0
M  V30 13 O -0.945789 -0.534248 1.178833 0
M  V30 14 N -2.297304 -1.415349 -0.568825 0
M  V30 15 C -3.502870 -1.170975 0.146625 0 CFG=2
M  V30 16 C -4.244619 -2.410909 0.604667 0
M  V30 17 N -5.611610 -1.988566 0.802733 0
M  V30 18 C -5.661305 -1.340634 2.122354 0
M  V30 19 C -5.915918 -0.959888 -0.172740 0
M  V30 20 C -4.566802 -0.375550 -0.484582 0 CFG=2
M  V30 21 C -4.377710 0.203852 -1.799670 0
M  V30 22 C -4.213335 1.580706 -2.035884 0
M  V30 23 C -4.009822 2.220965 -3.235345 0
M  V30 24 C -3.956218 1.434602 -4.364692 0
M  V30 25 C -4.109168 0.072728 -4.217275 0
M  V30 26 C -4.314974 -0.526358 -2.966709 0
M  V30 27 C -4.472776 -1.951641 -3.028873 0
M  V30 28 N 1.955872 -1.914831 0.805301 0
M  V30 29 C 3.106491 -1.803185 1.521376 0
M  V30 30 C 3.780113 -0.604366 1.481056 0
M  V30 31 C 5.372596 -1.609946 3.996191 0
M  V30 32 C 6.174366 -2.311810 4.861454 0
M  V30 33 N 7.508225 -2.232538 4.654158 0
M  V30 34 H 9.884535 -0.427236 3.464127 0
M  V30 35 H 10.009341 -1.938293 4.375875 0
M  V30 36 H 9.777762 -2.031967 2.564783 0
M  V30 37 H 7.650416 -0.238003 2.008970 0
M  V30 38 H 3.974362 2.468081 0.364289 0
M  V30 39 H 1.651650 1.077610 -0.609192 0
M  V30 40 H 0.272393 -1.679803 -1.531079 0
M  V30 41 H -2.086178 -1.823520 -1.494510 0
M  V30 42 H -3.134694 -0.729600 1.132911 0
M  V30 43 H -3.897171 -2.766137 1.619171 0
M  V30 44 H -4.134692 -3.278957 -0.043490 0
M  V30 45 H -5.437181 -0.260360 2.022100 0
M  V30 46 H -6.678350 -1.434451 2.535082 0
M  V30 47 H -4.965564 -1.801765 2.826412 0
M  V30 48 H -6.629175 -0.261444 0.313801 0
M  V30 49 H -6.479818 -1.348751 -1.037805 0
M  V30 50 H -4.603831 0.564350 0.192937 0
M  V30 51 H -4.249247 2.247710 -1.158254 0
M  V30 52 H -3.898429 3.291531 -3.277072 0
M  V30 53 H -3.799238 1.913067 -5.300351 0
M  V30 54 H -4.055334 -0.486929 -5.156855 0
M  V30 55 H -5.143355 -2.215048 -3.904455 0
M  V30 56 H -3.479537 -2.381422 -3.360802 0
M  V30 57 H -4.787323 -2.542593 -2.207787 0
M  V30 58 H 3.510899 -2.606971 2.114582 0
M  V30 59 H 4.310718 -1.687428 4.180504 0
M  V30 60 H 5.756723 -2.898127 5.667758 0
M  V30 END ATOM
M  V30 BEGIN BOND
M  V30 1 1 1 2
M  V30 2 2 2 3
M  V30 3 1 3 4
M  V30 4 1 4 5
M  V30 5 2 5 6
M  V30 6 1 6 7
M  V30 7 1 7 8
M  V30 8 2 8 9
M  V30 9 1 9 10
M  V30 10 1 10 11
M  V30 11 1 11 12
M  V30 12 2 12 13
M  V30 13 1 12 14
M  V30 14 1 14 15
M  V30 15 1 15 16
M  V30 16 1 16 17
M  V30 17 1 17 18
M  V30 18 1 17 19
M  V30 19 1 19 20
M  V30 20 1 20 21
M  V30 21 2 21 22
M  V30 22 1 22 23
M  V30 23 2 23 24
M  V30 24 1 24 25
M  V30 25 2 25 26
M  V30 26 1 26 27
M  V30 27 2 10 28
M  V30 28 1 28 29
M  V30 29 2 29 30
M  V30 30 2 4 31
M  V30 31 1 31 32
M  V30 32 2 32 33
M  V30 33 1 33 2
M  V30 34 1 30 5
M  V30 35 1 30 8
M  V30 36 1 20 15
M  V30 37 1 26 21
M  V30 38 1 1 34
M  V30 39 1 1 35
M  V30 40 1 1 36
M  V30 41 1 3 37
M  V30 42 1 7 38
M  V30 43 1 9 39
M  V30 44 1 11 40
M  V30 45 1 14 41
M  V30 46 1 15 42 CFG=1
M  V30 47 1 16 43
M  V30 48 1 16 44
M  V30 49 1 18 45
M  V30 50 1 18 46
M  V30 51 1 18 47
M  V30 52 1 19 48
M  V30 53 1 19 49
M  V30 54 1 20 50 CFG=1
M  V30 55 1 22 51
M  V30 56 1 23 52
M  V30 57 1 24 53
M  V30 58 1 25 54
M  V30 59 1 27 55
M  V30 60 1 27 56
M  V30 61 1 27 57
M  V30 62 1 29 58
M  V30 63 1 31 59
M  V30 64 1 32 60
M  V30 END BOND
M  V30 END CTAB
M  END
>  <Dataset>  (400) 
ChEMBL_Kinases

>  <Ligand_Instance>  (400) 
nan

>  <PDB_ID>  (400) 
nan

>  <Standardized_SMILES>  (400) 
Cc1cc(-c2n[nH]c3cc(NC(=O)N[C@@H]4CN(C)C[C@@H]4c4ccccc4C)ncc23)ccn1

>  <Name>  (400) 
nan

>  <Pocket>  (400) 
nan

>  <ATP_Site>  (400) 
nan

>  <Peripheral>  (400) 
nan

>  <Num_H_Atoms_ProtBoundConf>  (400) 
nan

>  <Num_Resolved_Atoms>  (400) 
nan

>  <Num_Not_Resolved_Atoms>  (400) 
nan

$$$$
CHEMBL3654835
     RDKit          3D

  0  0  0  0  0  0  0  0  0  0999 V3000
M  V30 BEGIN CTAB
M  V30 COUNTS 63 67 0 0 0
M  V30 BEGIN ATOM
M  V30 1 C 1.321993 -2.259854 10.082163 0
M  V30 2 C 0.648055 -2.044694 8.789420 0
M  V30 3 C 1.116727 -1.093233 7.885340 0
M  V30 4 C 0.465478 -0.909202 6.675573 0
M  V30 5 C 0.906423 0.070898 5.685966 0
M  V30 6 N 1.278386 1.353411 5.904964 0
M  V30 7 N 1.620031 1.951627 4.764909 0
M  V30 8 C 1.476861 1.061916 3.764343 0
M  V30 9 C 1.695859 1.173570 2.403854 0
M  V30 10 C 1.461935 0.077003 1.594980 0
M  V30 11 N 1.642903 0.038553 0.166090 0
M  V30 12 C 0.436180 0.422242 -0.525754 0
M  V30 13 O -0.653947 0.754450 0.054242 0
M  V30 14 N 0.352438 0.465156 -1.945528 0
M  V30 15 C -0.856629 0.848083 -2.649197 0 CFG=1
M  V30 16 C -0.533992 2.138491 -3.384284 0
M  V30 17 N -0.842403 1.935717 -4.765308 0
M  V30 18 C 0.369467 1.980711 -5.536171 0
M  V30 19 C -1.584851 0.717240 -4.866396 0
M  V30 20 C -1.145434 -0.178317 -3.700306 0 CFG=2
M  V30 21 C -2.265742 -1.107881 -3.421936 0
M  V30 22 C -2.417069 -2.067504 -4.577616 0
M  V30 23 C -1.215671 -2.960436 -4.741403 0
M  V30 24 C -0.536311 -3.329882 -3.462490 0
M  V30 25 C -1.329676 -3.132588 -2.222982 0
M  V30 26 C -2.171802 -1.902947 -2.155568 0
M  V30 27 N 1.023494 -1.082491 2.152096 0
M  V30 28 C 0.808840 -1.192880 3.483121 0
M  V30 29 C 1.030879 -0.120616 4.323758 0
M  V30 30 C -0.630596 -1.725861 6.483651 0
M  V30 31 C -1.081500 -2.662361 7.387957 0
M  V30 32 N -0.431589 -2.810580 8.537303 0
M  V30 33 H 0.655794 -2.680320 10.846881 0
M  V30 34 H 2.170276 -2.976131 9.955388 0
M  V30 35 H 1.678508 -1.274448 10.460672 0
M  V30 36 H 1.992391 -0.493954 8.125638 0
M  V30 37 H 1.946233 2.945102 4.653359 0
M  V30 38 H 2.039978 2.061889 1.917253 0
M  V30 39 H 2.415895 -0.194196 -0.482394 0
M  V30 40 H 1.183253 0.214738 -2.525288 0
M  V30 41 H -1.686373 1.084956 -1.972724 0
M  V30 42 H -1.164115 2.996254 -3.039077 0
M  V30 43 H 0.511566 2.482319 -3.214045 0
M  V30 44 H 1.145995 2.589425 -5.020670 0
M  V30 45 H 0.748791 0.954696 -5.717032 0
M  V30 46 H 0.128306 2.497462 -6.487781 0
M  V30 47 H -1.303377 0.231945 -5.838977 0
M  V30 48 H -2.671295 0.919746 -4.826556 0
M  V30 49 H -0.212510 -0.649099 -4.039456 0
M  V30 50 H -3.200829 -0.506360 -3.379421 0
M  V30 51 H -3.332975 -2.682015 -4.458782 0
M  V30 52 H -2.526089 -1.483800 -5.510018 0
M  V30 53 H -0.442846 -2.462347 -5.395080 0
M  V30 54 H -1.540304 -3.852723 -5.315490 0
M  V30 55 H 0.478924 -2.845130 -3.363359 0
M  V30 56 H -0.276396 -4.419478 -3.536065 0
M  V30 57 H -1.914840 -4.076089 -2.028764 0
M  V30 58 H -0.585091 -3.128977 -1.372807 0
M  V30 59 H -1.918728 -1.298794 -1.261286 0
M  V30 60 H -3.228809 -2.246102 -1.944304 0
M  V30 61 H 0.459203 -2.131852 3.894770 0
M  V30 62 H -1.203319 -1.647222 5.556029 0
M  V30 63 H -1.961421 -3.269803 7.154886 0
M  V30 END ATOM
M  V30 BEGIN BOND
M  V30 1 1 1 2
M  V30 2 2 2 3
M  V30 3 1 3 4
M  V30 4 1 4 5
M  V30 5 2 5 6
M  V30 6 1 6 7
M  V30 7 1 7 8
M  V30 8 2 8 9
M  V30 9 1 9 10
M  V30 10 1 10 11
M  V30 11 1 11 12
M  V30 12 2 12 13
M  V30 13 1 12 14
M  V30 14 1 14 15
M  V30 15 1 15 16
M  V30 16 1 16 17
M  V30 17 1 17 18
M  V30 18 1 17 19
M  V30 19 1 19 20
M  V30 20 1 20 21
M  V30 21 1 21 22
M  V30 22 1 22 23
M  V30 23 1 23 24
M  V30 24 1 24 25
M  V30 25 1 25 26
M  V30 26 2 10 27
M  V30 27 1 27 28
M  V30 28 2 28 29
M  V30 29 2 4 30
M  V30 30 1 30 31
M  V30 31 2 31 32
M  V30 32 1 32 2
M  V30 33 1 29 5
M  V30 34 1 29 8
M  V30 35 1 20 15
M  V30 36 1 26 21
M  V30 37 1 1 33
M  V30 38 1 1 34
M  V30 39 1 1 35
M  V30 40 1 3 36
M  V30 41 1 7 37
M  V30 42 1 9 38
M  V30 43 1 11 39
M  V30 44 1 14 40
M  V30 45 1 15 41 CFG=1
M  V30 46 1 16 42
M  V30 47 1 16 43
M  V30 48 1 18 44
M  V30 49 1 18 45
M  V30 50 1 18 46
M  V30 51 1 19 47
M  V30 52 1 19 48
M  V30 53 1 20 49 CFG=3
M  V30 54 1 21 50
M  V30 55 1 22 51
M  V30 56 1 22 52
M  V30 57 1 23 53
M  V30 58 1 23 54
M  V30 59 1 24 55
M  V30 60 1 24 56
M  V30 61 1 25 57
M  V30 62 1 25 58
M  V30 63 1 26 59
M  V30 64 1 26 60
M  V30 65 1 28 61
M  V30 66 1 30 62
M  V30 67 1 31 63
M  V30 END BOND
M  V30 END CTAB
M  END
>  <Dataset>  (401) 
ChEMBL_Kinases

>  <Ligand_Instance>  (401) 
nan

>  <PDB_ID>  (401) 
nan

>  <Standardized_SMILES>  (401) 
Cc1cc(-c2n[nH]c3cc(NC(=O)N[C@H]4CN(C)C[C@@H]4C4CCCCC4)ncc23)ccn1

>  <Name>  (401) 
nan

>  <Pocket>  (401) 
nan

>  <ATP_Site>  (401) 
nan

>  <Peripheral>  (401) 
nan

>  <Num_H_Atoms_ProtBoundConf>  (401) 
nan

>  <Num_Resolved_Atoms>  (401) 
nan

>  <Num_Not_Resolved_Atoms>  (401) 
nan

$$$$
CHEMBL3655543
     RDKit          3D

  0  0  0  0  0  0  0  0  0  0999 V3000
M  V30 BEGIN CTAB
M  V30 COUNTS 49 53 0 0 0
M  V30 BEGIN ATOM
M  V30 1 N 0.444132 -8.293253 0.699010 0
M  V30 2 C 0.124196 -7.212210 0.413001 0
M  V30 3 C -0.286333 -5.875230 0.036565 0
M  V30 4 C 0.645612 -4.843780 0.131806 0
M  V30 5 C 0.242616 -3.576272 -0.229564 0
M  V30 6 C -1.021954 -3.259033 -0.679558 0
M  V30 7 C -1.486727 -1.935662 -1.071006 0
M  V30 8 C -0.654392 -0.856708 -1.017407 0
M  V30 9 C -1.002055 0.424909 -1.366402 0
M  V30 10 C -0.200022 1.633036 -1.339790 0
M  V30 11 N -0.124281 2.442154 -2.433027 0
M  V30 12 N 0.652036 3.478437 -2.207568 0
M  V30 13 C 1.108391 3.374891 -0.949460 0
M  V30 14 C 1.930119 4.101212 -0.116851 0
M  V30 15 C 2.204563 3.709647 1.172945 0
M  V30 16 N 1.647249 2.575784 1.632972 0
M  V30 17 C 0.819854 1.789834 0.881997 0
M  V30 18 O 0.425514 0.775631 1.556313 0
M  V30 19 C 0.024426 -0.255930 2.242170 0
M  V30 20 C -0.648264 0.082196 3.605377 0
M  V30 21 C 0.320471 0.748483 4.525397 0
M  V30 22 O 1.628881 0.660356 4.118797 0
M  V30 23 C 2.041082 -0.542192 3.626787 0
M  V30 24 C 1.141348 -1.237869 2.675796 0
M  V30 25 C 0.587733 2.233069 -0.393310 0
M  V30 26 C -2.310572 0.606916 -1.804792 0
M  V30 27 C -3.159953 -0.498189 -1.858705 0
M  V30 28 N -2.752267 -1.729510 -1.500676 0
M  V30 29 C -1.903093 -4.311524 -0.755361 0
M  V30 30 C -1.569518 -5.603802 -0.410763 0
M  V30 31 H 1.674062 -4.980535 0.475288 0
M  V30 32 H 0.961396 -2.776889 -0.156577 0
M  V30 33 H 0.381530 -0.911094 -0.687553 0
M  V30 34 H 0.900353 4.265089 -2.853196 0
M  V30 35 H 2.353598 5.010828 -0.542328 0
M  V30 36 H 2.869961 4.382432 1.708704 0
M  V30 37 H -0.751546 -0.934661 1.750570 0
M  V30 38 H -1.604701 0.586809 3.463844 0
M  V30 39 H -0.868177 -0.933289 4.030009 0
M  V30 40 H 0.063813 1.848586 4.540448 0
M  V30 41 H 0.174315 0.438648 5.601081 0
M  V30 42 H 3.024357 -0.347217 3.102784 0
M  V30 43 H 2.343832 -1.244762 4.458756 0
M  V30 44 H 1.695098 -1.629357 1.816772 0
M  V30 45 H 0.593757 -2.054166 3.224095 0
M  V30 46 H -2.763466 1.556158 -2.123092 0
M  V30 47 H -4.185506 -0.374799 -2.198197 0
M  V30 48 H -2.925548 -4.157382 -1.100720 0
M  V30 49 H -2.213021 -6.457242 -0.449783 0
M  V30 END ATOM
M  V30 BEGIN BOND
M  V30 1 3 1 2
M  V30 2 1 2 3
M  V30 3 2 3 4
M  V30 4 1 4 5
M  V30 5 2 5 6
M  V30 6 1 6 7
M  V30 7 2 7 8
M  V30 8 1 8 9
M  V30 9 1 9 10
M  V30 10 2 10 11
M  V30 11 1 11 12
M  V30 12 1 12 13
M  V30 13 2 13 14
M  V30 14 1 14 15
M  V30 15 2 15 16
M  V30 16 1 16 17
M  V30 17 1 17 18
M  V30 18 1 18 19
M  V30 19 1 19 20
M  V30 20 1 20 21
M  V30 21 1 21 22
M  V30 22 1 22 23
M  V30 23 1 23 24
M  V30 24 2 17 25
M  V30 25 2 9 26
M  V30 26 1 26 27
M  V30 27 2 27 28
M  V30 28 1 6 29
M  V30 29 2 29 30
M  V30 30 1 30 3
M  V30 31 1 28 7
M  V30 32 1 25 10
M  V30 33 1 25 13
M  V30 34 1 24 19
M  V30 35 1 4 31
M  V30 36 1 5 32
M  V30 37 1 8 33
M  V30 38 1 12 34
M  V30 39 1 14 35
M  V30 40 1 15 36
M  V30 41 1 19 37
M  V30 42 1 20 38
M  V30 43 1 20 39
M  V30 44 1 21 40
M  V30 45 1 21 41
M  V30 46 1 23 42
M  V30 47 1 23 43
M  V30 48 1 24 44
M  V30 49 1 24 45
M  V30 50 1 26 46
M  V30 51 1 27 47
M  V30 52 1 29 48
M  V30 53 1 30 49
M  V30 END BOND
M  V30 END CTAB
M  END
>  <Dataset>  (402) 
ChEMBL_Kinases

>  <Ligand_Instance>  (402) 
nan

>  <PDB_ID>  (402) 
nan

>  <Standardized_SMILES>  (402) 
N#Cc1ccc(-c2cc(-c3n[nH]c4ccnc(OC5CCOCC5)c34)ccn2)cc1

>  <Name>  (402) 
nan

>  <Pocket>  (402) 
nan

>  <ATP_Site>  (402) 
nan

>  <Peripheral>  (402) 
nan

>  <Num_H_Atoms_ProtBoundConf>  (402) 
nan

>  <Num_Resolved_Atoms>  (402) 
nan

>  <Num_Not_Resolved_Atoms>  (402) 
nan

$$$$
CHEMBL3655542
     RDKit          3D

  0  0  0  0  0  0  0  0  0  0999 V3000
M  V30 BEGIN CTAB
M  V30 COUNTS 49 53 0 0 0
M  V30 BEGIN ATOM
M  V30 1 N 1.671177 -8.569238 -0.570078 0
M  V30 2 C 2.015780 -7.470100 -0.667245 0
M  V30 3 C 2.424838 -6.095133 -0.774869 0
M  V30 4 C 3.750017 -5.784378 -0.983026 0
M  V30 5 C 4.116133 -4.472078 -1.082104 0
M  V30 6 C 3.177243 -3.479693 -0.975720 0
M  V30 7 C 1.836323 -3.720269 -0.767583 0
M  V30 8 C 0.790551 -2.711923 -0.645815 0
M  V30 9 C 1.023124 -1.369202 -0.725942 0
M  V30 10 C 0.045287 -0.378330 -0.613624 0
M  V30 11 C 0.465291 1.009528 -0.739137 0
M  V30 12 N 1.263675 1.333654 -1.799676 0
M  V30 13 N 1.561932 2.625385 -1.769132 0
M  V30 14 C 0.986779 3.208954 -0.706516 0
M  V30 15 C 0.894178 4.451491 -0.109754 0
M  V30 16 C 0.151978 4.636693 1.062079 0
M  V30 17 N -0.494087 3.579800 1.632378 0
M  V30 18 C -0.431133 2.344758 1.082157 0
M  V30 19 O -1.102027 1.334906 1.709848 0
M  V30 20 C -1.833885 1.567317 2.886937 0
M  V30 21 C -1.362672 0.755053 4.052399 0
M  V30 22 C -1.699157 -0.706649 3.820914 0
M  V30 23 O -3.085727 -0.801784 3.815683 0
M  V30 24 C -3.628927 -0.164422 2.702092 0
M  V30 25 C -3.304837 1.306097 2.658583 0
M  V30 26 C 0.303132 2.200292 -0.064166 0
M  V30 27 C -1.208460 -0.870842 -0.410463 0
M  V30 28 C -1.475456 -2.218427 -0.324789 0
M  V30 29 N -0.462518 -3.091817 -0.446080 0
M  V30 30 C 1.520042 -5.062484 -0.674926 0
M  V30 31 H 4.448545 -6.613698 -1.059105 0
M  V30 32 H 5.159562 -4.208701 -1.246649 0
M  V30 33 H 3.495284 -2.450774 -1.058035 0
M  V30 34 H 2.058454 -1.034058 -0.891673 0
M  V30 35 H 2.150154 3.167417 -2.440433 0
M  V30 36 H 1.430678 5.260458 -0.608474 0
M  V30 37 H 0.124270 5.634471 1.471615 0
M  V30 38 H -1.752081 2.646896 3.162547 0
M  V30 39 H -1.910014 1.092132 4.939672 0
M  V30 40 H -0.278813 0.883680 4.224770 0
M  V30 41 H -1.248561 -1.097260 2.898140 0
M  V30 42 H -1.325553 -1.313559 4.667471 0
M  V30 43 H -4.732919 -0.246484 2.790967 0
M  V30 44 H -3.347605 -0.675215 1.757494 0
M  V30 45 H -3.933167 1.845016 3.400804 0
M  V30 46 H -3.621864 1.673358 1.660980 0
M  V30 47 H -2.013678 -0.162875 -0.325681 0
M  V30 48 H -2.505271 -2.536273 -0.160431 0
M  V30 49 H 0.486889 -5.359138 -0.510806 0
M  V30 END ATOM
M  V30 BEGIN BOND
M  V30 1 3 1 2
M  V30 2 1 2 3
M  V30 3 2 3 4
M  V30 4 1 4 5
M  V30 5 2 5 6
M  V30 6 1 6 7
M  V30 7 1 7 8
M  V30 8 2 8 9
M  V30 9 1 9 10
M  V30 10 1 10 11
M  V30 11 2 11 12
M  V30 12 1 12 13
M  V30 13 1 13 14
M  V30 14 2 14 15
M  V30 15 1 15 16
M  V30 16 2 16 17
M  V30 17 1 17 18
M  V30 18 1 18 19
M  V30 19 1 19 20
M  V30 20 1 20 21
M  V30 21 1 21 22
M  V30 22 1 22 23
M  V30 23 1 23 24
M  V30 24 1 24 25
M  V30 25 2 18 26
M  V30 26 2 10 27
M  V30 27 1 27 28
M  V30 28 2 28 29
M  V30 29 2 7 30
M  V30 30 1 30 3
M  V30 31 1 29 8
M  V30 32 1 26 11
M  V30 33 1 26 14
M  V30 34 1 25 20
M  V30 35 1 4 31
M  V30 36 1 5 32
M  V30 37 1 6 33
M  V30 38 1 9 34
M  V30 39 1 13 35
M  V30 40 1 15 36
M  V30 41 1 16 37
M  V30 42 1 20 38
M  V30 43 1 21 39
M  V30 44 1 21 40
M  V30 45 1 22 41
M  V30 46 1 22 42
M  V30 47 1 24 43
M  V30 48 1 24 44
M  V30 49 1 25 45
M  V30 50 1 25 46
M  V30 51 1 27 47
M  V30 52 1 28 48
M  V30 53 1 30 49
M  V30 END BOND
M  V30 END CTAB
M  END
>  <Dataset>  (403) 
ChEMBL_Kinases

>  <Ligand_Instance>  (403) 
nan

>  <PDB_ID>  (403) 
nan

>  <Standardized_SMILES>  (403) 
N#Cc1cccc(-c2cc(-c3n[nH]c4ccnc(OC5CCOCC5)c34)ccn2)c1

>  <Name>  (403) 
nan

>  <Pocket>  (403) 
nan

>  <ATP_Site>  (403) 
nan

>  <Peripheral>  (403) 
nan

>  <Num_H_Atoms_ProtBoundConf>  (403) 
nan

>  <Num_Resolved_Atoms>  (403) 
nan

>  <Num_Not_Resolved_Atoms>  (403) 
nan

$$$$
CHEMBL3655541
     RDKit          3D

  0  0  0  0  0  0  0  0  0  0999 V3000
M  V30 BEGIN CTAB
M  V30 COUNTS 46 50 0 0 0
M  V30 BEGIN ATOM
M  V30 1 C -1.017435 -5.418099 2.987317 0
M  V30 2 N -2.191241 -5.185603 2.394717 0
M  V30 3 C -2.320915 -4.232420 1.437558 0
M  V30 4 C -1.238616 -3.459289 1.034603 0
M  V30 5 C -1.439756 -2.452744 0.002044 0
M  V30 6 C -0.394149 -1.664610 -0.428553 0
M  V30 7 C -0.593258 -0.729040 -1.394203 0
M  V30 8 C 0.351210 0.208820 -1.979614 0
M  V30 9 N 0.433953 0.321172 -3.339067 0
M  V30 10 N 1.338567 1.222751 -3.678801 0
M  V30 11 C 1.902712 1.756211 -2.580351 0
M  V30 12 C 2.857762 2.698989 -2.259470 0
M  V30 13 C 3.166224 2.981922 -0.944698 0
M  V30 14 N 2.514917 2.317845 0.037663 0
M  V30 15 C 1.574067 1.387584 -0.209157 0
M  V30 16 O 0.960445 0.762492 0.836261 0
M  V30 17 C 1.211748 0.993713 2.200745 0
M  V30 18 C 1.832936 -0.175267 2.917215 0
M  V30 19 C 0.863368 -0.937742 3.766787 0
M  V30 20 O 0.373768 0.003113 4.703309 0
M  V30 21 C -0.558219 0.756101 3.993403 0
M  V30 22 C 0.046809 1.596553 2.925326 0
M  V30 23 C 1.281353 1.119139 -1.526744 0
M  V30 24 C -1.905775 -0.652627 -1.882970 0
M  V30 25 C -2.956797 -1.432621 -1.462129 0
M  V30 26 N -2.683974 -2.344116 -0.495839 0
M  V30 27 C -0.053731 -3.735776 1.672936 0
M  V30 28 N 0.047903 -4.686693 2.619094 0
M  V30 29 H -0.816479 -6.149036 3.753156 0
M  V30 30 H -3.329796 -4.131774 1.023571 0
M  V30 31 H 0.591925 -1.751962 -0.046497 0
M  V30 32 H 1.612667 1.514799 -4.639517 0
M  V30 33 H 3.346100 3.199128 -3.107698 0
M  V30 34 H 3.922807 3.729149 -0.723396 0
M  V30 35 H 2.020955 1.786299 2.185822 0
M  V30 36 H 2.648740 0.165030 3.615804 0
M  V30 37 H 2.321183 -0.873051 2.221878 0
M  V30 38 H -0.029455 -1.280486 3.207547 0
M  V30 39 H 1.401961 -1.768541 4.245213 0
M  V30 40 H -1.336620 0.058361 3.626575 0
M  V30 41 H -1.072719 1.412199 4.725074 0
M  V30 42 H -0.798089 1.849997 2.219135 0
M  V30 43 H 0.297708 2.589589 3.381620 0
M  V30 44 H -2.159922 0.075724 -2.666354 0
M  V30 45 H -3.941413 -1.323890 -1.878304 0
M  V30 46 H 0.804869 -3.167760 1.396890 0
M  V30 END ATOM
M  V30 BEGIN BOND
M  V30 1 2 1 2
M  V30 2 1 2 3
M  V30 3 2 3 4
M  V30 4 1 4 5
M  V30 5 2 5 6
M  V30 6 1 6 7
M  V30 7 1 7 8
M  V30 8 2 8 9
M  V30 9 1 9 10
M  V30 10 1 10 11
M  V30 11 2 11 12
M  V30 12 1 12 13
M  V30 13 2 13 14
M  V30 14 1 14 15
M  V30 15 1 15 16
M  V30 16 1 16 17
M  V30 17 1 17 18
M  V30 18 1 18 19
M  V30 19 1 19 20
M  V30 20 1 20 21
M  V30 21 1 21 22
M  V30 22 2 15 23
M  V30 23 2 7 24
M  V30 24 1 24 25
M  V30 25 2 25 26
M  V30 26 1 4 27
M  V30 27 2 27 28
M  V30 28 1 28 1
M  V30 29 1 26 5
M  V30 30 1 23 8
M  V30 31 1 23 11
M  V30 32 1 22 17
M  V30 33 1 1 29
M  V30 34 1 3 30
M  V30 35 1 6 31
M  V30 36 1 10 32
M  V30 37 1 12 33
M  V30 38 1 13 34
M  V30 39 1 17 35
M  V30 40 1 18 36
M  V30 41 1 18 37
M  V30 42 1 19 38
M  V30 43 1 19 39
M  V30 44 1 21 40
M  V30 45 1 21 41
M  V30 46 1 22 42
M  V30 47 1 22 43
M  V30 48 1 24 44
M  V30 49 1 25 45
M  V30 50 1 27 46
M  V30 END BOND
M  V30 END CTAB
M  END
>  <Dataset>  (404) 
ChEMBL_Kinases

>  <Ligand_Instance>  (404) 
nan

>  <PDB_ID>  (404) 
nan

>  <Standardized_SMILES>  (404) 
c1ncc(-c2cc(-c3n[nH]c4ccnc(OC5CCOCC5)c34)ccn2)cn1

>  <Name>  (404) 
nan

>  <Pocket>  (404) 
nan

>  <ATP_Site>  (404) 
nan

>  <Peripheral>  (404) 
nan

>  <Num_H_Atoms_ProtBoundConf>  (404) 
nan

>  <Num_Resolved_Atoms>  (404) 
nan

>  <Num_Not_Resolved_Atoms>  (404) 
nan

$$$$
CHEMBL3655540
     RDKit          3D

  0  0  0  0  0  0  0  0  0  0999 V3000
M  V30 BEGIN CTAB
M  V30 COUNTS 47 51 0 0 0
M  V30 BEGIN ATOM
M  V30 1 C -1.846407 -5.111479 3.043154 0
M  V30 2 C -1.324611 -4.607235 1.863370 0
M  V30 3 C -1.386159 -3.248231 1.556385 0
M  V30 4 C -0.817950 -2.799103 0.293741 0
M  V30 5 C -0.868816 -1.463426 -0.034164 0
M  V30 6 C -0.338850 -1.031428 -1.229270 0
M  V30 7 C -0.263270 0.311329 -1.780994 0
M  V30 8 N -0.682115 0.512469 -3.062108 0
M  V30 9 N -0.537200 1.775123 -3.400737 0
M  V30 10 C -0.020547 2.483463 -2.383392 0
M  V30 11 C 0.351597 3.786711 -2.135815 0
M  V30 12 C 0.870024 4.081670 -0.892846 0
M  V30 13 N 1.022705 3.137935 0.081648 0
M  V30 14 C 0.660163 1.849029 -0.147134 0
M  V30 15 O 0.839143 0.923766 0.881959 0
M  V30 16 C 1.410900 1.422926 2.084406 0
M  V30 17 C 0.460594 1.119264 3.202741 0
M  V30 18 C 0.577144 -0.259898 3.683931 0
M  V30 19 O 1.148831 -1.192693 2.883331 0
M  V30 20 C 2.250280 -0.826336 2.172011 0
M  V30 21 C 2.655511 0.609507 2.354173 0
M  V30 22 C 0.146941 1.563814 -1.379649 0
M  V30 23 C 0.216706 -2.054643 -2.008119 0
M  V30 24 C 0.272121 -3.394926 -1.687474 0
M  V30 25 N -0.272933 -3.721733 -0.495672 0
M  V30 26 C -1.997756 -2.479813 2.511631 0
M  V30 27 C -2.517050 -2.963318 3.679995 0
M  V30 28 N -2.425805 -4.298449 3.921353 0
M  V30 29 H -1.773893 -6.188062 3.239835 0
M  V30 30 H -0.863359 -5.327734 1.187285 0
M  V30 31 H -1.308271 -0.689603 0.576189 0
M  V30 32 H -0.779283 2.215667 -4.330427 0
M  V30 33 H 0.221320 4.512804 -2.920821 0
M  V30 34 H 1.146898 5.119489 -0.748709 0
M  V30 35 H 1.637309 2.507821 1.997340 0
M  V30 36 H 0.577117 1.871343 4.039926 0
M  V30 37 H -0.572450 1.314921 2.786906 0
M  V30 38 H -0.405219 -0.624171 4.038811 0
M  V30 39 H 1.202527 -0.225896 4.625015 0
M  V30 40 H 2.072890 -1.016561 1.097037 0
M  V30 41 H 3.107606 -1.456441 2.475658 0
M  V30 42 H 2.967554 0.721453 3.422486 0
M  V30 43 H 3.456622 0.864541 1.653228 0
M  V30 44 H 0.661940 -1.806804 -2.975857 0
M  V30 45 H 0.711395 -4.114664 -2.331719 0
M  V30 46 H -2.065117 -1.421596 2.310668 0
M  V30 47 H -2.988691 -2.325075 4.402289 0
M  V30 END ATOM
M  V30 BEGIN BOND
M  V30 1 2 1 2
M  V30 2 1 2 3
M  V30 3 1 3 4
M  V30 4 2 4 5
M  V30 5 1 5 6
M  V30 6 1 6 7
M  V30 7 2 7 8
M  V30 8 1 8 9
M  V30 9 1 9 10
M  V30 10 2 10 11
M  V30 11 1 11 12
M  V30 12 2 12 13
M  V30 13 1 13 14
M  V30 14 1 14 15
M  V30 15 1 15 16
M  V30 16 1 16 17
M  V30 17 1 17 18
M  V30 18 1 18 19
M  V30 19 1 19 20
M  V30 20 1 20 21
M  V30 21 2 14 22
M  V30 22 2 6 23
M  V30 23 1 23 24
M  V30 24 2 24 25
M  V30 25 2 3 26
M  V30 26 1 26 27
M  V30 27 2 27 28
M  V30 28 1 28 1
M  V30 29 1 25 4
M  V30 30 1 22 7
M  V30 31 1 22 10
M  V30 32 1 21 16
M  V30 33 1 1 29
M  V30 34 1 2 30
M  V30 35 1 5 31
M  V30 36 1 9 32
M  V30 37 1 11 33
M  V30 38 1 12 34
M  V30 39 1 16 35
M  V30 40 1 17 36
M  V30 41 1 17 37
M  V30 42 1 18 38
M  V30 43 1 18 39
M  V30 44 1 20 40
M  V30 45 1 20 41
M  V30 46 1 21 42
M  V30 47 1 21 43
M  V30 48 1 23 44
M  V30 49 1 24 45
M  V30 50 1 26 46
M  V30 51 1 27 47
M  V30 END BOND
M  V30 END CTAB
M  END
>  <Dataset>  (405) 
ChEMBL_Kinases

>  <Ligand_Instance>  (405) 
nan

>  <PDB_ID>  (405) 
nan

>  <Standardized_SMILES>  (405) 
c1cc(-c2cc(-c3n[nH]c4ccnc(OC5CCOCC5)c34)ccn2)ccn1

>  <Name>  (405) 
nan

>  <Pocket>  (405) 
nan

>  <ATP_Site>  (405) 
nan

>  <Peripheral>  (405) 
nan

>  <Num_H_Atoms_ProtBoundConf>  (405) 
nan

>  <Num_Resolved_Atoms>  (405) 
nan

>  <Num_Not_Resolved_Atoms>  (405) 
nan

$$$$
CHEMBL3655539
     RDKit          3D

  0  0  0  0  0  0  0  0  0  0999 V3000
M  V30 BEGIN CTAB
M  V30 COUNTS 47 51 0 0 0
M  V30 BEGIN ATOM
M  V30 1 C 0.214321 -3.644964 4.140512 0
M  V30 2 C -0.228532 -4.949902 4.196213 0
M  V30 3 N -0.301618 -5.612680 3.007977 0
M  V30 4 C 0.040158 -5.027400 1.836017 0
M  V30 5 C 0.483017 -3.716123 1.796133 0
M  V30 6 C 0.832723 -3.161632 0.498331 0
M  V30 7 C 1.278320 -1.882366 0.331590 0
M  V30 8 C 1.622263 -1.307559 -0.868100 0
M  V30 9 C 2.091425 0.019702 -1.142483 0
M  V30 10 N 3.219703 0.205286 -1.889210 0
M  V30 11 N 3.467458 1.496806 -2.009018 0
M  V30 12 C 2.515786 2.171402 -1.350824 0
M  V30 13 C 2.219692 3.493702 -1.110664 0
M  V30 14 C 1.118931 3.838635 -0.370320 0
M  V30 15 N 0.305132 2.886717 0.136007 0
M  V30 16 C 0.545027 1.558423 -0.067193 0
M  V30 17 O -0.364565 0.885668 0.506468 0
M  V30 18 C -1.302230 0.188692 1.097651 0
M  V30 19 C -1.325099 0.254037 2.627093 0
M  V30 20 C -1.836547 1.582787 3.053972 0
M  V30 21 O -2.134751 2.480879 2.075106 0
M  V30 22 C -3.008289 2.010256 1.107691 0
M  V30 23 C -2.746016 0.587718 0.717329 0
M  V30 24 C 1.652855 1.251882 -0.808536 0
M  V30 25 C 1.485834 -2.147924 -1.981079 0
M  V30 26 C 1.038198 -3.438963 -1.829772 0
M  V30 27 N 0.721796 -3.920801 -0.604813 0
M  V30 28 C 0.573333 -3.006373 2.972371 0
M  V30 29 H 0.296690 -3.058970 5.050070 0
M  V30 30 H -0.501195 -5.413184 5.140816 0
M  V30 31 H -0.037749 -5.606157 0.915879 0
M  V30 32 H 1.395283 -1.205051 1.180230 0
M  V30 33 H 4.248944 1.996398 -2.512496 0
M  V30 34 H 2.923104 4.202460 -1.552685 0
M  V30 35 H 1.033477 4.925907 -0.275999 0
M  V30 36 H -1.255851 -0.914008 0.866637 0
M  V30 37 H -0.311281 0.059387 2.983253 0
M  V30 38 H -1.995410 -0.592751 2.947087 0
M  V30 39 H -1.039985 2.070065 3.690516 0
M  V30 40 H -2.680300 1.440027 3.792686 0
M  V30 41 H -2.786137 2.639981 0.195399 0
M  V30 42 H -4.078894 2.206029 1.341345 0
M  V30 43 H -3.401333 -0.086118 1.304197 0
M  V30 44 H -2.907234 0.357695 -0.348291 0
M  V30 45 H 1.695668 -1.915621 -3.026029 0
M  V30 46 H 0.904839 -4.145100 -2.619396 0
M  V30 47 H 0.909124 -2.001163 2.979927 0
M  V30 END ATOM
M  V30 BEGIN BOND
M  V30 1 2 1 2
M  V30 2 1 2 3
M  V30 3 2 3 4
M  V30 4 1 4 5
M  V30 5 1 5 6
M  V30 6 2 6 7
M  V30 7 1 7 8
M  V30 8 1 8 9
M  V30 9 2 9 10
M  V30 10 1 10 11
M  V30 11 1 11 12
M  V30 12 2 12 13
M  V30 13 1 13 14
M  V30 14 2 14 15
M  V30 15 1 15 16
M  V30 16 1 16 17
M  V30 17 1 17 18
M  V30 18 1 18 19
M  V30 19 1 19 20
M  V30 20 1 20 21
M  V30 21 1 21 22
M  V30 22 1 22 23
M  V30 23 2 16 24
M  V30 24 2 8 25
M  V30 25 1 25 26
M  V30 26 2 26 27
M  V30 27 2 5 28
M  V30 28 1 28 1
M  V30 29 1 27 6
M  V30 30 1 24 9
M  V30 31 1 24 12
M  V30 32 1 23 18
M  V30 33 1 1 29
M  V30 34 1 2 30
M  V30 35 1 4 31
M  V30 36 1 7 32
M  V30 37 1 11 33
M  V30 38 1 13 34
M  V30 39 1 14 35
M  V30 40 1 18 36
M  V30 41 1 19 37
M  V30 42 1 19 38
M  V30 43 1 20 39
M  V30 44 1 20 40
M  V30 45 1 22 41
M  V30 46 1 22 42
M  V30 47 1 23 43
M  V30 48 1 23 44
M  V30 49 1 25 45
M  V30 50 1 26 46
M  V30 51 1 28 47
M  V30 END BOND
M  V30 END CTAB
M  END
>  <Dataset>  (406) 
ChEMBL_Kinases

>  <Ligand_Instance>  (406) 
nan

>  <PDB_ID>  (406) 
nan

>  <Standardized_SMILES>  (406) 
c1cncc(-c2cc(-c3n[nH]c4ccnc(OC5CCOCC5)c34)ccn2)c1

>  <Name>  (406) 
nan

>  <Pocket>  (406) 
nan

>  <ATP_Site>  (406) 
nan

>  <Peripheral>  (406) 
nan

>  <Num_H_Atoms_ProtBoundConf>  (406) 
nan

>  <Num_Resolved_Atoms>  (406) 
nan

>  <Num_Not_Resolved_Atoms>  (406) 
nan

$$$$
CHEMBL3654887
     RDKit          3D

  0  0  0  0  0  0  0  0  0  0999 V3000
M  V30 BEGIN CTAB
M  V30 COUNTS 51 55 0 0 0
M  V30 BEGIN ATOM
M  V30 1 C 1.898834 -7.348821 -3.230543 0
M  V30 2 C 2.987442 -6.617012 -2.536430 0
M  V30 3 C 2.866154 -5.248278 -2.285175 0
M  V30 4 C 3.827115 -4.505513 -1.650662 0
M  V30 5 C 3.675378 -3.076006 -1.400524 0
M  V30 6 N 4.575181 -2.090922 -1.585214 0
M  V30 7 N 4.079217 -0.905099 -1.246215 0
M  V30 8 C 2.815320 -1.092526 -0.822649 0
M  V30 9 C 1.873506 -0.187994 -0.363941 0
M  V30 10 C 0.629817 -0.653198 0.014166 0
M  V30 11 N -0.450879 0.141336 0.507106 0
M  V30 12 C -0.713002 0.465020 1.867800 0
M  V30 13 O 0.075484 0.011521 2.704942 0
M  V30 14 N -1.847230 1.265012 2.062472 0
M  V30 15 C -2.321557 1.724370 3.325062 0 CFG=2
M  V30 16 C -3.721167 1.291751 3.657679 0
M  V30 17 C -4.707178 1.620939 2.559356 0
M  V30 18 C -4.747581 3.073874 2.227619 0
M  V30 19 C -3.543041 3.811790 2.753558 0
M  V30 20 N -3.702491 5.157919 2.664570 0
M  V30 21 C -2.744507 6.011709 3.079021 0
M  V30 22 C -1.587049 5.448778 3.601231 0
M  V30 23 C -1.399482 4.086546 3.702938 0
M  V30 24 C -2.385503 3.219434 3.276199 0
M  V30 25 N 0.368878 -1.992167 -0.076784 0
M  V30 26 C 1.300881 -2.863405 -0.527441 0
M  V30 27 C 2.548542 -2.444873 -0.913370 0
M  V30 28 C 4.982366 -5.148877 -1.235913 0
M  V30 29 C 5.099223 -6.516302 -1.488997 0
M  V30 30 N 4.120917 -7.199781 -2.118503 0
M  V30 31 H 1.873105 -8.422380 -2.937137 0
M  V30 32 H 0.913104 -6.941518 -2.863212 0
M  V30 33 H 1.893912 -7.219694 -4.322201 0
M  V30 34 H 1.946790 -4.793515 -2.628117 0
M  V30 35 H 4.567226 0.015920 -1.293353 0
M  V30 36 H 2.035734 0.878341 -0.275353 0
M  V30 37 H -0.980750 0.414182 -0.358045 0
M  V30 38 H -2.466034 1.609160 1.295351 0
M  V30 39 H -1.674009 1.370807 4.152280 0
M  V30 40 H -3.814805 0.236866 3.977419 0
M  V30 41 H -4.031309 1.895820 4.547624 0
M  V30 42 H -4.503661 1.040964 1.630844 0
M  V30 43 H -5.726015 1.309966 2.869470 0
M  V30 44 H -5.667238 3.551121 2.622673 0
M  V30 45 H -4.754611 3.282261 1.139354 0
M  V30 46 H -2.761945 7.075872 3.056871 0
M  V30 47 H -0.744726 6.026805 3.967925 0
M  V30 48 H -0.504928 3.628689 4.106859 0
M  V30 49 H 1.047207 -3.914668 -0.581438 0
M  V30 50 H 5.753617 -4.575110 -0.731651 0
M  V30 51 H 5.993451 -7.035822 -1.172862 0
M  V30 END ATOM
M  V30 BEGIN BOND
M  V30 1 1 1 2
M  V30 2 2 2 3
M  V30 3 1 3 4
M  V30 4 1 4 5
M  V30 5 2 5 6
M  V30 6 1 6 7
M  V30 7 1 7 8
M  V30 8 2 8 9
M  V30 9 1 9 10
M  V30 10 1 10 11
M  V30 11 1 11 12
M  V30 12 2 12 13
M  V30 13 1 12 14
M  V30 14 1 14 15
M  V30 15 1 15 16
M  V30 16 1 16 17
M  V30 17 1 17 18
M  V30 18 1 18 19
M  V30 19 2 19 20
M  V30 20 1 20 21
M  V30 21 2 21 22
M  V30 22 1 22 23
M  V30 23 2 23 24
M  V30 24 2 10 25
M  V30 25 1 25 26
M  V30 26 2 26 27
M  V30 27 2 4 28
M  V30 28 1 28 29
M  V30 29 2 29 30
M  V30 30 1 30 2
M  V30 31 1 27 5
M  V30 32 1 27 8
M  V30 33 1 24 15
M  V30 34 1 24 19
M  V30 35 1 1 31
M  V30 36 1 1 32
M  V30 37 1 1 33
M  V30 38 1 3 34
M  V30 39 1 7 35
M  V30 40 1 9 36
M  V30 41 1 11 37
M  V30 42 1 14 38
M  V30 43 1 15 39 CFG=1
M  V30 44 1 16 40
M  V30 45 1 16 41
M  V30 46 1 17 42
M  V30 47 1 17 43
M  V30 48 1 18 44
M  V30 49 1 18 45
M  V30 50 1 21 46
M  V30 51 1 22 47
M  V30 52 1 23 48
M  V30 53 1 26 49
M  V30 54 1 28 50
M  V30 55 1 29 51
M  V30 END BOND
M  V30 END CTAB
M  END
>  <Dataset>  (407) 
ChEMBL_Kinases

>  <Ligand_Instance>  (407) 
nan

>  <PDB_ID>  (407) 
nan

>  <Standardized_SMILES>  (407) 
Cc1cc(-c2n[nH]c3cc(NC(=O)N[C@@H]4CCCc5ncccc54)ncc23)ccn1

>  <Name>  (407) 
nan

>  <Pocket>  (407) 
nan

>  <ATP_Site>  (407) 
nan

>  <Peripheral>  (407) 
nan

>  <Num_H_Atoms_ProtBoundConf>  (407) 
nan

>  <Num_Resolved_Atoms>  (407) 
nan

>  <Num_Not_Resolved_Atoms>  (407) 
nan

$$$$
CHEMBL3654886
     RDKit          3D

  0  0  0  0  0  0  0  0  0  0999 V3000
M  V30 BEGIN CTAB
M  V30 COUNTS 51 55 0 0 0
M  V30 BEGIN ATOM
M  V30 1 C -0.152271 -6.162183 0.361694 0
M  V30 2 C 0.686687 -5.109103 -0.299193 0 CFG=1
M  V30 3 N 1.357601 -4.230481 0.642530 0
M  V30 4 C 1.109179 -2.845528 0.729645 0
M  V30 5 O 0.245315 -2.456223 -0.095443 0
M  V30 6 N 1.790584 -1.994913 1.675471 0
M  V30 7 C 1.352523 -0.621547 1.556674 0
M  V30 8 C 1.953470 0.305797 0.714853 0
M  V30 9 C 1.482456 1.597237 0.653276 0
M  V30 10 N 1.856742 2.675626 -0.050024 0
M  V30 11 N 1.055200 3.677387 0.272658 0
M  V30 12 C 0.143508 3.263576 1.194826 0
M  V30 13 C -0.888219 4.124066 1.763519 0
M  V30 14 C -0.559851 5.407618 2.187290 0
M  V30 15 C -1.587206 6.188509 2.724063 0
M  V30 16 C -2.866762 5.719055 2.832645 0
M  V30 17 N -4.023898 6.260080 3.305779 0
M  V30 18 N -5.006058 5.382375 3.188226 0
M  V30 19 N -4.505936 4.278218 2.645778 0
M  V30 20 C -5.220866 3.040514 2.327691 0
M  V30 21 C -3.190275 4.442246 2.410389 0
M  V30 22 C -2.177896 3.644564 1.870499 0
M  V30 23 C 0.405541 1.936554 1.446590 0
M  V30 24 C -0.194523 1.019893 2.283843 0
M  V30 25 N 0.302129 -0.237086 2.311327 0
M  V30 26 C 1.664282 -5.675536 -1.269483 0
M  V30 27 C 1.725464 -6.987733 -1.657386 0
M  V30 28 C 2.706597 -7.354444 -2.579478 0
M  V30 29 C 3.611165 -6.472982 -3.117091 0
M  V30 30 F 4.543113 -6.878442 -4.007598 0
M  V30 31 C 3.500862 -5.163972 -2.688544 0
M  V30 32 C 2.551011 -4.726484 -1.774717 0
M  V30 33 H -0.773346 -6.612436 -0.459780 0
M  V30 34 H 0.449790 -6.913789 0.899148 0
M  V30 35 H -0.875215 -5.639929 1.009171 0
M  V30 36 H -0.032078 -4.491850 -0.910848 0
M  V30 37 H 2.068517 -4.687891 1.286614 0
M  V30 38 H 2.472740 -2.513924 2.273101 0
M  V30 39 H 2.801410 -0.031222 0.115183 0
M  V30 40 H 2.642894 2.735086 -0.738926 0
M  V30 41 H 0.453247 5.782902 2.102709 0
M  V30 42 H -1.362054 7.207837 3.068705 0
M  V30 43 H -6.304247 3.275066 2.265913 0
M  V30 44 H -4.843352 2.643118 1.366278 0
M  V30 45 H -5.057708 2.267494 3.098469 0
M  V30 46 H -2.494545 2.670250 1.564138 0
M  V30 47 H -1.030995 1.307785 2.891340 0
M  V30 48 H 1.013115 -7.665475 -1.229813 0
M  V30 49 H 2.696007 -8.402802 -2.839199 0
M  V30 50 H 4.205943 -4.431429 -3.095939 0
M  V30 51 H 2.547912 -3.672158 -1.501915 0
M  V30 END ATOM
M  V30 BEGIN BOND
M  V30 1 1 1 2
M  V30 2 1 2 3
M  V30 3 1 3 4
M  V30 4 2 4 5
M  V30 5 1 4 6
M  V30 6 1 6 7
M  V30 7 2 7 8
M  V30 8 1 8 9
M  V30 9 1 9 10
M  V30 10 1 10 11
M  V30 11 2 11 12
M  V30 12 1 12 13
M  V30 13 2 13 14
M  V30 14 1 14 15
M  V30 15 2 15 16
M  V30 16 1 16 17
M  V30 17 2 17 18
M  V30 18 1 18 19
M  V30 19 1 19 20
M  V30 20 1 19 21
M  V30 21 2 21 22
M  V30 22 1 12 23
M  V30 23 1 23 24
M  V30 24 2 24 25
M  V30 25 1 2 26
M  V30 26 2 26 27
M  V30 27 1 27 28
M  V30 28 2 28 29
M  V30 29 1 29 30
M  V30 30 1 29 31
M  V30 31 2 31 32
M  V30 32 1 25 7
M  V30 33 1 32 26
M  V30 34 2 23 9
M  V30 35 1 22 13
M  V30 36 1 21 16
M  V30 37 1 1 33
M  V30 38 1 1 34
M  V30 39 1 1 35
M  V30 40 1 2 36 CFG=3
M  V30 41 1 3 37
M  V30 42 1 6 38
M  V30 43 1 8 39
M  V30 44 1 10 40
M  V30 45 1 14 41
M  V30 46 1 15 42
M  V30 47 1 20 43
M  V30 48 1 20 44
M  V30 49 1 20 45
M  V30 50 1 22 46
M  V30 51 1 24 47
M  V30 52 1 27 48
M  V30 53 1 28 49
M  V30 54 1 31 50
M  V30 55 1 32 51
M  V30 END BOND
M  V30 END CTAB
M  END
>  <Dataset>  (408) 
ChEMBL_Kinases

>  <Ligand_Instance>  (408) 
nan

>  <PDB_ID>  (408) 
nan

>  <Standardized_SMILES>  (408) 
C[C@@H](NC(=O)Nc1cc2[nH]nc(-c3ccc4nnn(C)c4c3)c2cn1)c1ccc(F)cc1

>  <Name>  (408) 
nan

>  <Pocket>  (408) 
nan

>  <ATP_Site>  (408) 
nan

>  <Peripheral>  (408) 
nan

>  <Num_H_Atoms_ProtBoundConf>  (408) 
nan

>  <Num_Resolved_Atoms>  (408) 
nan

>  <Num_Not_Resolved_Atoms>  (408) 
nan

$$$$
CHEMBL3654885
     RDKit          3D

  0  0  0  0  0  0  0  0  0  0999 V3000
M  V30 BEGIN CTAB
M  V30 COUNTS 46 49 0 0 0
M  V30 BEGIN ATOM
M  V30 1 C -2.376608 -3.427208 4.033154 0
M  V30 2 C -2.243576 -3.310483 2.516322 0 CFG=1
M  V30 3 N -0.834562 -3.017740 2.276897 0
M  V30 4 C -0.344285 -1.819216 1.698692 0
M  V30 5 O -1.153045 -0.925881 1.357165 0
M  V30 6 N 1.036106 -1.650872 1.517577 0
M  V30 7 C 1.595525 -0.471086 0.942587 0
M  V30 8 C 2.965482 -0.350638 0.783812 0
M  V30 9 C 3.503467 0.805351 0.221205 0
M  V30 10 N 4.777831 1.158003 -0.035059 0
M  V30 11 N 4.739153 2.367953 -0.578058 0
M  V30 12 C 3.440492 2.775515 -0.662961 0
M  V30 13 C 3.042184 4.069362 -1.216404 0
M  V30 14 C 3.416479 4.775549 -2.345499 0
M  V30 15 N 2.706586 5.938834 -2.351390 0
M  V30 16 N 1.923811 5.970650 -1.284576 0
M  V30 17 C 1.029590 7.096485 -1.000702 0
M  V30 18 C 2.086537 4.848712 -0.549367 0
M  V30 19 C 2.610242 1.790444 -0.155194 0
M  V30 20 C 1.253604 1.680260 -0.002065 0
M  V30 21 N 0.779598 0.527237 0.554325 0
M  V30 22 C -2.678389 -4.573746 1.915107 0
M  V30 23 C -3.456608 -5.525859 2.540285 0
M  V30 24 C -3.865284 -6.715023 1.972889 0
M  V30 25 C -3.433067 -6.929677 0.659418 0
M  V30 26 F -3.782708 -8.066310 0.019018 0
M  V30 27 C -2.652313 -6.000166 -0.001206 0
M  V30 28 C -2.282847 -4.830430 0.634789 0
M  V30 29 H -2.119575 -4.453560 4.363194 0
M  V30 30 H -3.415543 -3.159370 4.330259 0
M  V30 31 H -1.632830 -2.755878 4.532287 0
M  V30 32 H -2.868801 -2.462501 2.181258 0
M  V30 33 H -0.204600 -3.796428 2.580319 0
M  V30 34 H 1.672753 -2.421183 1.816692 0
M  V30 35 H 3.571651 -1.170060 1.107339 0
M  V30 36 H 5.612144 0.563880 0.169417 0
M  V30 37 H 4.157284 4.283656 -2.958887 0
M  V30 38 H 1.613558 8.020120 -0.969662 0
M  V30 39 H 0.524891 6.973042 -0.031281 0
M  V30 40 H 0.275228 7.175617 -1.816890 0
M  V30 41 H 1.549373 4.636295 0.383710 0
M  V30 42 H 0.623684 2.498025 -0.323033 0
M  V30 43 H -3.778999 -5.331240 3.564826 0
M  V30 44 H -4.474434 -7.435718 2.494188 0
M  V30 45 H -2.351459 -6.228221 -1.017688 0
M  V30 46 H -1.669422 -4.172967 0.021092 0
M  V30 END ATOM
M  V30 BEGIN BOND
M  V30 1 1 1 2
M  V30 2 1 2 3
M  V30 3 1 3 4
M  V30 4 2 4 5
M  V30 5 1 4 6
M  V30 6 1 6 7
M  V30 7 2 7 8
M  V30 8 1 8 9
M  V30 9 1 9 10
M  V30 10 1 10 11
M  V30 11 2 11 12
M  V30 12 1 12 13
M  V30 13 1 13 14
M  V30 14 2 14 15
M  V30 15 1 15 16
M  V30 16 1 16 17
M  V30 17 1 16 18
M  V30 18 1 12 19
M  V30 19 1 19 20
M  V30 20 2 20 21
M  V30 21 1 2 22
M  V30 22 2 22 23
M  V30 23 1 23 24
M  V30 24 2 24 25
M  V30 25 1 25 26
M  V30 26 1 25 27
M  V30 27 2 27 28
M  V30 28 1 21 7
M  V30 29 1 28 22
M  V30 30 2 19 9
M  V30 31 2 18 13
M  V30 32 1 1 29
M  V30 33 1 1 30
M  V30 34 1 1 31
M  V30 35 1 2 32 CFG=3
M  V30 36 1 3 33
M  V30 37 1 6 34
M  V30 38 1 8 35
M  V30 39 1 10 36
M  V30 40 1 14 37
M  V30 41 1 17 38
M  V30 42 1 17 39
M  V30 43 1 17 40
M  V30 44 1 18 41
M  V30 45 1 20 42
M  V30 46 1 23 43
M  V30 47 1 24 44
M  V30 48 1 27 45
M  V30 49 1 28 46
M  V30 END BOND
M  V30 END CTAB
M  END
>  <Dataset>  (409) 
ChEMBL_Kinases

>  <Ligand_Instance>  (409) 
nan

>  <PDB_ID>  (409) 
nan

>  <Standardized_SMILES>  (409) 
C[C@@H](NC(=O)Nc1cc2[nH]nc(-c3cnn(C)c3)c2cn1)c1ccc(F)cc1

>  <Name>  (409) 
nan

>  <Pocket>  (409) 
nan

>  <ATP_Site>  (409) 
nan

>  <Peripheral>  (409) 
nan

>  <Num_H_Atoms_ProtBoundConf>  (409) 
nan

>  <Num_Resolved_Atoms>  (409) 
nan

>  <Num_Not_Resolved_Atoms>  (409) 
nan

$$$$
CHEMBL3654884
     RDKit          3D

  0  0  0  0  0  0  0  0  0  0999 V3000
M  V30 BEGIN CTAB
M  V30 COUNTS 46 49 0 0 0
M  V30 BEGIN ATOM
M  V30 1 C -3.679634 -3.859300 1.389639 0
M  V30 2 C -2.154468 -3.783715 1.390566 0 CFG=1
M  V30 3 N -1.689670 -2.694612 2.225550 0
M  V30 4 C -1.047964 -1.595737 1.582478 0
M  V30 5 O -0.846086 -1.480404 0.358245 0
M  V30 6 N -0.587629 -0.514753 2.419577 0
M  V30 7 C 0.065212 0.624728 1.860934 0
M  V30 8 C 0.511581 1.667153 2.646986 0
M  V30 9 C 1.141869 2.751528 2.038066 0
M  V30 10 N 1.686833 3.910691 2.494518 0
M  V30 11 N 2.157464 4.588936 1.456976 0
M  V30 12 C 1.936818 3.902664 0.309938 0
M  V30 13 C 2.321208 4.345766 -1.029151 0
M  V30 14 C 2.098697 5.639705 -1.456292 0
M  V30 15 C 2.429980 6.139143 -2.701675 0
M  V30 16 N 3.013199 5.295571 -3.558079 0
M  V30 17 C 3.260698 4.012962 -3.204443 0
M  V30 18 C 3.887152 3.130197 -4.142461 0
M  V30 19 N 4.402365 2.416686 -4.890763 0
M  V30 20 C 2.926854 3.507349 -1.947634 0
M  V30 21 C 1.289442 2.725909 0.655845 0
M  V30 22 C 0.841833 1.684996 -0.112864 0
M  V30 23 N 0.240383 0.663354 0.526394 0
M  V30 24 C -1.552709 -5.083532 1.754537 0
M  V30 25 C -2.262178 -6.279854 1.876041 0
M  V30 26 C -1.649949 -7.459130 2.217501 0
M  V30 27 C -0.276585 -7.431087 2.443969 0
M  V30 28 F 0.291980 -8.614612 2.778922 0
M  V30 29 C 0.467030 -6.251155 2.331541 0
M  V30 30 C -0.191870 -5.088644 1.985577 0
M  V30 31 H -3.993101 -4.608413 0.655996 0
M  V30 32 H -4.031438 -2.844512 1.060929 0
M  V30 33 H -4.110788 -4.009462 2.381688 0
M  V30 34 H -1.894650 -3.516625 0.341234 0
M  V30 35 H -1.813148 -2.697708 3.273839 0
M  V30 36 H -0.732883 -0.566964 3.436946 0
M  V30 37 H 0.379717 1.652459 3.715170 0
M  V30 38 H 1.702636 4.168273 3.501054 0
M  V30 39 H 1.622249 6.353015 -0.775395 0
M  V30 40 H 2.219956 7.169004 -2.956359 0
M  V30 41 H 3.133715 2.490506 -1.694860 0
M  V30 42 H 0.945553 1.643413 -1.188916 0
M  V30 43 H -3.309792 -6.255001 1.693944 0
M  V30 44 H -2.212187 -8.383159 2.308942 0
M  V30 45 H 1.526000 -6.325258 2.525471 0
M  V30 46 H 0.424599 -4.186839 1.907783 0
M  V30 END ATOM
M  V30 BEGIN BOND
M  V30 1 1 1 2
M  V30 2 1 2 3
M  V30 3 1 3 4
M  V30 4 2 4 5
M  V30 5 1 4 6
M  V30 6 1 6 7
M  V30 7 2 7 8
M  V30 8 1 8 9
M  V30 9 1 9 10
M  V30 10 1 10 11
M  V30 11 2 11 12
M  V30 12 1 12 13
M  V30 13 2 13 14
M  V30 14 1 14 15
M  V30 15 2 15 16
M  V30 16 1 16 17
M  V30 17 1 17 18
M  V30 18 3 18 19
M  V30 19 2 17 20
M  V30 20 1 12 21
M  V30 21 1 21 22
M  V30 22 2 22 23
M  V30 23 1 2 24
M  V30 24 2 24 25
M  V30 25 1 25 26
M  V30 26 2 26 27
M  V30 27 1 27 28
M  V30 28 1 27 29
M  V30 29 2 29 30
M  V30 30 1 23 7
M  V30 31 1 30 24
M  V30 32 2 21 9
M  V30 33 1 20 13
M  V30 34 1 1 31
M  V30 35 1 1 32
M  V30 36 1 1 33
M  V30 37 1 2 34 CFG=3
M  V30 38 1 3 35
M  V30 39 1 6 36
M  V30 40 1 8 37
M  V30 41 1 10 38
M  V30 42 1 14 39
M  V30 43 1 15 40
M  V30 44 1 20 41
M  V30 45 1 22 42
M  V30 46 1 25 43
M  V30 47 1 26 44
M  V30 48 1 29 45
M  V30 49 1 30 46
M  V30 END BOND
M  V30 END CTAB
M  END
>  <Dataset>  (410) 
ChEMBL_Kinases

>  <Ligand_Instance>  (410) 
nan

>  <PDB_ID>  (410) 
nan

>  <Standardized_SMILES>  (410) 
C[C@@H](NC(=O)Nc1cc2[nH]nc(-c3ccnc(C#N)c3)c2cn1)c1ccc(F)cc1

>  <Name>  (410) 
nan

>  <Pocket>  (410) 
nan

>  <ATP_Site>  (410) 
nan

>  <Peripheral>  (410) 
nan

>  <Num_H_Atoms_ProtBoundConf>  (410) 
nan

>  <Num_Resolved_Atoms>  (410) 
nan

>  <Num_Not_Resolved_Atoms>  (410) 
nan

$$$$
CHEMBL3654883
     RDKit          3D

  0  0  0  0  0  0  0  0  0  0999 V3000
M  V30 BEGIN CTAB
M  V30 COUNTS 52 55 0 0 0
M  V30 BEGIN ATOM
M  V30 1 C 3.888460 -5.291631 7.472994 0
M  V30 2 O 4.112844 -4.247970 6.579894 0
M  V30 3 C 3.378547 -4.028637 5.422767 0
M  V30 4 C 3.626040 -2.986006 4.559507 0
M  V30 5 C 2.852591 -2.820470 3.414202 0
M  V30 6 C 3.097791 -1.720136 2.483278 0
M  V30 7 N 4.293319 -1.295016 2.005781 0
M  V30 8 N 4.157648 -0.277976 1.184155 0
M  V30 9 C 2.832806 -0.043743 1.133419 0
M  V30 10 C 2.173679 0.929088 0.404206 0
M  V30 11 C 0.796292 0.992407 0.499632 0
M  V30 12 N -0.094838 1.901351 -0.152231 0
M  V30 13 C -0.539108 1.397747 -1.423815 0
M  V30 14 O -0.231911 0.303881 -1.971338 0
M  V30 15 N -1.445407 2.209213 -2.198528 0
M  V30 16 C -1.996079 1.865197 -3.497413 0 CFG=2
M  V30 17 C -1.578710 2.856436 -4.564568 0
M  V30 18 C -3.498348 1.883769 -3.470244 0
M  V30 19 C -4.092665 2.958815 -2.842898 0
M  V30 20 C -5.484157 3.019052 -2.792867 0
M  V30 21 C -6.221689 2.000601 -3.372943 0
M  V30 22 F -7.593733 1.986872 -3.365842 0
M  V30 23 C -5.625484 0.920652 -4.003143 0
M  V30 24 C -4.230960 0.871899 -4.046572 0
M  V30 25 N 0.121958 0.126741 1.283522 0
M  V30 26 C 0.741582 -0.833111 2.006295 0
M  V30 27 C 2.116239 -0.917189 1.928226 0
M  V30 28 C 1.854871 -3.756330 3.226922 0
M  V30 29 C 1.600196 -4.803158 4.085980 0
M  V30 30 C 0.494950 -5.768307 3.798146 0
M  V30 31 F 0.108063 -6.341256 4.981966 0
M  V30 32 F -0.553395 -5.135223 3.152694 0
M  V30 33 F 0.967859 -6.727316 2.920059 0
M  V30 34 N 2.374757 -4.922824 5.181181 0
M  V30 35 H 4.166212 -4.948552 8.505390 0
M  V30 36 H 4.338643 -6.259774 7.208384 0
M  V30 37 H 2.772456 -5.453596 7.516848 0
M  V30 38 H 4.442222 -2.286636 4.787030 0
M  V30 39 H 4.906102 0.246625 0.672734 0
M  V30 40 H 2.601294 1.673698 -0.253745 0
M  V30 41 H -0.429864 2.833152 0.186506 0
M  V30 42 H -1.734569 3.127300 -1.793520 0
M  V30 43 H -1.620895 0.872823 -3.826015 0
M  V30 44 H -2.325763 2.877878 -5.388587 0
M  V30 45 H -0.558809 2.617251 -4.897535 0
M  V30 46 H -1.510009 3.879463 -4.091087 0
M  V30 47 H -3.588584 3.789620 -2.368629 0
M  V30 48 H -6.019656 3.845178 -2.309918 0
M  V30 49 H -6.209990 0.124624 -4.456448 0
M  V30 50 H -3.704499 0.069195 -4.515904 0
M  V30 51 H 0.222249 -1.521721 2.628033 0
M  V30 52 H 1.213796 -3.690494 2.357727 0
M  V30 END ATOM
M  V30 BEGIN BOND
M  V30 1 1 1 2
M  V30 2 1 2 3
M  V30 3 2 3 4
M  V30 4 1 4 5
M  V30 5 1 5 6
M  V30 6 2 6 7
M  V30 7 1 7 8
M  V30 8 1 8 9
M  V30 9 2 9 10
M  V30 10 1 10 11
M  V30 11 1 11 12
M  V30 12 1 12 13
M  V30 13 2 13 14
M  V30 14 1 13 15
M  V30 15 1 15 16
M  V30 16 1 16 17
M  V30 17 1 16 18
M  V30 18 2 18 19
M  V30 19 1 19 20
M  V30 20 2 20 21
M  V30 21 1 21 22
M  V30 22 1 21 23
M  V30 23 2 23 24
M  V30 24 2 11 25
M  V30 25 1 25 26
M  V30 26 2 26 27
M  V30 27 2 5 28
M  V30 28 1 28 29
M  V30 29 1 29 30
M  V30 30 1 30 31
M  V30 31 1 30 32
M  V30 32 1 30 33
M  V30 33 2 29 34
M  V30 34 1 34 3
M  V30 35 1 27 6
M  V30 36 1 27 9
M  V30 37 1 24 18
M  V30 38 1 1 35
M  V30 39 1 1 36
M  V30 40 1 1 37
M  V30 41 1 4 38
M  V30 42 1 8 39
M  V30 43 1 10 40
M  V30 44 1 12 41
M  V30 45 1 15 42
M  V30 46 1 16 43 CFG=3
M  V30 47 1 17 44
M  V30 48 1 17 45
M  V30 49 1 17 46
M  V30 50 1 19 47
M  V30 51 1 20 48
M  V30 52 1 23 49
M  V30 53 1 24 50
M  V30 54 1 26 51
M  V30 55 1 28 52
M  V30 END BOND
M  V30 END CTAB
M  END
>  <Dataset>  (411) 
ChEMBL_Kinases

>  <Ligand_Instance>  (411) 
nan

>  <PDB_ID>  (411) 
nan

>  <Standardized_SMILES>  (411) 
COc1cc(-c2n[nH]c3cc(NC(=O)N[C@H](C)c4ccc(F)cc4)ncc23)cc(C(F)(F)F)n1

>  <Name>  (411) 
nan

>  <Pocket>  (411) 
nan

>  <ATP_Site>  (411) 
nan

>  <Peripheral>  (411) 
nan

>  <Num_H_Atoms_ProtBoundConf>  (411) 
nan

>  <Num_Resolved_Atoms>  (411) 
nan

>  <Num_Not_Resolved_Atoms>  (411) 
nan

$$$$
CHEMBL3654882
     RDKit          3D

  0  0  0  0  0  0  0  0  0  0999 V3000
M  V30 BEGIN CTAB
M  V30 COUNTS 49 52 0 0 0
M  V30 BEGIN ATOM
M  V30 1 C -4.075829 -4.521179 -0.010549 0
M  V30 2 O -3.142372 -5.132644 -0.781278 0
M  V30 3 C -2.020476 -4.485959 -1.143522 0
M  V30 4 C -1.079841 -3.967909 -0.100380 0 CFG=1
M  V30 5 N -1.588314 -2.941137 0.771543 0
M  V30 6 C -0.752248 -1.755056 0.727596 0
M  V30 7 O 0.310199 -1.586923 0.024996 0
M  V30 8 N -0.874343 -0.501249 1.423078 0
M  V30 9 C -0.067125 0.663997 1.391079 0
M  V30 10 C 1.019024 0.978964 2.184993 0
M  V30 11 C 1.670247 2.182032 1.982990 0
M  V30 12 N 2.736816 2.685148 2.633676 0
M  V30 13 N 3.005161 3.878315 2.084528 0
M  V30 14 C 2.114032 4.134654 1.088589 0
M  V30 15 C 2.063223 5.326596 0.245854 0
M  V30 16 C 2.192788 6.583298 0.833006 0
M  V30 17 C 2.139045 7.678759 -0.002181 0
M  V30 18 N 1.968275 7.589300 -1.349740 0
M  V30 19 C 1.839053 6.373229 -1.949345 0
M  V30 20 F 1.668955 6.282475 -3.292500 0
M  V30 21 C 1.890889 5.255245 -1.121050 0
M  V30 22 C 1.249587 3.062128 1.005534 0
M  V30 23 C 0.163333 2.724121 0.226959 0
M  V30 24 N -0.458315 1.549915 0.437044 0
M  V30 25 C -0.676926 -5.190828 0.696035 0
M  V30 26 C 0.034400 -4.801585 1.836725 0
M  V30 27 C 0.520719 -5.709468 2.736068 0
M  V30 28 C 0.302901 -7.056965 2.511744 0
M  V30 29 F 0.752297 -8.013037 3.354861 0
M  V30 30 C -0.394667 -7.429116 1.392127 0
M  V30 31 C -0.892661 -6.533476 0.474596 0
M  V30 32 H -3.706044 -4.263665 0.993142 0
M  V30 33 H -4.964770 -5.209923 0.154389 0
M  V30 34 H -4.513392 -3.617958 -0.519353 0
M  V30 35 H -1.375496 -5.169180 -1.788342 0
M  V30 36 H -2.372446 -3.633981 -1.816911 0
M  V30 37 H -0.105571 -3.636077 -0.576567 0
M  V30 38 H -2.296567 -2.623974 1.454524 0
M  V30 39 H -1.702117 -0.458101 2.054479 0
M  V30 40 H 1.264295 0.224575 2.916379 0
M  V30 41 H 3.264209 2.230715 3.425460 0
M  V30 42 H 2.332684 6.719767 1.914240 0
M  V30 43 H 2.235466 8.697701 0.404886 0
M  V30 44 H 1.786370 4.298236 -1.617967 0
M  V30 45 H -0.164636 3.414765 -0.537863 0
M  V30 46 H 0.278321 -3.771594 2.136753 0
M  V30 47 H 1.074453 -5.473723 3.630681 0
M  V30 48 H -0.610149 -8.467879 1.140270 0
M  V30 49 H -1.449540 -6.688800 -0.435675 0
M  V30 END ATOM
M  V30 BEGIN BOND
M  V30 1 1 1 2
M  V30 2 1 2 3
M  V30 3 1 3 4
M  V30 4 1 4 5
M  V30 5 1 5 6
M  V30 6 2 6 7
M  V30 7 1 6 8
M  V30 8 1 8 9
M  V30 9 2 9 10
M  V30 10 1 10 11
M  V30 11 1 11 12
M  V30 12 1 12 13
M  V30 13 2 13 14
M  V30 14 1 14 15
M  V30 15 2 15 16
M  V30 16 1 16 17
M  V30 17 2 17 18
M  V30 18 1 18 19
M  V30 19 1 19 20
M  V30 20 2 19 21
M  V30 21 1 14 22
M  V30 22 1 22 23
M  V30 23 2 23 24
M  V30 24 1 4 25
M  V30 25 2 25 26
M  V30 26 1 26 27
M  V30 27 2 27 28
M  V30 28 1 28 29
M  V30 29 1 28 30
M  V30 30 2 30 31
M  V30 31 1 24 9
M  V30 32 1 31 25
M  V30 33 2 22 11
M  V30 34 1 21 15
M  V30 35 1 1 32
M  V30 36 1 1 33
M  V30 37 1 1 34
M  V30 38 1 3 35
M  V30 39 1 3 36
M  V30 40 1 4 37 CFG=3
M  V30 41 1 5 38
M  V30 42 1 8 39
M  V30 43 1 10 40
M  V30 44 1 12 41
M  V30 45 1 16 42
M  V30 46 1 17 43
M  V30 47 1 21 44
M  V30 48 1 23 45
M  V30 49 1 26 46
M  V30 50 1 27 47
M  V30 51 1 30 48
M  V30 52 1 31 49
M  V30 END BOND
M  V30 END CTAB
M  END
>  <Dataset>  (412) 
ChEMBL_Kinases

>  <Ligand_Instance>  (412) 
nan

>  <PDB_ID>  (412) 
nan

>  <Standardized_SMILES>  (412) 
COC[C@@H](NC(=O)Nc1cc2[nH]nc(-c3ccnc(F)c3)c2cn1)c1ccc(F)cc1

>  <Name>  (412) 
nan

>  <Pocket>  (412) 
nan

>  <ATP_Site>  (412) 
nan

>  <Peripheral>  (412) 
nan

>  <Num_H_Atoms_ProtBoundConf>  (412) 
nan

>  <Num_Resolved_Atoms>  (412) 
nan

>  <Num_Not_Resolved_Atoms>  (412) 
nan

$$$$
CHEMBL3654881
     RDKit          3D

  0  0  0  0  0  0  0  0  0  0999 V3000
M  V30 BEGIN CTAB
M  V30 COUNTS 58 62 0 0 0
M  V30 BEGIN ATOM
M  V30 1 C 3.388502 -2.646538 6.205990 0
M  V30 2 C 2.754216 -3.314553 5.006924 0 CFG=1
M  V30 3 N 3.494986 -3.049900 3.789426 0
M  V30 4 C 2.877669 -2.331850 2.731124 0
M  V30 5 O 1.692795 -1.933651 2.863938 0
M  V30 6 N 3.506995 -2.021846 1.509055 0
M  V30 7 C 2.830259 -1.297734 0.487185 0
M  V30 8 C 3.416435 -0.976136 -0.719913 0
M  V30 9 C 2.716674 -0.269433 -1.684437 0
M  V30 10 N 2.983319 0.191462 -2.927221 0
M  V30 11 N 1.926373 0.818174 -3.411907 0
M  V30 12 C 0.901314 0.809635 -2.522773 0
M  V30 13 C -0.418796 1.403302 -2.710832 0
M  V30 14 C -0.637052 2.665100 -3.232433 0
M  V30 15 C -1.949879 3.105409 -3.356516 0
M  V30 16 C -3.044783 2.367795 -2.994346 0
M  V30 17 N -4.380553 2.885787 -3.150563 0
M  V30 18 C -5.453044 1.981675 -2.715550 0
M  V30 19 C -6.794534 2.529942 -2.974521 0
M  V30 20 O -6.937759 3.732028 -3.517274 0
M  V30 21 C -5.950626 4.437727 -4.061873 0
M  V30 22 C -4.542869 4.200199 -3.700782 0
M  V30 23 N -2.769024 1.162872 -2.499421 0
M  V30 24 C -1.521540 0.682313 -2.355304 0
M  V30 25 C 1.401319 0.123184 -1.433466 0
M  V30 26 C 0.858598 -0.212554 -0.232091 0
M  V30 27 N 1.547050 -0.905775 0.712339 0
M  V30 28 C 2.535613 -4.761201 5.254920 0
M  V30 29 C 3.563102 -5.670360 5.098089 0
M  V30 30 C 3.412232 -7.023699 5.315502 0
M  V30 31 C 2.173305 -7.509810 5.711493 0
M  V30 32 F 1.895552 -8.829639 5.958563 0
M  V30 33 C 1.106997 -6.630487 5.882662 0
M  V30 34 C 1.312836 -5.277888 5.650588 0
M  V30 35 H 3.789235 -1.679129 5.887697 0
M  V30 36 H 4.134551 -3.312602 6.694513 0
M  V30 37 H 2.562951 -2.459412 6.938834 0
M  V30 38 H 1.746677 -2.861792 4.872726 0
M  V30 39 H 4.482452 -3.367549 3.646975 0
M  V30 40 H 4.487436 -2.337664 1.369060 0
M  V30 41 H 4.429333 -1.276655 -0.917430 0
M  V30 42 H 3.909715 0.047386 -3.396160 0
M  V30 43 H 0.229527 3.243441 -3.516831 0
M  V30 44 H -2.034577 4.093798 -3.768927 0
M  V30 45 H -5.260443 1.858396 -1.609369 0
M  V30 46 H -5.266207 0.996013 -3.164183 0
M  V30 47 H -7.383014 2.505902 -2.009396 0
M  V30 48 H -7.343077 1.767108 -3.603874 0
M  V30 49 H -6.171135 5.532594 -3.882984 0
M  V30 50 H -6.046761 4.358501 -5.185763 0
M  V30 51 H -3.882483 4.408019 -4.567411 0
M  V30 52 H -4.226093 4.931658 -2.912909 0
M  V30 53 H -1.514602 -0.314332 -1.935549 0
M  V30 54 H -0.157863 0.070601 0.006496 0
M  V30 55 H 4.562367 -5.336459 4.786389 0
M  V30 56 H 4.200895 -7.758956 5.200089 0
M  V30 57 H 0.113137 -6.980956 6.195137 0
M  V30 58 H 0.486906 -4.599310 5.783557 0
M  V30 END ATOM
M  V30 BEGIN BOND
M  V30 1 1 1 2
M  V30 2 1 2 3
M  V30 3 1 3 4
M  V30 4 2 4 5
M  V30 5 1 4 6
M  V30 6 1 6 7
M  V30 7 2 7 8
M  V30 8 1 8 9
M  V30 9 1 9 10
M  V30 10 1 10 11
M  V30 11 2 11 12
M  V30 12 1 12 13
M  V30 13 2 13 14
M  V30 14 1 14 15
M  V30 15 2 15 16
M  V30 16 1 16 17
M  V30 17 1 17 18
M  V30 18 1 18 19
M  V30 19 1 19 20
M  V30 20 1 20 21
M  V30 21 1 21 22
M  V30 22 1 16 23
M  V30 23 2 23 24
M  V30 24 1 12 25
M  V30 25 1 25 26
M  V30 26 2 26 27
M  V30 27 1 2 28
M  V30 28 2 28 29
M  V30 29 1 29 30
M  V30 30 2 30 31
M  V30 31 1 31 32
M  V30 32 1 31 33
M  V30 33 2 33 34
M  V30 34 1 27 7
M  V30 35 1 34 28
M  V30 36 2 25 9
M  V30 37 1 24 13
M  V30 38 1 22 17
M  V30 39 1 1 35
M  V30 40 1 1 36
M  V30 41 1 1 37
M  V30 42 1 2 38 CFG=3
M  V30 43 1 3 39
M  V30 44 1 6 40
M  V30 45 1 8 41
M  V30 46 1 10 42
M  V30 47 1 14 43
M  V30 48 1 15 44
M  V30 49 1 18 45
M  V30 50 1 18 46
M  V30 51 1 19 47
M  V30 52 1 19 48
M  V30 53 1 21 49
M  V30 54 1 21 50
M  V30 55 1 22 51
M  V30 56 1 22 52
M  V30 57 1 24 53
M  V30 58 1 26 54
M  V30 59 1 29 55
M  V30 60 1 30 56
M  V30 61 1 33 57
M  V30 62 1 34 58
M  V30 END BOND
M  V30 END CTAB
M  END
>  <Dataset>  (413) 
ChEMBL_Kinases

>  <Ligand_Instance>  (413) 
nan

>  <PDB_ID>  (413) 
nan

>  <Standardized_SMILES>  (413) 
C[C@@H](NC(=O)Nc1cc2[nH]nc(-c3ccc(N4CCOCC4)nc3)c2cn1)c1ccc(F)cc1

>  <Name>  (413) 
nan

>  <Pocket>  (413) 
nan

>  <ATP_Site>  (413) 
nan

>  <Peripheral>  (413) 
nan

>  <Num_H_Atoms_ProtBoundConf>  (413) 
nan

>  <Num_Resolved_Atoms>  (413) 
nan

>  <Num_Not_Resolved_Atoms>  (413) 
nan

$$$$
CHEMBL3654880
     RDKit          3D

  0  0  0  0  0  0  0  0  0  0999 V3000
M  V30 BEGIN CTAB
M  V30 COUNTS 46 49 0 0 0
M  V30 BEGIN ATOM
M  V30 1 C -3.161289 -3.858149 3.060285 0
M  V30 2 C -1.727056 -3.728085 2.611363 0 CFG=1
M  V30 3 N -1.135891 -2.449415 2.997429 0
M  V30 4 C -0.734587 -1.520350 2.000098 0
M  V30 5 O -0.826204 -1.660883 0.753078 0
M  V30 6 N -0.161743 -0.286696 2.482311 0
M  V30 7 C 0.285270 0.736867 1.599254 0
M  V30 8 C 0.841898 1.938387 2.017509 0
M  V30 9 C 1.255120 2.889073 1.098875 0
M  V30 10 N 1.815090 4.112501 1.204406 0
M  V30 11 N 2.013387 4.606390 -0.028326 0
M  V30 12 C 1.590057 3.721788 -0.951048 0
M  V30 13 C 1.640249 3.899952 -2.400461 0
M  V30 14 C 0.552678 3.578846 -3.189375 0
M  V30 15 C 0.594395 3.744550 -4.558601 0
M  V30 16 C 1.734990 4.237650 -5.157676 0
M  V30 17 C 1.724736 4.391701 -6.598729 0
M  V30 18 N 1.714981 4.503479 -7.752263 0
M  V30 19 N 2.808312 4.556894 -4.400428 0
M  V30 20 C 2.776231 4.396530 -3.047155 0
M  V30 21 C 1.105074 2.625079 -0.266785 0
M  V30 22 C 0.552669 1.430659 -0.639513 0
M  V30 23 N 0.155315 0.515400 0.265712 0
M  V30 24 C -0.904277 -4.882990 3.049283 0
M  V30 25 C -0.434415 -4.808123 4.352838 0
M  V30 26 C 0.350613 -5.786995 4.947446 0
M  V30 27 C 0.673419 -6.897519 4.176541 0
M  V30 28 F 1.444842 -7.879734 4.732183 0
M  V30 29 C 0.215213 -6.982571 2.888086 0
M  V30 30 C -0.561847 -6.001149 2.317398 0
M  V30 31 H -3.168220 -4.555891 3.943344 0
M  V30 32 H -3.766867 -4.325226 2.279317 0
M  V30 33 H -3.593465 -2.897919 3.424486 0
M  V30 34 H -1.746495 -3.716672 1.485519 0
M  V30 35 H -1.012910 -2.228891 4.013441 0
M  V30 36 H -0.047310 -0.085223 3.505211 0
M  V30 37 H 0.942699 2.108852 3.074734 0
M  V30 38 H 2.031234 4.543162 2.118661 0
M  V30 39 H -0.367839 3.188998 -2.777107 0
M  V30 40 H -0.257118 3.492675 -5.172121 0
M  V30 41 H 3.654502 4.660436 -2.452443 0
M  V30 42 H 0.427980 1.206675 -1.686667 0
M  V30 43 H -0.646554 -3.969379 5.015471 0
M  V30 44 H 0.718380 -5.744592 5.944539 0
M  V30 45 H 0.472119 -7.849543 2.298978 0
M  V30 46 H -0.949067 -6.017016 1.308803 0
M  V30 END ATOM
M  V30 BEGIN BOND
M  V30 1 1 1 2
M  V30 2 1 2 3
M  V30 3 1 3 4
M  V30 4 2 4 5
M  V30 5 1 4 6
M  V30 6 1 6 7
M  V30 7 2 7 8
M  V30 8 1 8 9
M  V30 9 1 9 10
M  V30 10 1 10 11
M  V30 11 2 11 12
M  V30 12 1 12 13
M  V30 13 2 13 14
M  V30 14 1 14 15
M  V30 15 2 15 16
M  V30 16 1 16 17
M  V30 17 3 17 18
M  V30 18 1 16 19
M  V30 19 2 19 20
M  V30 20 1 12 21
M  V30 21 1 21 22
M  V30 22 2 22 23
M  V30 23 1 2 24
M  V30 24 2 24 25
M  V30 25 1 25 26
M  V30 26 2 26 27
M  V30 27 1 27 28
M  V30 28 1 27 29
M  V30 29 2 29 30
M  V30 30 1 23 7
M  V30 31 1 30 24
M  V30 32 2 21 9
M  V30 33 1 20 13
M  V30 34 1 1 31
M  V30 35 1 1 32
M  V30 36 1 1 33
M  V30 37 1 2 34 CFG=3
M  V30 38 1 3 35
M  V30 39 1 6 36
M  V30 40 1 8 37
M  V30 41 1 10 38
M  V30 42 1 14 39
M  V30 43 1 15 40
M  V30 44 1 20 41
M  V30 45 1 22 42
M  V30 46 1 25 43
M  V30 47 1 26 44
M  V30 48 1 29 45
M  V30 49 1 30 46
M  V30 END BOND
M  V30 END CTAB
M  END
>  <Dataset>  (414) 
ChEMBL_Kinases

>  <Ligand_Instance>  (414) 
nan

>  <PDB_ID>  (414) 
nan

>  <Standardized_SMILES>  (414) 
C[C@@H](NC(=O)Nc1cc2[nH]nc(-c3ccc(C#N)nc3)c2cn1)c1ccc(F)cc1

>  <Name>  (414) 
nan

>  <Pocket>  (414) 
nan

>  <ATP_Site>  (414) 
nan

>  <Peripheral>  (414) 
nan

>  <Num_H_Atoms_ProtBoundConf>  (414) 
nan

>  <Num_Resolved_Atoms>  (414) 
nan

>  <Num_Not_Resolved_Atoms>  (414) 
nan

$$$$
CHEMBL3654879
     RDKit          3D

  0  0  0  0  0  0  0  0  0  0999 V3000
M  V30 BEGIN CTAB
M  V30 COUNTS 49 52 0 0 0
M  V30 BEGIN ATOM
M  V30 1 C 2.036928 -6.621968 -1.710524 0
M  V30 2 O 3.470886 -6.565214 -1.723572 0
M  V30 3 C 4.112713 -5.354223 -1.611692 0
M  V30 4 C 5.499455 -5.539036 -1.648131 0
M  V30 5 N 6.371341 -4.492539 -1.555596 0
M  V30 6 C 5.872764 -3.231744 -1.423909 0
M  V30 7 C 4.496432 -3.050812 -1.387991 0
M  V30 8 C 3.933294 -1.712668 -1.247785 0
M  V30 9 N 4.358180 -0.636766 -1.939277 0
M  V30 10 N 3.671555 0.447832 -1.614506 0
M  V30 11 C 2.764276 0.110216 -0.688176 0
M  V30 12 C 1.761342 0.732906 0.056240 0
M  V30 13 C 0.974023 0.067946 0.964567 0
M  V30 14 N 0.024214 0.919280 1.596301 0
M  V30 15 C -1.282655 1.151984 1.095093 0
M  V30 16 O -1.643761 0.583147 0.032728 0
M  V30 17 N -2.058040 2.025908 1.871490 0
M  V30 18 C -3.421505 2.435016 1.591366 0 CFG=2
M  V30 19 C -3.499683 3.918979 1.320260 0
M  V30 20 C -4.348652 2.016924 2.652350 0
M  V30 21 C -4.031171 2.185789 3.996162 0
M  V30 22 C -4.827369 1.828992 5.052160 0
M  V30 23 C -6.058237 1.248853 4.789801 0
M  V30 24 F -6.839760 0.898610 5.821434 0
M  V30 25 C -6.400510 1.068639 3.463857 0
M  V30 26 C -5.588591 1.432880 2.413307 0
M  V30 27 N 1.169793 -1.259933 1.157966 0
M  V30 28 C 2.122090 -1.901776 0.465336 0
M  V30 29 C 2.912172 -1.257394 -0.439743 0
M  V30 30 C 3.612440 -4.082365 -1.478885 0
M  V30 31 H 1.726066 -5.833553 -2.442046 0
M  V30 32 H 1.693359 -7.632645 -2.009489 0
M  V30 33 H 1.625769 -6.398983 -0.702593 0
M  V30 34 H 6.046456 -6.474073 -1.748097 0
M  V30 35 H 6.476483 -2.328686 -1.342127 0
M  V30 36 H 3.767553 1.418552 -1.975042 0
M  V30 37 H 1.687314 1.804947 -0.176916 0
M  V30 38 H 0.497184 1.299450 2.455398 0
M  V30 39 H -1.727358 2.481648 2.749149 0
M  V30 40 H -3.720261 1.917513 0.647199 0
M  V30 41 H -4.556596 4.156933 1.129004 0
M  V30 42 H -3.109330 4.494457 2.180521 0
M  V30 43 H -2.926487 4.103969 0.392114 0
M  V30 44 H -3.076668 2.636786 4.271306 0
M  V30 45 H -4.519509 1.988548 6.077265 0
M  V30 46 H -7.372505 0.611093 3.294991 0
M  V30 47 H -5.873867 1.283874 1.389143 0
M  V30 48 H 2.244732 -2.950516 0.647409 0
M  V30 49 H 2.546604 -4.054228 -1.462221 0
M  V30 END ATOM
M  V30 BEGIN BOND
M  V30 1 1 1 2
M  V30 2 1 2 3
M  V30 3 2 3 4
M  V30 4 1 4 5
M  V30 5 2 5 6
M  V30 6 1 6 7
M  V30 7 1 7 8
M  V30 8 2 8 9
M  V30 9 1 9 10
M  V30 10 1 10 11
M  V30 11 2 11 12
M  V30 12 1 12 13
M  V30 13 1 13 14
M  V30 14 1 14 15
M  V30 15 2 15 16
M  V30 16 1 15 17
M  V30 17 1 17 18
M  V30 18 1 18 19
M  V30 19 1 18 20
M  V30 20 2 20 21
M  V30 21 1 21 22
M  V30 22 2 22 23
M  V30 23 1 23 24
M  V30 24 1 23 25
M  V30 25 2 25 26
M  V30 26 2 13 27
M  V30 27 1 27 28
M  V30 28 2 28 29
M  V30 29 2 7 30
M  V30 30 1 30 3
M  V30 31 1 29 8
M  V30 32 1 29 11
M  V30 33 1 26 20
M  V30 34 1 1 31
M  V30 35 1 1 32
M  V30 36 1 1 33
M  V30 37 1 4 34
M  V30 38 1 6 35
M  V30 39 1 10 36
M  V30 40 1 12 37
M  V30 41 1 14 38
M  V30 42 1 17 39
M  V30 43 1 18 40 CFG=3
M  V30 44 1 19 41
M  V30 45 1 19 42
M  V30 46 1 19 43
M  V30 47 1 21 44
M  V30 48 1 22 45
M  V30 49 1 25 46
M  V30 50 1 26 47
M  V30 51 1 28 48
M  V30 52 1 30 49
M  V30 END BOND
M  V30 END CTAB
M  END
>  <Dataset>  (415) 
ChEMBL_Kinases

>  <Ligand_Instance>  (415) 
nan

>  <PDB_ID>  (415) 
nan

>  <Standardized_SMILES>  (415) 
COc1cncc(-c2n[nH]c3cc(NC(=O)N[C@H](C)c4ccc(F)cc4)ncc23)c1

>  <Name>  (415) 
nan

>  <Pocket>  (415) 
nan

>  <ATP_Site>  (415) 
nan

>  <Peripheral>  (415) 
nan

>  <Num_H_Atoms_ProtBoundConf>  (415) 
nan

>  <Num_Resolved_Atoms>  (415) 
nan

>  <Num_Not_Resolved_Atoms>  (415) 
nan

$$$$
CHEMBL3654878
     RDKit          3D

  0  0  0  0  0  0  0  0  0  0999 V3000
M  V30 BEGIN CTAB
M  V30 COUNTS 48 51 0 0 0
M  V30 BEGIN ATOM
M  V30 1 C -1.489088 -4.848382 -7.727831 0
M  V30 2 O -1.920739 -5.161868 -6.423355 0
M  V30 3 C -1.248718 -4.623412 -5.340619 0
M  V30 4 N -1.807906 -5.036493 -4.170575 0
M  V30 5 C -1.259638 -4.589145 -3.011457 0
M  V30 6 C -0.149712 -3.727384 -3.036042 0
M  V30 7 C 0.287333 -3.374964 -1.686828 0
M  V30 8 N 0.449924 -4.238365 -0.653345 0
M  V30 9 N 0.843060 -3.564995 0.427669 0
M  V30 10 C 0.962050 -2.248048 0.183427 0
M  V30 11 C 1.308817 -1.074563 0.866856 0
M  V30 12 C 1.297976 0.169018 0.212628 0
M  V30 13 N 1.684965 1.117291 1.240739 0
M  V30 14 C 0.494808 1.630643 1.901308 0
M  V30 15 O -0.718071 1.438390 1.724920 0
M  V30 16 N 0.918777 2.519817 2.945503 0
M  V30 17 C -0.153751 3.154242 3.727992 0 CFG=2
M  V30 18 C 0.030896 4.612473 3.938965 0
M  V30 19 C -0.150514 2.468018 5.066913 0
M  V30 20 C -1.372985 2.062673 5.601458 0
M  V30 21 C -1.447754 1.414452 6.814777 0
M  V30 22 C -0.305510 1.134375 7.560300 0
M  V30 23 F -0.404925 0.490146 8.752485 0
M  V30 24 C 0.920610 1.543280 7.024737 0
M  V30 25 C 0.970819 2.188510 5.813195 0
M  V30 26 N 0.949905 0.223129 -1.088034 0
M  V30 27 C 0.610653 -0.917532 -1.758348 0
M  V30 28 C 0.610317 -2.150268 -1.144924 0
M  V30 29 C 0.373233 -3.343543 -4.225785 0
M  V30 30 N -0.196039 -3.808895 -5.383439 0
M  V30 31 H -2.103297 -5.378076 -8.496869 0
M  V30 32 H -0.449615 -5.180329 -7.878579 0
M  V30 33 H -1.630468 -3.757338 -7.896103 0
M  V30 34 H -1.729705 -4.938288 -2.082928 0
M  V30 35 H 1.049995 -3.972699 1.377219 0
M  V30 36 H 1.556778 -1.336675 1.886591 0
M  V30 37 H 2.683504 1.319090 1.428270 0
M  V30 38 H 1.851429 2.818302 3.277593 0
M  V30 39 H -1.152892 2.970191 3.242958 0
M  V30 40 H 0.890220 4.903839 4.565156 0
M  V30 41 H -0.036631 5.208523 2.998540 0
M  V30 42 H -0.865819 4.961613 4.531671 0
M  V30 43 H -2.295124 2.262587 5.058513 0
M  V30 44 H -2.376344 1.075616 7.283651 0
M  V30 45 H 1.764981 1.308763 7.624536 0
M  V30 46 H 1.918033 2.503119 5.397896 0
M  V30 47 H 0.354407 -0.714068 -2.785966 0
M  V30 48 H 1.225779 -2.679984 -4.190713 0
M  V30 END ATOM
M  V30 BEGIN BOND
M  V30 1 1 1 2
M  V30 2 1 2 3
M  V30 3 2 3 4
M  V30 4 1 4 5
M  V30 5 2 5 6
M  V30 6 1 6 7
M  V30 7 2 7 8
M  V30 8 1 8 9
M  V30 9 1 9 10
M  V30 10 2 10 11
M  V30 11 1 11 12
M  V30 12 1 12 13
M  V30 13 1 13 14
M  V30 14 2 14 15
M  V30 15 1 14 16
M  V30 16 1 16 17
M  V30 17 1 17 18
M  V30 18 1 17 19
M  V30 19 2 19 20
M  V30 20 1 20 21
M  V30 21 2 21 22
M  V30 22 1 22 23
M  V30 23 1 22 24
M  V30 24 2 24 25
M  V30 25 2 12 26
M  V30 26 1 26 27
M  V30 27 2 27 28
M  V30 28 1 6 29
M  V30 29 2 29 30
M  V30 30 1 30 3
M  V30 31 1 28 7
M  V30 32 1 28 10
M  V30 33 1 25 19
M  V30 34 1 1 31
M  V30 35 1 1 32
M  V30 36 1 1 33
M  V30 37 1 5 34
M  V30 38 1 9 35
M  V30 39 1 11 36
M  V30 40 1 13 37
M  V30 41 1 16 38
M  V30 42 1 17 39 CFG=3
M  V30 43 1 18 40
M  V30 44 1 18 41
M  V30 45 1 18 42
M  V30 46 1 20 43
M  V30 47 1 21 44
M  V30 48 1 24 45
M  V30 49 1 25 46
M  V30 50 1 27 47
M  V30 51 1 29 48
M  V30 END BOND
M  V30 END CTAB
M  END
>  <Dataset>  (416) 
ChEMBL_Kinases

>  <Ligand_Instance>  (416) 
nan

>  <PDB_ID>  (416) 
nan

>  <Standardized_SMILES>  (416) 
COc1ncc(-c2n[nH]c3cc(NC(=O)N[C@H](C)c4ccc(F)cc4)ncc23)cn1

>  <Name>  (416) 
nan

>  <Pocket>  (416) 
nan

>  <ATP_Site>  (416) 
nan

>  <Peripheral>  (416) 
nan

>  <Num_H_Atoms_ProtBoundConf>  (416) 
nan

>  <Num_Resolved_Atoms>  (416) 
nan

>  <Num_Not_Resolved_Atoms>  (416) 
nan

$$$$
CHEMBL3654860
     RDKit          3D

  0  0  0  0  0  0  0  0  0  0999 V3000
M  V30 BEGIN CTAB
M  V30 COUNTS 49 52 0 0 0
M  V30 BEGIN ATOM
M  V30 1 C -2.953886 -3.944633 -5.722908 0
M  V30 2 C -2.448209 -4.815108 -4.630186 0
M  V30 3 C -2.138320 -4.274336 -3.411515 0
M  V30 4 C -1.657880 -5.034564 -2.339393 0
M  V30 5 C -1.334387 -4.434688 -1.049350 0
M  V30 6 N -1.683811 -4.932182 0.164040 0
M  V30 7 N -1.222120 -4.126364 1.119394 0
M  V30 8 C -0.558200 -3.080116 0.559096 0
M  V30 9 C 0.099596 -1.980987 1.079798 0
M  V30 10 C 0.684962 -1.082031 0.188178 0
M  V30 11 N 1.329544 0.004933 0.850372 0
M  V30 12 C 0.854857 1.303653 1.261451 0
M  V30 13 O -0.338005 1.433414 0.948189 0
M  V30 14 N 1.767997 2.144755 1.905531 0
M  V30 15 C 1.259974 3.435539 2.303575 0 CFG=2
M  V30 16 C 1.992750 4.599050 1.723279 0
M  V30 17 C 1.369586 3.494094 3.792565 0
M  V30 18 C 0.911787 2.314968 4.387962 0
M  V30 19 C 0.922782 2.152641 5.773212 0
M  V30 20 C 1.398787 3.190093 6.540172 0
M  V30 21 C 1.417605 3.041025 7.969816 0
M  V30 22 N 1.442736 2.930414 9.141434 0
M  V30 23 C 1.850225 4.352681 5.954382 0
M  V30 24 C 1.840705 4.516341 4.584409 0
M  V30 25 N 0.612529 -1.278380 -1.157956 0
M  V30 26 C -0.030782 -2.352969 -1.669550 0
M  V30 27 C -0.624718 -3.268574 -0.824968 0
M  V30 28 C -1.519005 -6.375705 -2.603014 0
M  V30 29 C -1.828913 -6.948838 -3.838618 0
M  V30 30 N -2.284739 -6.136798 -4.809212 0
M  V30 31 H -3.742206 -4.505739 -6.277391 0
M  V30 32 H -2.116143 -3.700542 -6.409363 0
M  V30 33 H -3.362749 -2.991427 -5.331459 0
M  V30 34 H -2.278877 -3.212813 -3.294520 0
M  V30 35 H -1.325406 -4.232625 2.172769 0
M  V30 36 H 0.113427 -1.895688 2.146055 0
M  V30 37 H 2.290854 -0.381239 0.981904 0
M  V30 38 H 2.744045 1.866612 2.087372 0
M  V30 39 H 0.183858 3.524497 1.990777 0
M  V30 40 H 1.846094 4.678249 0.615393 0
M  V30 41 H 3.041627 4.649959 2.026854 0
M  V30 42 H 1.488857 5.513026 2.114142 0
M  V30 43 H 0.514574 1.432355 3.876796 0
M  V30 44 H 0.579372 1.260743 6.272831 0
M  V30 45 H 2.225484 5.171775 6.551400 0
M  V30 46 H 2.163242 5.363162 4.037110 0
M  V30 47 H -0.067010 -2.474129 -2.742445 0
M  V30 48 H -1.153988 -6.996898 -1.810053 0
M  V30 49 H -1.685600 -8.024054 -3.952758 0
M  V30 END ATOM
M  V30 BEGIN BOND
M  V30 1 1 1 2
M  V30 2 2 2 3
M  V30 3 1 3 4
M  V30 4 1 4 5
M  V30 5 2 5 6
M  V30 6 1 6 7
M  V30 7 1 7 8
M  V30 8 2 8 9
M  V30 9 1 9 10
M  V30 10 1 10 11
M  V30 11 1 11 12
M  V30 12 2 12 13
M  V30 13 1 12 14
M  V30 14 1 14 15
M  V30 15 1 15 16
M  V30 16 1 15 17
M  V30 17 2 17 18
M  V30 18 1 18 19
M  V30 19 2 19 20
M  V30 20 1 20 21
M  V30 21 3 21 22
M  V30 22 1 20 23
M  V30 23 2 23 24
M  V30 24 2 10 25
M  V30 25 1 25 26
M  V30 26 2 26 27
M  V30 27 2 4 28
M  V30 28 1 28 29
M  V30 29 2 29 30
M  V30 30 1 30 2
M  V30 31 1 27 5
M  V30 32 1 27 8
M  V30 33 1 24 17
M  V30 34 1 1 31
M  V30 35 1 1 32
M  V30 36 1 1 33
M  V30 37 1 3 34
M  V30 38 1 7 35
M  V30 39 1 9 36
M  V30 40 1 11 37
M  V30 41 1 14 38
M  V30 42 1 15 39 CFG=1
M  V30 43 1 16 40
M  V30 44 1 16 41
M  V30 45 1 16 42
M  V30 46 1 18 43
M  V30 47 1 19 44
M  V30 48 1 23 45
M  V30 49 1 24 46
M  V30 50 1 26 47
M  V30 51 1 28 48
M  V30 52 1 29 49
M  V30 END BOND
M  V30 END CTAB
M  END
>  <Dataset>  (417) 
ChEMBL_Kinases

>  <Ligand_Instance>  (417) 
nan

>  <PDB_ID>  (417) 
nan

>  <Standardized_SMILES>  (417) 
Cc1cc(-c2n[nH]c3cc(NC(=O)N[C@H](C)c4ccc(C#N)cc4)ncc23)ccn1

>  <Name>  (417) 
nan

>  <Pocket>  (417) 
nan

>  <ATP_Site>  (417) 
nan

>  <Peripheral>  (417) 
nan

>  <Num_H_Atoms_ProtBoundConf>  (417) 
nan

>  <Num_Resolved_Atoms>  (417) 
nan

>  <Num_Not_Resolved_Atoms>  (417) 
nan

$$$$
CHEMBL3654861
     RDKit          3D

  0  0  0  0  0  0  0  0  0  0999 V3000
M  V30 BEGIN CTAB
M  V30 COUNTS 47 50 0 0 0
M  V30 BEGIN ATOM
M  V30 1 C 1.201729 0.206592 7.808824 0
M  V30 2 C 1.459915 1.428843 7.005931 0
M  V30 3 C 1.017150 1.450148 5.704872 0
M  V30 4 C 1.217516 2.545678 4.895869 0
M  V30 5 C 0.788446 2.675223 3.497162 0
M  V30 6 N 0.182141 3.768014 2.962806 0
M  V30 7 N -0.066462 3.547743 1.684069 0
M  V30 8 C 0.387841 2.293379 1.393925 0
M  V30 9 C 0.377498 1.568941 0.206623 0
M  V30 10 C 0.922417 0.284316 0.207263 0
M  V30 11 N 0.837285 -0.326210 -1.079073 0
M  V30 12 C -0.363372 -1.067148 -1.286105 0
M  V30 13 O -1.274683 -1.194683 -0.452231 0
M  V30 14 N -0.537026 -1.714442 -2.547000 0
M  V30 15 C -1.755321 -2.485255 -2.800335 0 CFG=1
M  V30 16 C -2.444252 -1.784331 -3.951301 0
M  V30 17 C -1.320224 -3.846861 -3.211145 0
M  V30 18 C -0.329345 -4.549421 -2.557179 0
M  V30 19 C 0.080207 -5.815226 -2.933334 0
M  V30 20 N -0.507177 -6.416753 -3.995671 0
M  V30 21 C -1.479801 -5.777354 -4.670872 0
M  V30 22 C -1.893038 -4.514098 -4.300568 0
M  V30 23 N 1.445304 -0.242727 1.326704 0
M  V30 24 C 1.468744 0.428772 2.479029 0
M  V30 25 C 0.932899 1.716181 2.516731 0
M  V30 26 C 1.881827 3.678569 5.374683 0
M  V30 27 C 2.310520 3.609099 6.696160 0
M  V30 28 N 2.103882 2.540787 7.452688 0
M  V30 29 H 1.763644 0.312082 8.759875 0
M  V30 30 H 1.599390 -0.639672 7.185203 0
M  V30 31 H 0.118756 0.089622 7.939758 0
M  V30 32 H 0.499016 0.624059 5.258698 0
M  V30 33 H -0.526761 4.210183 1.013334 0
M  V30 34 H -0.063768 2.063038 -0.659859 0
M  V30 35 H 1.588779 -0.247067 -1.826012 0
M  V30 36 H 0.149682 -1.691512 -3.342127 0
M  V30 37 H -2.433396 -2.475893 -1.942065 0
M  V30 38 H -1.801586 -1.661101 -4.825700 0
M  V30 39 H -3.441554 -2.201487 -4.191230 0
M  V30 40 H -2.644996 -0.741291 -3.568430 0
M  V30 41 H 0.161108 -4.083861 -1.694482 0
M  V30 42 H 0.859751 -6.343759 -2.402821 0
M  V30 43 H -1.998501 -6.184871 -5.527031 0
M  V30 44 H -2.687577 -3.986946 -4.848950 0
M  V30 45 H 1.884540 0.008132 3.366760 0
M  V30 46 H 2.082447 4.576592 4.816192 0
M  V30 47 H 2.836490 4.421708 7.181959 0
M  V30 END ATOM
M  V30 BEGIN BOND
M  V30 1 1 1 2
M  V30 2 2 2 3
M  V30 3 1 3 4
M  V30 4 1 4 5
M  V30 5 2 5 6
M  V30 6 1 6 7
M  V30 7 1 7 8
M  V30 8 2 8 9
M  V30 9 1 9 10
M  V30 10 1 10 11
M  V30 11 1 11 12
M  V30 12 2 12 13
M  V30 13 1 12 14
M  V30 14 1 14 15
M  V30 15 1 15 16
M  V30 16 1 15 17
M  V30 17 2 17 18
M  V30 18 1 18 19
M  V30 19 2 19 20
M  V30 20 1 20 21
M  V30 21 2 21 22
M  V30 22 2 10 23
M  V30 23 1 23 24
M  V30 24 2 24 25
M  V30 25 2 4 26
M  V30 26 1 26 27
M  V30 27 2 27 28
M  V30 28 1 28 2
M  V30 29 1 25 5
M  V30 30 1 25 8
M  V30 31 1 22 17
M  V30 32 1 1 29
M  V30 33 1 1 30
M  V30 34 1 1 31
M  V30 35 1 3 32
M  V30 36 1 7 33
M  V30 37 1 9 34
M  V30 38 1 11 35
M  V30 39 1 14 36
M  V30 40 1 15 37 CFG=1
M  V30 41 1 16 38
M  V30 42 1 16 39
M  V30 43 1 16 40
M  V30 44 1 18 41
M  V30 45 1 19 42
M  V30 46 1 21 43
M  V30 47 1 22 44
M  V30 48 1 24 45
M  V30 49 1 26 46
M  V30 50 1 27 47
M  V30 END BOND
M  V30 END CTAB
M  END
>  <Dataset>  (418) 
ChEMBL_Kinases

>  <Ligand_Instance>  (418) 
nan

>  <PDB_ID>  (418) 
nan

>  <Standardized_SMILES>  (418) 
Cc1cc(-c2n[nH]c3cc(NC(=O)N[C@@H](C)c4ccncc4)ncc23)ccn1

>  <Name>  (418) 
nan

>  <Pocket>  (418) 
nan

>  <ATP_Site>  (418) 
nan

>  <Peripheral>  (418) 
nan

>  <Num_H_Atoms_ProtBoundConf>  (418) 
nan

>  <Num_Resolved_Atoms>  (418) 
nan

>  <Num_Not_Resolved_Atoms>  (418) 
nan

$$$$
CHEMBL3654862
     RDKit          3D

  0  0  0  0  0  0  0  0  0  0999 V3000
M  V30 BEGIN CTAB
M  V30 COUNTS 47 50 0 0 0
M  V30 BEGIN ATOM
M  V30 1 C -4.593488 -7.224272 -0.737953 0
M  V30 2 C -3.246961 -6.693427 -1.110036 0
M  V30 3 C -2.567821 -5.835669 -0.274024 0
M  V30 4 C -1.308472 -5.304063 -0.561052 0
M  V30 5 C -0.742668 -4.411530 0.444138 0
M  V30 6 N -0.763099 -4.686318 1.767385 0
M  V30 7 N -0.177749 -3.697116 2.438098 0
M  V30 8 C 0.250476 -2.736186 1.598942 0
M  V30 9 C 0.899265 -1.520806 1.675464 0
M  V30 10 C 1.182856 -0.781655 0.543621 0
M  V30 11 N 1.857345 0.467957 0.700843 0
M  V30 12 C 1.083410 1.669029 0.882798 0
M  V30 13 O -0.165961 1.650577 0.907361 0
M  V30 14 N 1.761762 2.902079 1.037651 0
M  V30 15 C 1.064719 4.181327 1.228704 0 CFG=2
M  V30 16 C 1.383478 5.024253 0.010421 0
M  V30 17 C 1.528651 4.887966 2.432312 0
M  V30 18 C 2.883153 4.969750 2.681217 0
M  V30 19 C 3.353171 5.630504 3.809738 0
M  V30 20 N 2.495318 6.209033 4.690870 0
M  V30 21 C 1.173794 6.138928 4.463990 0
M  V30 22 C 0.656352 5.485675 3.343835 0
M  V30 23 N 0.817238 -1.255455 -0.682806 0
M  V30 24 C 0.174646 -2.452401 -0.796845 0
M  V30 25 C -0.107744 -3.189317 0.335202 0
M  V30 26 C -0.741130 -5.680075 -1.758241 0
M  V30 27 C -1.424860 -6.532174 -2.580027 0
M  V30 28 N -2.653637 -7.033106 -2.269137 0
M  V30 29 H -4.681408 -8.319572 -0.893585 0
M  V30 30 H -4.756626 -7.071104 0.349679 0
M  V30 31 H -5.418049 -6.745212 -1.282089 0
M  V30 32 H -3.075880 -5.586144 0.646783 0
M  V30 33 H -0.033607 -3.611454 3.488460 0
M  V30 34 H 1.175244 -1.171589 2.648417 0
M  V30 35 H 2.897066 0.482741 0.680323 0
M  V30 36 H 2.797335 2.904964 1.015576 0
M  V30 37 H -0.027662 4.026831 1.231177 0
M  V30 38 H 0.708576 4.707894 -0.812940 0
M  V30 39 H 2.412119 4.793963 -0.382497 0
M  V30 40 H 1.279044 6.106150 0.200211 0
M  V30 41 H 3.601075 4.522021 2.003852 0
M  V30 42 H 4.426426 5.681163 3.983653 0
M  V30 43 H 0.416915 6.569999 5.110624 0
M  V30 44 H -0.410597 5.425582 3.154904 0
M  V30 45 H -0.103667 -2.803498 -1.784047 0
M  V30 46 H 0.227119 -5.259717 -1.958741 0
M  V30 47 H -0.915382 -6.780797 -3.500634 0
M  V30 END ATOM
M  V30 BEGIN BOND
M  V30 1 1 1 2
M  V30 2 2 2 3
M  V30 3 1 3 4
M  V30 4 1 4 5
M  V30 5 2 5 6
M  V30 6 1 6 7
M  V30 7 1 7 8
M  V30 8 2 8 9
M  V30 9 1 9 10
M  V30 10 1 10 11
M  V30 11 1 11 12
M  V30 12 2 12 13
M  V30 13 1 12 14
M  V30 14 1 14 15
M  V30 15 1 15 16
M  V30 16 1 15 17
M  V30 17 2 17 18
M  V30 18 1 18 19
M  V30 19 2 19 20
M  V30 20 1 20 21
M  V30 21 2 21 22
M  V30 22 2 10 23
M  V30 23 1 23 24
M  V30 24 2 24 25
M  V30 25 2 4 26
M  V30 26 1 26 27
M  V30 27 2 27 28
M  V30 28 1 28 2
M  V30 29 1 25 5
M  V30 30 1 25 8
M  V30 31 1 22 17
M  V30 32 1 1 29
M  V30 33 1 1 30
M  V30 34 1 1 31
M  V30 35 1 3 32
M  V30 36 1 7 33
M  V30 37 1 9 34
M  V30 38 1 11 35
M  V30 39 1 14 36
M  V30 40 1 15 37 CFG=1
M  V30 41 1 16 38
M  V30 42 1 16 39
M  V30 43 1 16 40
M  V30 44 1 18 41
M  V30 45 1 19 42
M  V30 46 1 21 43
M  V30 47 1 22 44
M  V30 48 1 24 45
M  V30 49 1 26 46
M  V30 50 1 27 47
M  V30 END BOND
M  V30 END CTAB
M  END
>  <Dataset>  (419) 
ChEMBL_Kinases

>  <Ligand_Instance>  (419) 
nan

>  <PDB_ID>  (419) 
nan

>  <Standardized_SMILES>  (419) 
Cc1cc(-c2n[nH]c3cc(NC(=O)N[C@H](C)c4ccncc4)ncc23)ccn1

>  <Name>  (419) 
nan

>  <Pocket>  (419) 
nan

>  <ATP_Site>  (419) 
nan

>  <Peripheral>  (419) 
nan

>  <Num_H_Atoms_ProtBoundConf>  (419) 
nan

>  <Num_Resolved_Atoms>  (419) 
nan

>  <Num_Not_Resolved_Atoms>  (419) 
nan

$$$$
CHEMBL3654863
     RDKit          3D

  0  0  0  0  0  0  0  0  0  0999 V3000
M  V30 BEGIN CTAB
M  V30 COUNTS 56 60 0 0 0
M  V30 BEGIN ATOM
M  V30 1 C 7.388363 -5.664897 3.614223 0
M  V30 2 C 6.638191 -5.353040 2.382615 0
M  V30 3 C 6.167357 -4.072847 2.217854 0
M  V30 4 C 5.448930 -3.724545 1.068112 0
M  V30 5 C 4.930877 -2.374327 0.852120 0
M  V30 6 N 5.574464 -1.208916 1.045500 0
M  V30 7 N 4.808024 -0.167356 0.751485 0
M  V30 8 C 3.626080 -0.673890 0.353445 0
M  V30 9 C 2.482919 -0.014772 -0.061628 0
M  V30 10 C 1.378234 -0.776534 -0.425929 0
M  V30 11 N 0.119859 -0.272166 -0.877570 0
M  V30 12 C -0.898578 0.006018 0.086978 0
M  V30 13 O -0.748500 -0.169989 1.331081 0
M  V30 14 N -2.108687 0.500476 -0.448652 0
M  V30 15 C -3.283051 0.855380 0.322181 0
M  V30 16 C -3.665306 2.260765 0.157572 0
M  V30 17 C -3.705653 2.880377 -1.076020 0
M  V30 18 C -4.054420 4.194851 -1.303943 0
M  V30 19 C -4.389538 4.942726 -0.192248 0
M  V30 20 C -4.369176 4.377353 1.082549 0
M  V30 21 C -4.009091 3.050051 1.241755 0
M  V30 22 C -4.457342 -0.062182 -0.030344 0
M  V30 23 C -5.685586 0.304685 0.741787 0
M  V30 24 C -6.769860 -0.189125 -0.218597 0
M  V30 25 C -6.104795 -0.008945 -1.541117 0
M  V30 26 O -4.740743 0.067711 -1.370702 0
M  V30 27 N 1.414588 -2.136697 -0.377596 0
M  V30 28 C 2.547651 -2.775921 0.033376 0
M  V30 29 C 3.663156 -2.053597 0.402542 0
M  V30 30 C 5.247087 -4.720651 0.132763 0
M  V30 31 C 5.733905 -5.996419 0.329991 0
M  V30 32 N 6.432080 -6.326783 1.451809 0
M  V30 33 H 6.744045 -5.503686 4.528235 0
M  V30 34 H 7.676807 -6.752972 3.620483 0
M  V30 35 H 8.320953 -5.114237 3.749137 0
M  V30 36 H 6.324761 -3.287606 2.952193 0
M  V30 37 H 5.045649 0.847002 0.807617 0
M  V30 38 H 2.353876 1.055844 -0.134681 0
M  V30 39 H 0.076321 -0.153648 -1.929758 0
M  V30 40 H -2.275800 0.660399 -1.469535 0
M  V30 41 H -3.080690 0.677299 1.402597 0
M  V30 42 H -3.436199 2.270754 -1.945686 0
M  V30 43 H -4.066537 4.621815 -2.294028 0
M  V30 44 H -4.679099 5.992495 -0.270443 0
M  V30 45 H -4.624197 4.921094 1.995371 0
M  V30 46 H -3.970990 2.541872 2.210266 0
M  V30 47 H -4.210180 -1.118365 0.200529 0
M  V30 48 H -5.814434 -0.280267 1.679772 0
M  V30 49 H -5.797525 1.384521 0.918834 0
M  V30 50 H -6.917887 -1.286027 -0.051799 0
M  V30 51 H -7.728401 0.324717 -0.087832 0
M  V30 52 H -6.534328 0.825725 -2.153913 0
M  V30 53 H -6.277677 -0.918870 -2.186648 0
M  V30 54 H 2.581939 -3.856056 0.074076 0
M  V30 55 H 4.712478 -4.554326 -0.775997 0
M  V30 56 H 5.589178 -6.800135 -0.391338 0
M  V30 END ATOM
M  V30 BEGIN BOND
M  V30 1 1 1 2
M  V30 2 2 2 3
M  V30 3 1 3 4
M  V30 4 1 4 5
M  V30 5 2 5 6
M  V30 6 1 6 7
M  V30 7 1 7 8
M  V30 8 2 8 9
M  V30 9 1 9 10
M  V30 10 1 10 11
M  V30 11 1 11 12
M  V30 12 2 12 13
M  V30 13 1 12 14
M  V30 14 1 14 15
M  V30 15 1 15 16
M  V30 16 2 16 17
M  V30 17 1 17 18
M  V30 18 2 18 19
M  V30 19 1 19 20
M  V30 20 2 20 21
M  V30 21 1 15 22
M  V30 22 1 22 23
M  V30 23 1 23 24
M  V30 24 1 24 25
M  V30 25 1 25 26
M  V30 26 2 10 27
M  V30 27 1 27 28
M  V30 28 2 28 29
M  V30 29 2 4 30
M  V30 30 1 30 31
M  V30 31 2 31 32
M  V30 32 1 32 2
M  V30 33 1 29 5
M  V30 34 1 29 8
M  V30 35 1 21 16
M  V30 36 1 26 22
M  V30 37 1 1 33
M  V30 38 1 1 34
M  V30 39 1 1 35
M  V30 40 1 3 36
M  V30 41 1 7 37
M  V30 42 1 9 38
M  V30 43 1 11 39
M  V30 44 1 14 40
M  V30 45 1 15 41
M  V30 46 1 17 42
M  V30 47 1 18 43
M  V30 48 1 19 44
M  V30 49 1 20 45
M  V30 50 1 21 46
M  V30 51 1 22 47
M  V30 52 1 23 48
M  V30 53 1 23 49
M  V30 54 1 24 50
M  V30 55 1 24 51
M  V30 56 1 25 52
M  V30 57 1 25 53
M  V30 58 1 28 54
M  V30 59 1 30 55
M  V30 60 1 31 56
M  V30 END BOND
M  V30 END CTAB
M  END
>  <Dataset>  (420) 
ChEMBL_Kinases

>  <Ligand_Instance>  (420) 
nan

>  <PDB_ID>  (420) 
nan

>  <Standardized_SMILES>  (420) 
Cc1cc(-c2n[nH]c3cc(NC(=O)NC(c4ccccc4)C4CCCO4)ncc23)ccn1

>  <Name>  (420) 
nan

>  <Pocket>  (420) 
nan

>  <ATP_Site>  (420) 
nan

>  <Peripheral>  (420) 
nan

>  <Num_H_Atoms_ProtBoundConf>  (420) 
nan

>  <Num_Resolved_Atoms>  (420) 
nan

>  <Num_Not_Resolved_Atoms>  (420) 
nan

$$$$
CHEMBL3654864
     RDKit          3D

  0  0  0  0  0  0  0  0  0  0999 V3000
M  V30 BEGIN CTAB
M  V30 COUNTS 56 60 0 0 0
M  V30 BEGIN ATOM
M  V30 1 C 7.183213 -6.126942 2.606970 0
M  V30 2 C 6.763192 -5.161940 1.550421 0
M  V30 3 C 5.977041 -4.065476 1.917851 0
M  V30 4 C 5.547386 -3.127643 0.999932 0
M  V30 5 C 4.729377 -2.015111 1.476090 0
M  V30 6 N 4.991020 -1.281983 2.597910 0
M  V30 7 N 4.073162 -0.349620 2.762501 0
M  V30 8 C 3.186239 -0.449552 1.750512 0
M  V30 9 C 2.047305 0.277751 1.452097 0
M  V30 10 C 1.342302 -0.083108 0.318436 0
M  V30 11 N 0.151924 0.576983 -0.110586 0
M  V30 12 C -1.210863 0.273135 0.233958 0
M  V30 13 O -1.317845 -0.712907 1.020026 0
M  V30 14 N -2.239524 1.056075 -0.304523 0
M  V30 15 C -3.598948 0.718481 0.066380 0
M  V30 16 C -4.193703 1.926317 0.695307 0
M  V30 17 C -4.001494 3.152496 0.095812 0
M  V30 18 C -4.520079 4.312788 0.617908 0
M  V30 19 C -5.274519 4.296067 1.795325 0
M  V30 20 F -5.789478 5.435804 2.316817 0
M  V30 21 C -5.451669 3.058121 2.374289 0
M  V30 22 C -4.939010 1.885367 1.864468 0
M  V30 23 C -4.444238 0.358168 -1.134007 0
M  V30 24 C -3.967917 -0.917097 -1.792885 0
M  V30 25 C -5.219424 -1.389364 -2.502409 0
M  V30 26 C -6.311858 -0.768294 -1.687114 0
M  V30 27 O -5.725835 0.044187 -0.743553 0
M  V30 28 N 1.753946 -1.117110 -0.475929 0
M  V30 29 C 2.858556 -1.843381 -0.210946 0
M  V30 30 C 3.576460 -1.493479 0.922908 0
M  V30 31 C 5.913825 -3.290797 -0.320924 0
M  V30 32 C 6.698655 -4.387900 -0.679522 0
M  V30 33 N 7.094099 -5.277151 0.251512 0
M  V30 34 H 7.117904 -7.148749 2.147284 0
M  V30 35 H 6.388263 -6.100890 3.398340 0
M  V30 36 H 8.171479 -5.928536 3.025306 0
M  V30 37 H 5.694328 -3.943791 2.950683 0
M  V30 38 H 3.979994 0.372621 3.513493 0
M  V30 39 H 1.688155 1.101483 2.053436 0
M  V30 40 H 0.381733 1.376727 -0.759135 0
M  V30 41 H -2.025257 1.850447 -0.947637 0
M  V30 42 H -3.571763 -0.147664 0.748203 0
M  V30 43 H -3.441053 3.313443 -0.815218 0
M  V30 44 H -4.381558 5.303808 0.159538 0
M  V30 45 H -6.038548 3.000175 3.301210 0
M  V30 46 H -5.081344 0.917957 2.322978 0
M  V30 47 H -4.480015 1.143685 -1.888100 0
M  V30 48 H -3.576930 -1.653305 -1.063538 0
M  V30 49 H -3.192568 -0.752054 -2.552057 0
M  V30 50 H -5.267924 -0.992148 -3.528144 0
M  V30 51 H -5.284391 -2.497392 -2.530865 0
M  V30 52 H -7.016128 -0.173211 -2.312267 0
M  V30 53 H -6.881322 -1.611503 -1.200831 0
M  V30 54 H 3.178997 -2.659957 -0.842967 0
M  V30 55 H 5.582097 -2.557928 -1.058704 0
M  V30 56 H 6.998059 -4.531969 -1.723194 0
M  V30 END ATOM
M  V30 BEGIN BOND
M  V30 1 1 1 2
M  V30 2 2 2 3
M  V30 3 1 3 4
M  V30 4 1 4 5
M  V30 5 2 5 6
M  V30 6 1 6 7
M  V30 7 1 7 8
M  V30 8 2 8 9
M  V30 9 1 9 10
M  V30 10 1 10 11
M  V30 11 1 11 12
M  V30 12 2 12 13
M  V30 13 1 12 14
M  V30 14 1 14 15
M  V30 15 1 15 16
M  V30 16 2 16 17
M  V30 17 1 17 18
M  V30 18 2 18 19
M  V30 19 1 19 20
M  V30 20 1 19 21
M  V30 21 2 21 22
M  V30 22 1 15 23
M  V30 23 1 23 24
M  V30 24 1 24 25
M  V30 25 1 25 26
M  V30 26 1 26 27
M  V30 27 2 10 28
M  V30 28 1 28 29
M  V30 29 2 29 30
M  V30 30 2 4 31
M  V30 31 1 31 32
M  V30 32 2 32 33
M  V30 33 1 33 2
M  V30 34 1 30 5
M  V30 35 1 30 8
M  V30 36 1 22 16
M  V30 37 1 27 23
M  V30 38 1 1 34
M  V30 39 1 1 35
M  V30 40 1 1 36
M  V30 41 1 3 37
M  V30 42 1 7 38
M  V30 43 1 9 39
M  V30 44 1 11 40
M  V30 45 1 14 41
M  V30 46 1 15 42
M  V30 47 1 17 43
M  V30 48 1 18 44
M  V30 49 1 21 45
M  V30 50 1 22 46
M  V30 51 1 23 47
M  V30 52 1 24 48
M  V30 53 1 24 49
M  V30 54 1 25 50
M  V30 55 1 25 51
M  V30 56 1 26 52
M  V30 57 1 26 53
M  V30 58 1 29 54
M  V30 59 1 31 55
M  V30 60 1 32 56
M  V30 END BOND
M  V30 END CTAB
M  END
>  <Dataset>  (421) 
ChEMBL_Kinases

>  <Ligand_Instance>  (421) 
nan

>  <PDB_ID>  (421) 
nan

>  <Standardized_SMILES>  (421) 
Cc1cc(-c2n[nH]c3cc(NC(=O)NC(c4ccc(F)cc4)C4CCCO4)ncc23)ccn1

>  <Name>  (421) 
nan

>  <Pocket>  (421) 
nan

>  <ATP_Site>  (421) 
nan

>  <Peripheral>  (421) 
nan

>  <Num_H_Atoms_ProtBoundConf>  (421) 
nan

>  <Num_Resolved_Atoms>  (421) 
nan

>  <Num_Not_Resolved_Atoms>  (421) 
nan

$$$$
CHEMBL3654865
     RDKit          3D

  0  0  0  0  0  0  0  0  0  0999 V3000
M  V30 BEGIN CTAB
M  V30 COUNTS 52 55 0 0 0
M  V30 BEGIN ATOM
M  V30 1 C 4.737316 -7.078965 2.727162 0
M  V30 2 C 4.335027 -6.935076 1.308682 0
M  V30 3 C 3.398021 -5.991484 0.940339 0
M  V30 4 C 3.092076 -5.937837 -0.406384 0
M  V30 5 C 2.120037 -4.991054 -0.942810 0
M  V30 6 N 1.163525 -5.345177 -1.845782 0
M  V30 7 N 0.426889 -4.289912 -2.153986 0
M  V30 8 C 0.851982 -3.198225 -1.480281 0
M  V30 9 C 0.496864 -1.866072 -1.389003 0
M  V30 10 C 1.199609 -1.021335 -0.555386 0
M  V30 11 N 0.765004 0.337801 -0.523240 0
M  V30 12 C -0.237034 0.717637 0.439463 0
M  V30 13 O -0.753309 -0.066607 1.252566 0
M  V30 14 N -0.596464 2.104258 0.380108 0
M  V30 15 C -1.618420 2.592774 1.328685 0
M  V30 16 C -0.933216 3.534534 2.248425 0
M  V30 17 C -2.790793 3.070704 0.583228 0
M  V30 18 C -3.952172 3.605469 1.355235 0
M  V30 19 C -3.679619 4.783625 2.217608 0
M  V30 20 C -4.922077 5.647018 2.009702 0
M  V30 21 C -5.567698 5.083956 0.801469 0
M  V30 22 O -4.876653 4.001143 0.362770 0
M  V30 23 N 2.245836 -1.502182 0.179210 0
M  V30 24 C 2.621079 -2.791105 0.117362 0
M  V30 25 C 1.916415 -3.643625 -0.720180 0
M  V30 26 C 3.686378 -6.773446 -1.315729 0
M  V30 27 C 4.623630 -7.701032 -0.868717 0
M  V30 28 N 4.933499 -7.768461 0.432104 0
M  V30 29 H 5.763014 -7.537601 2.813285 0
M  V30 30 H 4.772262 -6.101098 3.237829 0
M  V30 31 H 4.024081 -7.725380 3.302657 0
M  V30 32 H 2.921129 -5.326162 1.644867 0
M  V30 33 H -0.391160 -4.212910 -2.815556 0
M  V30 34 H -0.321415 -1.523437 -1.973239 0
M  V30 35 H 1.229920 0.948694 -1.224427 0
M  V30 36 H -0.193072 2.804414 -0.283294 0
M  V30 37 H -1.907161 1.700998 1.932762 0
M  V30 38 H -1.492359 3.655993 3.173621 0
M  V30 39 H 0.018868 3.004369 2.564615 0
M  V30 40 H -0.556325 4.464563 1.778810 0
M  V30 41 H -3.195407 2.194752 -0.002960 0
M  V30 42 H -2.572586 3.820328 -0.210883 0
M  V30 43 H -4.479654 2.779154 1.890164 0
M  V30 44 H -2.785123 5.308770 1.857807 0
M  V30 45 H -3.687713 4.566476 3.308924 0
M  V30 46 H -4.634465 6.717838 1.942951 0
M  V30 47 H -5.637157 5.558939 2.851735 0
M  V30 48 H -5.579510 5.885872 0.009045 0
M  V30 49 H -6.627993 4.804450 0.972875 0
M  V30 50 H 3.453505 -3.147215 0.709447 0
M  V30 51 H 3.470319 -6.757875 -2.374367 0
M  V30 52 H 5.086608 -8.357798 -1.605596 0
M  V30 END ATOM
M  V30 BEGIN BOND
M  V30 1 1 1 2
M  V30 2 2 2 3
M  V30 3 1 3 4
M  V30 4 1 4 5
M  V30 5 2 5 6
M  V30 6 1 6 7
M  V30 7 1 7 8
M  V30 8 2 8 9
M  V30 9 1 9 10
M  V30 10 1 10 11
M  V30 11 1 11 12
M  V30 12 2 12 13
M  V30 13 1 12 14
M  V30 14 1 14 15
M  V30 15 1 15 16
M  V30 16 1 15 17
M  V30 17 1 17 18
M  V30 18 1 18 19
M  V30 19 1 19 20
M  V30 20 1 20 21
M  V30 21 1 21 22
M  V30 22 2 10 23
M  V30 23 1 23 24
M  V30 24 2 24 25
M  V30 25 2 4 26
M  V30 26 1 26 27
M  V30 27 2 27 28
M  V30 28 1 28 2
M  V30 29 1 25 5
M  V30 30 1 25 8
M  V30 31 1 22 18
M  V30 32 1 1 29
M  V30 33 1 1 30
M  V30 34 1 1 31
M  V30 35 1 3 32
M  V30 36 1 7 33
M  V30 37 1 9 34
M  V30 38 1 11 35
M  V30 39 1 14 36
M  V30 40 1 15 37
M  V30 41 1 16 38
M  V30 42 1 16 39
M  V30 43 1 16 40
M  V30 44 1 17 41
M  V30 45 1 17 42
M  V30 46 1 18 43
M  V30 47 1 19 44
M  V30 48 1 19 45
M  V30 49 1 20 46
M  V30 50 1 20 47
M  V30 51 1 21 48
M  V30 52 1 21 49
M  V30 53 1 24 50
M  V30 54 1 26 51
M  V30 55 1 27 52
M  V30 END BOND
M  V30 END CTAB
M  END
>  <Dataset>  (422) 
ChEMBL_Kinases

>  <Ligand_Instance>  (422) 
nan

>  <PDB_ID>  (422) 
nan

>  <Standardized_SMILES>  (422) 
Cc1cc(-c2n[nH]c3cc(NC(=O)NC(C)CC4CCCO4)ncc23)ccn1

>  <Name>  (422) 
nan

>  <Pocket>  (422) 
nan

>  <ATP_Site>  (422) 
nan

>  <Peripheral>  (422) 
nan

>  <Num_H_Atoms_ProtBoundConf>  (422) 
nan

>  <Num_Resolved_Atoms>  (422) 
nan

>  <Num_Not_Resolved_Atoms>  (422) 
nan

$$$$
CHEMBL3654866
     RDKit          3D

  0  0  0  0  0  0  0  0  0  0999 V3000
M  V30 BEGIN CTAB
M  V30 COUNTS 54 57 0 0 0
M  V30 BEGIN ATOM
M  V30 1 C 4.938136 -3.132802 1.102194 0
M  V30 2 O 4.350231 -3.667896 2.243634 0
M  V30 3 C 3.367163 -4.608668 1.953869 0
M  V30 4 C 2.232602 -4.057117 1.138774 0
M  V30 5 N 1.620930 -2.968715 1.912816 0
M  V30 6 C 1.367901 -1.682494 1.308183 0
M  V30 7 O 1.654849 -1.444688 0.106910 0
M  V30 8 N 0.766175 -0.774449 2.258881 0
M  V30 9 C 0.468213 0.528862 1.740784 0
M  V30 10 C 1.205057 1.692313 1.673882 0
M  V30 11 C 0.634386 2.811234 1.104590 0
M  V30 12 N 1.216842 4.013828 0.961730 0
M  V30 13 N 0.321521 4.792535 0.367431 0
M  V30 14 C -0.829988 4.099532 0.128068 0
M  V30 15 C -2.075839 4.517855 -0.500296 0
M  V30 16 C -3.258309 4.176241 0.150312 0
M  V30 17 C -4.447690 4.553987 -0.430174 0
M  V30 18 N -4.505727 5.239391 -1.600025 0
M  V30 19 C -3.372236 5.585874 -2.255811 0
M  V30 20 C -3.503307 6.324322 -3.516124 0
M  V30 21 C -2.183025 5.213879 -1.685358 0
M  V30 22 C -0.648619 2.794147 0.602769 0
M  V30 23 C -1.356290 1.627927 0.681785 0
M  V30 24 N -0.802467 0.522145 1.240803 0
M  V30 25 C 1.174749 -5.125106 1.044146 0
M  V30 26 C 1.309566 -6.478149 1.230799 0
M  V30 27 C 0.196845 -7.277965 1.086757 0
M  V30 28 C -1.039981 -6.774015 0.763871 0
M  V30 29 C -2.245833 -7.628272 0.603663 0
M  V30 30 F -3.381091 -6.817160 0.682335 0
M  V30 31 F -2.285112 -8.232791 -0.636499 0
M  V30 32 F -2.255555 -8.615840 1.565821 0
M  V30 33 C -1.141329 -5.412858 0.583145 0
M  V30 34 N -0.041432 -4.655945 0.729682 0
M  V30 35 H 5.715198 -2.398246 1.438388 0
M  V30 36 H 4.138115 -2.553368 0.572630 0
M  V30 37 H 5.381245 -3.918248 0.452862 0
M  V30 38 H 3.867748 -5.468133 1.458470 0
M  V30 39 H 3.025360 -5.006461 2.934636 0
M  V30 40 H 2.505830 -3.693146 0.150453 0
M  V30 41 H 1.405147 -3.228472 2.898703 0
M  V30 42 H 0.499122 -0.883567 3.256298 0
M  V30 43 H 2.182127 1.541893 2.105920 0
M  V30 44 H 2.177795 4.312211 1.249158 0
M  V30 45 H -3.353049 3.640636 1.077739 0
M  V30 46 H -5.399157 4.326648 0.010943 0
M  V30 47 H -2.597591 6.905352 -3.792976 0
M  V30 48 H -4.350725 7.060403 -3.495044 0
M  V30 49 H -3.702794 5.647625 -4.389765 0
M  V30 50 H -1.251534 5.478364 -2.189205 0
M  V30 51 H -2.360381 1.628374 0.281439 0
M  V30 52 H 2.307861 -6.795886 1.481756 0
M  V30 53 H 0.331265 -8.343680 1.238854 0
M  V30 54 H -2.081963 -4.914897 0.324094 0
M  V30 END ATOM
M  V30 BEGIN BOND
M  V30 1 1 1 2
M  V30 2 1 2 3
M  V30 3 1 3 4
M  V30 4 1 4 5
M  V30 5 1 5 6
M  V30 6 2 6 7
M  V30 7 1 6 8
M  V30 8 1 8 9
M  V30 9 2 9 10
M  V30 10 1 10 11
M  V30 11 1 11 12
M  V30 12 1 12 13
M  V30 13 2 13 14
M  V30 14 1 14 15
M  V30 15 2 15 16
M  V30 16 1 16 17
M  V30 17 2 17 18
M  V30 18 1 18 19
M  V30 19 1 19 20
M  V30 20 2 19 21
M  V30 21 1 14 22
M  V30 22 1 22 23
M  V30 23 2 23 24
M  V30 24 1 4 25
M  V30 25 2 25 26
M  V30 26 1 26 27
M  V30 27 2 27 28
M  V30 28 1 28 29
M  V30 29 1 29 30
M  V30 30 1 29 31
M  V30 31 1 29 32
M  V30 32 1 28 33
M  V30 33 2 33 34
M  V30 34 1 24 9
M  V30 35 1 34 25
M  V30 36 2 22 11
M  V30 37 1 21 15
M  V30 38 1 1 35
M  V30 39 1 1 36
M  V30 40 1 1 37
M  V30 41 1 3 38
M  V30 42 1 3 39
M  V30 43 1 4 40
M  V30 44 1 5 41
M  V30 45 1 8 42
M  V30 46 1 10 43
M  V30 47 1 12 44
M  V30 48 1 16 45
M  V30 49 1 17 46
M  V30 50 1 20 47
M  V30 51 1 20 48
M  V30 52 1 20 49
M  V30 53 1 21 50
M  V30 54 1 23 51
M  V30 55 1 26 52
M  V30 56 1 27 53
M  V30 57 1 33 54
M  V30 END BOND
M  V30 END CTAB
M  END
>  <Dataset>  (423) 
ChEMBL_Kinases

>  <Ligand_Instance>  (423) 
nan

>  <PDB_ID>  (423) 
nan

>  <Standardized_SMILES>  (423) 
COCC(NC(=O)Nc1cc2[nH]nc(-c3ccnc(C)c3)c2cn1)c1ccc(C(F)(F)F)cn1

>  <Name>  (423) 
nan

>  <Pocket>  (423) 
nan

>  <ATP_Site>  (423) 
nan

>  <Peripheral>  (423) 
nan

>  <Num_H_Atoms_ProtBoundConf>  (423) 
nan

>  <Num_Resolved_Atoms>  (423) 
nan

>  <Num_Not_Resolved_Atoms>  (423) 
nan

$$$$
CHEMBL3654867
     RDKit          3D

  0  0  0  0  0  0  0  0  0  0999 V3000
M  V30 BEGIN CTAB
M  V30 COUNTS 41 43 0 0 0
M  V30 BEGIN ATOM
M  V30 1 C 1.206944 -6.824761 -2.892692 0
M  V30 2 C 1.744189 -6.919692 -1.479985 0
M  V30 3 C 1.260733 -5.714349 -0.718762 0
M  V30 4 N 1.703172 -4.458249 -1.293922 0
M  V30 5 C 1.283840 -3.276872 -0.626681 0
M  V30 6 O 0.573745 -3.512688 0.388029 0
M  V30 7 N 1.645942 -1.980719 -1.083538 0
M  V30 8 C 1.172998 -0.855434 -0.341629 0
M  V30 9 C -0.051570 -0.366514 -0.759009 0
M  V30 10 C -0.576588 0.723997 -0.088427 0
M  V30 11 N -1.698819 1.471614 -0.182039 0
M  V30 12 N -1.663045 2.412024 0.750853 0
M  V30 13 C -0.522096 2.319313 1.489640 0
M  V30 14 C -0.257971 3.255047 2.583756 0
M  V30 15 C 0.997697 3.816143 2.700323 0
M  V30 16 C 1.126482 4.680846 3.768018 0
M  V30 17 N 0.159169 4.991954 4.650507 0
M  V30 18 C -1.054583 4.426189 4.507227 0
M  V30 19 C -2.217478 4.677154 5.407223 0
M  V30 20 C -1.292672 3.533183 3.456250 0
M  V30 21 C 0.165103 1.247370 0.954692 0
M  V30 22 C 1.387762 0.761920 1.374033 0
M  V30 23 N 1.876478 -0.316042 0.689202 0
M  V30 24 H 0.546310 -7.672220 -3.171457 0
M  V30 25 H 0.651736 -5.858436 -3.057467 0
M  V30 26 H 2.051413 -6.825052 -3.585735 0
M  V30 27 H 2.818853 -7.075636 -1.413903 0
M  V30 28 H 1.203464 -7.792497 -1.018428 0
M  V30 29 H 1.613700 -5.735534 0.339896 0
M  V30 30 H 0.155375 -5.689345 -0.647015 0
M  V30 31 H 2.305153 -4.379276 -2.160413 0
M  V30 32 H 2.239524 -1.965933 -1.941149 0
M  V30 33 H -0.605738 -0.798497 -1.577874 0
M  V30 34 H -2.441703 1.293360 -0.893190 0
M  V30 35 H 1.820134 3.611448 2.028259 0
M  V30 36 H 2.089723 5.177506 3.944062 0
M  V30 37 H -2.546981 3.783830 5.959293 0
M  V30 38 H -3.102293 5.057852 4.846336 0
M  V30 39 H -1.877627 5.419836 6.138978 0
M  V30 40 H -2.271713 3.057093 3.314869 0
M  V30 41 H 1.934074 1.204019 2.196951 0
M  V30 END ATOM
M  V30 BEGIN BOND
M  V30 1 1 1 2
M  V30 2 1 2 3
M  V30 3 1 3 4
M  V30 4 1 4 5
M  V30 5 2 5 6
M  V30 6 1 5 7
M  V30 7 1 7 8
M  V30 8 2 8 9
M  V30 9 1 9 10
M  V30 10 1 10 11
M  V30 11 1 11 12
M  V30 12 2 12 13
M  V30 13 1 13 14
M  V30 14 2 14 15
M  V30 15 1 15 16
M  V30 16 2 16 17
M  V30 17 1 17 18
M  V30 18 1 18 19
M  V30 19 2 18 20
M  V30 20 1 13 21
M  V30 21 1 21 22
M  V30 22 2 22 23
M  V30 23 1 23 8
M  V30 24 2 21 10
M  V30 25 1 20 14
M  V30 26 1 1 24
M  V30 27 1 1 25
M  V30 28 1 1 26
M  V30 29 1 2 27
M  V30 30 1 2 28
M  V30 31 1 3 29
M  V30 32 1 3 30
M  V30 33 1 4 31
M  V30 34 1 7 32
M  V30 35 1 9 33
M  V30 36 1 11 34
M  V30 37 1 15 35
M  V30 38 1 16 36
M  V30 39 1 19 37
M  V30 40 1 19 38
M  V30 41 1 19 39
M  V30 42 1 20 40
M  V30 43 1 22 41
M  V30 END BOND
M  V30 END CTAB
M  END
>  <Dataset>  (424) 
ChEMBL_Kinases

>  <Ligand_Instance>  (424) 
nan

>  <PDB_ID>  (424) 
nan

>  <Standardized_SMILES>  (424) 
CCCNC(=O)Nc1cc2[nH]nc(-c3ccnc(C)c3)c2cn1

>  <Name>  (424) 
nan

>  <Pocket>  (424) 
nan

>  <ATP_Site>  (424) 
nan

>  <Peripheral>  (424) 
nan

>  <Num_H_Atoms_ProtBoundConf>  (424) 
nan

>  <Num_Resolved_Atoms>  (424) 
nan

>  <Num_Not_Resolved_Atoms>  (424) 
nan

$$$$
CHEMBL3654877
     RDKit          3D

  0  0  0  0  0  0  0  0  0  0999 V3000
M  V30 BEGIN CTAB
M  V30 COUNTS 48 51 0 0 0
M  V30 BEGIN ATOM
M  V30 1 C 1.163786 -5.448980 -1.301013 0
M  V30 2 O 2.456423 -5.930883 -1.613990 0
M  V30 3 C 3.590934 -5.140129 -1.562256 0
M  V30 4 C 4.851039 -5.652818 -1.878899 0
M  V30 5 N 5.933934 -4.845700 -1.815440 0
M  V30 6 C 5.825148 -3.548768 -1.451196 0
M  V30 7 C 4.581132 -3.038609 -1.137517 0
M  V30 8 C 4.461898 -1.636485 -0.743471 0
M  V30 9 N 5.414357 -0.693619 -0.625006 0
M  V30 10 N 4.908648 0.463428 -0.242019 0
M  V30 11 C 3.558440 0.341591 -0.083201 0
M  V30 12 C 2.575928 1.235189 0.296586 0
M  V30 13 C 1.271662 0.777979 0.358682 0
M  V30 14 N 0.209939 1.644525 0.742435 0
M  V30 15 C -1.139741 1.153803 0.801887 0
M  V30 16 O -1.363436 -0.066844 0.505219 0
M  V30 17 N -2.217204 1.997909 1.181843 0
M  V30 18 C -3.587369 1.524377 1.248825 0 CFG=2
M  V30 19 C -4.439752 2.296107 0.282839 0
M  V30 20 C -4.109306 1.573915 2.643231 0
M  V30 21 C -3.944566 2.646256 3.513167 0
M  V30 22 C -4.461824 2.609506 4.791737 0
M  V30 23 C -5.158691 1.518045 5.259630 0
M  V30 24 F -5.693642 1.420716 6.510492 0
M  V30 25 C -5.352871 0.421000 4.435234 0
M  V30 26 C -4.816804 0.510568 3.172163 0
M  V30 27 N 1.014237 -0.505894 0.049870 0
M  V30 28 C 1.974452 -1.375409 -0.320276 0
M  V30 29 C 3.295278 -0.982228 -0.401947 0
M  V30 30 N 3.497829 -3.841463 -1.199771 0
M  V30 31 H 0.763901 -4.910515 -2.188282 0
M  V30 32 H 0.496173 -6.274534 -0.979114 0
M  V30 33 H 1.250715 -4.753813 -0.445896 0
M  V30 34 H 4.876420 -6.683173 -2.159610 0
M  V30 35 H 6.746638 -2.949984 -1.420869 0
M  V30 36 H 5.433689 1.352260 -0.077435 0
M  V30 37 H 2.832024 2.268262 0.538124 0
M  V30 38 H 0.413721 2.638068 0.980828 0
M  V30 39 H -1.966016 2.991947 1.413646 0
M  V30 40 H -3.551973 0.455266 0.956233 0
M  V30 41 H -5.202786 1.656755 -0.205193 0
M  V30 42 H -4.963490 3.098246 0.878192 0
M  V30 43 H -3.802115 2.779566 -0.473070 0
M  V30 44 H -3.397766 3.500866 3.143858 0
M  V30 45 H -4.326079 3.456202 5.464110 0
M  V30 46 H -5.885546 -0.481354 4.710916 0
M  V30 47 H -4.953394 -0.343386 2.493205 0
M  V30 48 H 1.680050 -2.394976 -0.552753 0
M  V30 END ATOM
M  V30 BEGIN BOND
M  V30 1 1 1 2
M  V30 2 1 2 3
M  V30 3 2 3 4
M  V30 4 1 4 5
M  V30 5 2 5 6
M  V30 6 1 6 7
M  V30 7 1 7 8
M  V30 8 2 8 9
M  V30 9 1 9 10
M  V30 10 1 10 11
M  V30 11 2 11 12
M  V30 12 1 12 13
M  V30 13 1 13 14
M  V30 14 1 14 15
M  V30 15 2 15 16
M  V30 16 1 15 17
M  V30 17 1 17 18
M  V30 18 1 18 19
M  V30 19 1 18 20
M  V30 20 2 20 21
M  V30 21 1 21 22
M  V30 22 2 22 23
M  V30 23 1 23 24
M  V30 24 1 23 25
M  V30 25 2 25 26
M  V30 26 2 13 27
M  V30 27 1 27 28
M  V30 28 2 28 29
M  V30 29 2 7 30
M  V30 30 1 30 3
M  V30 31 1 29 8
M  V30 32 1 29 11
M  V30 33 1 26 20
M  V30 34 1 1 31
M  V30 35 1 1 32
M  V30 36 1 1 33
M  V30 37 1 4 34
M  V30 38 1 6 35
M  V30 39 1 10 36
M  V30 40 1 12 37
M  V30 41 1 14 38
M  V30 42 1 17 39
M  V30 43 1 18 40 CFG=3
M  V30 44 1 19 41
M  V30 45 1 19 42
M  V30 46 1 19 43
M  V30 47 1 21 44
M  V30 48 1 22 45
M  V30 49 1 25 46
M  V30 50 1 26 47
M  V30 51 1 28 48
M  V30 END BOND
M  V30 END CTAB
M  END
>  <Dataset>  (425) 
ChEMBL_Kinases

>  <Ligand_Instance>  (425) 
nan

>  <PDB_ID>  (425) 
nan

>  <Standardized_SMILES>  (425) 
COc1cncc(-c2n[nH]c3cc(NC(=O)N[C@H](C)c4ccc(F)cc4)ncc23)n1

>  <Name>  (425) 
nan

>  <Pocket>  (425) 
nan

>  <ATP_Site>  (425) 
nan

>  <Peripheral>  (425) 
nan

>  <Num_H_Atoms_ProtBoundConf>  (425) 
nan

>  <Num_Resolved_Atoms>  (425) 
nan

>  <Num_Not_Resolved_Atoms>  (425) 
nan

$$$$
CHEMBL3654869
     RDKit          3D

  0  0  0  0  0  0  0  0  0  0999 V3000
M  V30 BEGIN CTAB
M  V30 COUNTS 45 48 0 0 0
M  V30 BEGIN ATOM
M  V30 1 C 7.560399 -2.337854 -0.101615 0
M  V30 2 C 6.673547 -3.501376 -0.325215 0
M  V30 3 N 6.891622 -4.832244 -0.130234 0
M  V30 4 O 5.817780 -5.466208 -0.464935 0
M  V30 5 C 4.886813 -4.644603 -0.874292 0
M  V30 6 C 5.392385 -3.347453 -0.803650 0
M  V30 7 C 4.559323 -2.228524 -1.209997 0
M  V30 8 N 4.736808 -1.242926 -2.101244 0
M  V30 9 N 3.686544 -0.424716 -2.141192 0
M  V30 10 C 2.743791 -0.841066 -1.257149 0
M  V30 11 C 1.495159 -0.408387 -0.869010 0
M  V30 12 C 0.809174 -1.110421 0.097797 0
M  V30 13 N -0.481055 -0.757829 0.575635 0
M  V30 14 C -1.031354 0.046692 1.581733 0
M  V30 15 O 0.024501 0.508485 2.091790 0
M  V30 16 N -2.421026 0.120922 1.741575 0
M  V30 17 C -2.973497 0.943773 2.767917 0 CFG=2
M  V30 18 C -3.582411 -0.017871 3.800501 0
M  V30 19 C -4.063216 1.840628 2.315142 0
M  V30 20 C -5.032538 1.263745 1.486584 0
M  V30 21 C -6.101860 1.989098 0.993385 0
M  V30 22 C -6.236937 3.326413 1.316304 0
M  V30 23 F -7.240470 4.124490 0.889533 0
M  V30 24 C -5.283534 3.914745 2.138047 0
M  V30 25 C -4.213315 3.175841 2.627347 0
M  V30 26 N 1.350871 -2.214960 0.664430 0
M  V30 27 C 2.588587 -2.651419 0.285403 0
M  V30 28 C 3.308939 -1.963436 -0.690525 0
M  V30 29 H 8.269157 -2.586259 0.744755 0
M  V30 30 H 8.133624 -2.112801 -1.024926 0
M  V30 31 H 6.990671 -1.457499 0.271718 0
M  V30 32 H 3.910225 -5.010650 -1.196922 0
M  V30 33 H 3.523502 0.425247 -2.725816 0
M  V30 34 H 1.053974 0.470419 -1.314845 0
M  V30 35 H -1.082236 -1.313718 -0.072547 0
M  V30 36 H -3.013146 -0.439385 1.092157 0
M  V30 37 H -2.183491 1.476311 3.317123 0
M  V30 38 H -4.006587 -0.901161 3.276606 0
M  V30 39 H -4.289700 0.492258 4.452471 0
M  V30 40 H -2.746920 -0.405753 4.413991 0
M  V30 41 H -5.012633 0.226885 1.179300 0
M  V30 42 H -6.852256 1.530866 0.348400 0
M  V30 43 H -5.248036 4.930917 2.477189 0
M  V30 44 H -3.433213 3.592535 3.280807 0
M  V30 45 H 2.950871 -3.554753 0.796620 0
M  V30 END ATOM
M  V30 BEGIN BOND
M  V30 1 1 1 2
M  V30 2 2 2 3
M  V30 3 1 3 4
M  V30 4 1 4 5
M  V30 5 2 5 6
M  V30 6 1 6 7
M  V30 7 2 7 8
M  V30 8 1 8 9
M  V30 9 1 9 10
M  V30 10 2 10 11
M  V30 11 1 11 12
M  V30 12 1 12 13
M  V30 13 1 13 14
M  V30 14 2 14 15
M  V30 15 1 14 16
M  V30 16 1 16 17
M  V30 17 1 17 18
M  V30 18 1 17 19
M  V30 19 2 19 20
M  V30 20 1 20 21
M  V30 21 2 21 22
M  V30 22 1 22 23
M  V30 23 1 22 24
M  V30 24 2 24 25
M  V30 25 2 12 26
M  V30 26 1 26 27
M  V30 27 2 27 28
M  V30 28 1 6 2
M  V30 29 1 28 7
M  V30 30 1 28 10
M  V30 31 1 25 19
M  V30 32 1 1 29
M  V30 33 1 1 30
M  V30 34 1 1 31
M  V30 35 1 5 32
M  V30 36 1 9 33
M  V30 37 1 11 34
M  V30 38 1 13 35
M  V30 39 1 16 36
M  V30 40 1 17 37 CFG=1
M  V30 41 1 18 38
M  V30 42 1 18 39
M  V30 43 1 18 40
M  V30 44 1 20 41
M  V30 45 1 21 42
M  V30 46 1 24 43
M  V30 47 1 25 44
M  V30 48 1 27 45
M  V30 END BOND
M  V30 END CTAB
M  END
>  <Dataset>  (426) 
ChEMBL_Kinases

>  <Ligand_Instance>  (426) 
nan

>  <PDB_ID>  (426) 
nan

>  <Standardized_SMILES>  (426) 
Cc1nocc1-c1n[nH]c2cc(NC(=O)N[C@H](C)c3ccc(F)cc3)ncc12

>  <Name>  (426) 
nan

>  <Pocket>  (426) 
nan

>  <ATP_Site>  (426) 
nan

>  <Peripheral>  (426) 
nan

>  <Num_H_Atoms_ProtBoundConf>  (426) 
nan

>  <Num_Resolved_Atoms>  (426) 
nan

>  <Num_Not_Resolved_Atoms>  (426) 
nan

$$$$
CHEMBL3654870
     RDKit          3D

  0  0  0  0  0  0  0  0  0  0999 V3000
M  V30 BEGIN CTAB
M  V30 COUNTS 60 64 0 0 0
M  V30 BEGIN ATOM
M  V30 1 C 4.733893 -2.727836 6.301434 0
M  V30 2 C 3.350037 -2.917872 5.715584 0 CFG=1
M  V30 3 N 3.546552 -3.061002 4.267881 0
M  V30 4 C 3.042623 -2.110771 3.335726 0
M  V30 5 O 2.409509 -1.125886 3.830203 0
M  V30 6 N 3.305436 -2.370753 1.943277 0
M  V30 7 C 2.767755 -1.372424 1.067073 0
M  V30 8 C 3.407752 -0.229791 0.639699 0
M  V30 9 C 2.694303 0.593598 -0.206733 0
M  V30 10 N 3.071963 1.757832 -0.767741 0
M  V30 11 N 2.061222 2.173633 -1.493217 0
M  V30 12 C 1.016219 1.309539 -1.427330 0
M  V30 13 C -0.269969 1.445516 -2.102157 0
M  V30 14 C -1.482708 1.215005 -1.469685 0
M  V30 15 C -2.651871 1.365765 -2.178258 0
M  V30 16 C -2.717425 1.735106 -3.493707 0
M  V30 17 N -3.910908 1.896955 -4.248408 0
M  V30 18 C -5.256981 1.676575 -3.777918 0
M  V30 19 C -6.075670 0.793167 -4.687057 0
M  V30 20 C -6.007673 1.281249 -6.101059 0
M  V30 21 C -5.231755 2.574719 -6.144677 0
M  V30 22 C -3.832846 2.321652 -5.616898 0
M  V30 23 N -1.528840 1.952279 -4.082744 0
M  V30 24 C -0.362166 1.816720 -3.428118 0
M  V30 25 C 1.406071 0.276383 -0.597211 0
M  V30 26 C 0.790464 -0.882553 -0.148441 0
M  V30 27 N 1.509553 -1.680112 0.684329 0
M  V30 28 C 2.651484 -4.081458 6.272650 0
M  V30 29 C 1.610897 -3.899075 7.171648 0
M  V30 30 C 0.912597 -4.963954 7.731216 0
M  V30 31 C 1.284201 -6.241711 7.365586 0
M  V30 32 F 0.571031 -7.228203 7.940797 0
M  V30 33 C 2.302146 -6.460285 6.484682 0
M  V30 34 C 2.982457 -5.369970 5.941456 0
M  V30 35 H 4.722283 -2.478829 7.383104 0
M  V30 36 H 5.391035 -3.577726 6.055098 0
M  V30 37 H 5.162109 -1.830304 5.764995 0
M  V30 38 H 2.769862 -1.984188 5.883819 0
M  V30 39 H 4.086675 -3.916844 3.970264 0
M  V30 40 H 3.838067 -3.211305 1.621840 0
M  V30 41 H 4.406524 -0.081444 1.003893 0
M  V30 42 H 4.002398 2.227426 -0.637389 0
M  V30 43 H -1.487636 0.919483 -0.425010 0
M  V30 44 H -3.542747 1.174995 -1.635864 0
M  V30 45 H -5.223390 1.209009 -2.749046 0
M  V30 46 H -5.737735 2.693987 -3.692551 0
M  V30 47 H -5.714238 -0.262562 -4.598751 0
M  V30 48 H -7.148111 0.787215 -4.324519 0
M  V30 49 H -5.366254 0.541656 -6.665828 0
M  V30 50 H -7.005529 1.375038 -6.576404 0
M  V30 51 H -5.717313 3.383973 -5.569333 0
M  V30 52 H -5.160156 2.956952 -7.193693 0
M  V30 53 H -3.296391 1.618709 -6.286055 0
M  V30 54 H -3.250509 3.284026 -5.630491 0
M  V30 55 H 0.527310 2.020767 -4.015593 0
M  V30 56 H -0.217546 -1.114005 -0.464957 0
M  V30 57 H 1.331935 -2.883566 7.448114 0
M  V30 58 H 0.106429 -4.697188 8.432241 0
M  V30 59 H 2.584160 -7.466521 6.205827 0
M  V30 60 H 3.796092 -5.495754 5.239275 0
M  V30 END ATOM
M  V30 BEGIN BOND
M  V30 1 1 1 2
M  V30 2 1 2 3
M  V30 3 1 3 4
M  V30 4 2 4 5
M  V30 5 1 4 6
M  V30 6 1 6 7
M  V30 7 2 7 8
M  V30 8 1 8 9
M  V30 9 1 9 10
M  V30 10 1 10 11
M  V30 11 2 11 12
M  V30 12 1 12 13
M  V30 13 2 13 14
M  V30 14 1 14 15
M  V30 15 2 15 16
M  V30 16 1 16 17
M  V30 17 1 17 18
M  V30 18 1 18 19
M  V30 19 1 19 20
M  V30 20 1 20 21
M  V30 21 1 21 22
M  V30 22 1 16 23
M  V30 23 2 23 24
M  V30 24 1 12 25
M  V30 25 1 25 26
M  V30 26 2 26 27
M  V30 27 1 2 28
M  V30 28 2 28 29
M  V30 29 1 29 30
M  V30 30 2 30 31
M  V30 31 1 31 32
M  V30 32 1 31 33
M  V30 33 2 33 34
M  V30 34 1 27 7
M  V30 35 1 34 28
M  V30 36 2 25 9
M  V30 37 1 24 13
M  V30 38 1 22 17
M  V30 39 1 1 35
M  V30 40 1 1 36
M  V30 41 1 1 37
M  V30 42 1 2 38 CFG=3
M  V30 43 1 3 39
M  V30 44 1 6 40
M  V30 45 1 8 41
M  V30 46 1 10 42
M  V30 47 1 14 43
M  V30 48 1 15 44
M  V30 49 1 18 45
M  V30 50 1 18 46
M  V30 51 1 19 47
M  V30 52 1 19 48
M  V30 53 1 20 49
M  V30 54 1 20 50
M  V30 55 1 21 51
M  V30 56 1 21 52
M  V30 57 1 22 53
M  V30 58 1 22 54
M  V30 59 1 24 55
M  V30 60 1 26 56
M  V30 61 1 29 57
M  V30 62 1 30 58
M  V30 63 1 33 59
M  V30 64 1 34 60
M  V30 END BOND
M  V30 END CTAB
M  END
>  <Dataset>  (427) 
ChEMBL_Kinases

>  <Ligand_Instance>  (427) 
nan

>  <PDB_ID>  (427) 
nan

>  <Standardized_SMILES>  (427) 
C[C@@H](NC(=O)Nc1cc2[nH]nc(-c3ccc(N4CCCCC4)nc3)c2cn1)c1ccc(F)cc1

>  <Name>  (427) 
nan

>  <Pocket>  (427) 
nan

>  <ATP_Site>  (427) 
nan

>  <Peripheral>  (427) 
nan

>  <Num_H_Atoms_ProtBoundConf>  (427) 
nan

>  <Num_Resolved_Atoms>  (427) 
nan

>  <Num_Not_Resolved_Atoms>  (427) 
nan

$$$$
CHEMBL3654871
     RDKit          3D

  0  0  0  0  0  0  0  0  0  0999 V3000
M  V30 BEGIN CTAB
M  V30 COUNTS 57 61 0 0 0
M  V30 BEGIN ATOM
M  V30 1 C 7.699255 -5.096651 2.477818 0
M  V30 2 C 6.496837 -4.287895 2.866589 0
M  V30 3 C 6.019564 -3.317940 2.015818 0
M  V30 4 C 4.905088 -2.524640 2.308454 0
M  V30 5 C 4.528243 -1.541455 1.300444 0
M  V30 6 N 5.413948 -0.730408 0.665503 0
M  V30 7 N 4.753666 0.046902 -0.190748 0
M  V30 8 C 3.446112 -0.259084 -0.111024 0
M  V30 9 C 2.375332 0.273814 -0.799282 0
M  V30 10 C 1.138306 -0.254465 -0.493976 0
M  V30 11 N -0.097197 0.141103 -1.077727 0
M  V30 12 C -0.964693 1.163952 -0.605913 0
M  V30 13 O -0.791671 1.889270 0.398918 0
M  V30 14 N -2.181308 1.473125 -1.274562 0
M  V30 15 C -2.989703 2.536377 -0.701580 0
M  V30 16 C -4.431131 2.084316 -0.802222 0
M  V30 17 N -4.570766 0.659871 -0.858104 0
M  V30 18 C -5.004387 -0.267304 0.126362 0
M  V30 19 C -5.169390 -1.617749 -0.078035 0
M  V30 20 C -5.589532 -2.433678 0.942172 0
M  V30 21 C -5.871316 -1.980438 2.213924 0
M  V30 22 F -6.282689 -2.820015 3.189002 0
M  V30 23 C -5.701123 -0.623166 2.403711 0
M  V30 24 C -5.275829 0.223790 1.383666 0
M  V30 25 C -4.146564 0.347494 -2.203442 0
M  V30 26 C -2.746612 0.855003 -2.486279 0
M  V30 27 C -2.783054 1.916317 -3.563165 0
M  V30 28 N 0.982482 -1.230196 0.419123 0
M  V30 29 C 2.010523 -1.768573 1.105697 0
M  V30 30 C 3.263276 -1.264333 0.826117 0
M  V30 31 C 4.276120 -2.754384 3.522826 0
M  V30 32 C 4.762302 -3.729272 4.369001 0
M  V30 33 N 5.849283 -4.478446 4.045534 0
M  V30 34 H 8.599335 -4.455336 2.478519 0
M  V30 35 H 7.586216 -5.458436 1.416124 0
M  V30 36 H 7.789001 -5.997220 3.111684 0
M  V30 37 H 6.547183 -3.183780 1.088205 0
M  V30 38 H 5.188472 0.752171 -0.798015 0
M  V30 39 H 2.413105 1.051612 -1.541624 0
M  V30 40 H -0.317363 -0.420034 -1.929534 0
M  V30 41 H -2.884134 3.432590 -1.347710 0
M  V30 42 H -2.721802 2.740939 0.348814 0
M  V30 43 H -4.980040 2.640663 -1.594199 0
M  V30 44 H -4.929127 2.431168 0.151342 0
M  V30 45 H -4.972306 -2.044503 -1.034986 0
M  V30 46 H -5.707091 -3.492074 0.738681 0
M  V30 47 H -5.933224 -0.292213 3.426517 0
M  V30 48 H -5.207182 1.224213 1.731457 0
M  V30 49 H -4.889580 0.683335 -2.964284 0
M  V30 50 H -4.084433 -0.753808 -2.289481 0
M  V30 51 H -2.064431 0.063895 -2.860252 0
M  V30 52 H -2.584132 1.453204 -4.573353 0
M  V30 53 H -3.755766 2.405956 -3.642625 0
M  V30 54 H -1.922042 2.627064 -3.436272 0
M  V30 55 H 1.913506 -2.553271 1.844540 0
M  V30 56 H 3.418838 -2.128270 3.723262 0
M  V30 57 H 4.235642 -3.872856 5.309662 0
M  V30 END ATOM
M  V30 BEGIN BOND
M  V30 1 1 1 2
M  V30 2 2 2 3
M  V30 3 1 3 4
M  V30 4 1 4 5
M  V30 5 2 5 6
M  V30 6 1 6 7
M  V30 7 1 7 8
M  V30 8 2 8 9
M  V30 9 1 9 10
M  V30 10 1 10 11
M  V30 11 1 11 12
M  V30 12 2 12 13
M  V30 13 1 12 14
M  V30 14 1 14 15
M  V30 15 1 15 16
M  V30 16 1 16 17
M  V30 17 1 17 18
M  V30 18 2 18 19
M  V30 19 1 19 20
M  V30 20 2 20 21
M  V30 21 1 21 22
M  V30 22 1 21 23
M  V30 23 2 23 24
M  V30 24 1 17 25
M  V30 25 1 25 26
M  V30 26 1 26 27
M  V30 27 2 10 28
M  V30 28 1 28 29
M  V30 29 2 29 30
M  V30 30 2 4 31
M  V30 31 1 31 32
M  V30 32 2 32 33
M  V30 33 1 33 2
M  V30 34 1 30 5
M  V30 35 1 30 8
M  V30 36 1 26 14
M  V30 37 1 24 18
M  V30 38 1 1 34
M  V30 39 1 1 35
M  V30 40 1 1 36
M  V30 41 1 3 37
M  V30 42 1 7 38
M  V30 43 1 9 39
M  V30 44 1 11 40
M  V30 45 1 15 41
M  V30 46 1 15 42
M  V30 47 1 16 43
M  V30 48 1 16 44
M  V30 49 1 19 45
M  V30 50 1 20 46
M  V30 51 1 23 47
M  V30 52 1 24 48
M  V30 53 1 25 49
M  V30 54 1 25 50
M  V30 55 1 26 51
M  V30 56 1 27 52
M  V30 57 1 27 53
M  V30 58 1 27 54
M  V30 59 1 29 55
M  V30 60 1 31 56
M  V30 61 1 32 57
M  V30 END BOND
M  V30 END CTAB
M  END
>  <Dataset>  (428) 
ChEMBL_Kinases

>  <Ligand_Instance>  (428) 
nan

>  <PDB_ID>  (428) 
nan

>  <Standardized_SMILES>  (428) 
Cc1cc(-c2n[nH]c3cc(NC(=O)N4CCN(c5ccc(F)cc5)CC4C)ncc23)ccn1

>  <Name>  (428) 
nan

>  <Pocket>  (428) 
nan

>  <ATP_Site>  (428) 
nan

>  <Peripheral>  (428) 
nan

>  <Num_H_Atoms_ProtBoundConf>  (428) 
nan

>  <Num_Resolved_Atoms>  (428) 
nan

>  <Num_Not_Resolved_Atoms>  (428) 
nan

$$$$
CHEMBL3654872
     RDKit          3D

  0  0  0  0  0  0  0  0  0  0999 V3000
M  V30 BEGIN CTAB
M  V30 COUNTS 48 52 0 0 0
M  V30 BEGIN ATOM
M  V30 1 C -1.525721 -4.167317 4.693854 0
M  V30 2 C -1.543857 -3.980882 3.197668 0 CFG=1
M  V30 3 N -0.225734 -3.570810 2.692433 0
M  V30 4 C -0.053131 -2.295663 2.083452 0
M  V30 5 O -0.963626 -1.414167 1.914817 0
M  V30 6 N 1.182074 -1.856430 1.585569 0
M  V30 7 C 1.434968 -0.597978 0.964289 0
M  V30 8 C 2.693120 -0.263558 0.507475 0
M  V30 9 C 2.922248 0.961058 -0.092971 0
M  V30 10 N 4.013189 1.577615 -0.634241 0
M  V30 11 N 3.644268 2.768535 -1.073232 0
M  V30 12 C 2.337210 3.007213 -0.859167 0
M  V30 13 C 1.608705 4.221396 -1.220424 0
M  V30 14 C 2.152747 5.465457 -0.960477 0
M  V30 15 C 1.541040 6.683179 -1.264736 0
M  V30 16 C 0.296024 6.593577 -1.872239 0
M  V30 17 N -0.496063 7.608181 -2.263645 0
M  V30 18 N -1.563950 7.033553 -2.782441 0
M  V30 19 C -1.427211 5.694993 -2.709544 0
M  V30 20 N -0.261183 5.386380 -2.138783 0
M  V30 21 C 0.368534 4.239160 -1.826052 0
M  V30 22 C 1.884822 1.860323 -0.238576 0
M  V30 23 C 0.634705 1.510209 0.223246 0
M  V30 24 N 0.425142 0.297259 0.813716 0
M  V30 25 C -1.950803 -5.213391 2.481227 0
M  V30 26 C -1.002500 -6.225259 2.323555 0
M  V30 27 C -1.267374 -7.407053 1.678655 0
M  V30 28 C -2.527212 -7.606060 1.162083 0
M  V30 29 F -2.863198 -8.756127 0.508240 0
M  V30 30 C -3.499643 -6.637710 1.291183 0
M  V30 31 C -3.178366 -5.471273 1.947791 0
M  V30 32 H -1.632561 -5.266410 4.875995 0
M  V30 33 H -0.587311 -3.819646 5.157991 0
M  V30 34 H -2.342068 -3.607479 5.205541 0
M  V30 35 H -2.251838 -3.146199 3.000128 0
M  V30 36 H 0.589489 -4.187932 2.766913 0
M  V30 37 H 1.972878 -2.524296 1.688598 0
M  V30 38 H 3.490542 -0.961153 0.622231 0
M  V30 39 H 4.942236 1.143174 -0.668701 0
M  V30 40 H 3.125391 5.488768 -0.485662 0
M  V30 41 H 2.059840 7.596928 -1.015598 0
M  V30 42 H -2.167925 5.005192 -3.068061 0
M  V30 43 H -0.099314 3.289996 -2.050141 0
M  V30 44 H -0.201176 2.192442 0.124744 0
M  V30 45 H 0.025073 -6.156460 2.700896 0
M  V30 46 H -0.534019 -8.191706 1.555717 0
M  V30 47 H -4.494120 -6.778869 0.890918 0
M  V30 48 H -3.940315 -4.687973 2.060492 0
M  V30 END ATOM
M  V30 BEGIN BOND
M  V30 1 1 1 2
M  V30 2 1 2 3
M  V30 3 1 3 4
M  V30 4 2 4 5
M  V30 5 1 4 6
M  V30 6 1 6 7
M  V30 7 2 7 8
M  V30 8 1 8 9
M  V30 9 1 9 10
M  V30 10 1 10 11
M  V30 11 2 11 12
M  V30 12 1 12 13
M  V30 13 1 13 14
M  V30 14 2 14 15
M  V30 15 1 15 16
M  V30 16 2 16 17
M  V30 17 1 17 18
M  V30 18 2 18 19
M  V30 19 1 19 20
M  V30 20 1 20 21
M  V30 21 1 12 22
M  V30 22 1 22 23
M  V30 23 2 23 24
M  V30 24 1 2 25
M  V30 25 2 25 26
M  V30 26 1 26 27
M  V30 27 2 27 28
M  V30 28 1 28 29
M  V30 29 1 28 30
M  V30 30 2 30 31
M  V30 31 1 24 7
M  V30 32 1 31 25
M  V30 33 2 22 9
M  V30 34 2 21 13
M  V30 35 1 20 16
M  V30 36 1 1 32
M  V30 37 1 1 33
M  V30 38 1 1 34
M  V30 39 1 2 35 CFG=1
M  V30 40 1 3 36
M  V30 41 1 6 37
M  V30 42 1 8 38
M  V30 43 1 10 39
M  V30 44 1 14 40
M  V30 45 1 15 41
M  V30 46 1 19 42
M  V30 47 1 21 43
M  V30 48 1 23 44
M  V30 49 1 26 45
M  V30 50 1 27 46
M  V30 51 1 30 47
M  V30 52 1 31 48
M  V30 END BOND
M  V30 END CTAB
M  END
>  <Dataset>  (429) 
ChEMBL_Kinases

>  <Ligand_Instance>  (429) 
nan

>  <PDB_ID>  (429) 
nan

>  <Standardized_SMILES>  (429) 
C[C@@H](NC(=O)Nc1cc2[nH]nc(-c3ccc4nncn4c3)c2cn1)c1ccc(F)cc1

>  <Name>  (429) 
nan

>  <Pocket>  (429) 
nan

>  <ATP_Site>  (429) 
nan

>  <Peripheral>  (429) 
nan

>  <Num_H_Atoms_ProtBoundConf>  (429) 
nan

>  <Num_Resolved_Atoms>  (429) 
nan

>  <Num_Not_Resolved_Atoms>  (429) 
nan

$$$$
CHEMBL3654873
     RDKit          3D

  0  0  0  0  0  0  0  0  0  0999 V3000
M  V30 BEGIN CTAB
M  V30 COUNTS 52 56 0 0 0
M  V30 BEGIN ATOM
M  V30 1 C 3.294750 -5.243657 3.623959 0
M  V30 2 C 2.323750 -4.996581 2.488853 0 CFG=1
M  V30 3 N 2.855695 -4.028815 1.524304 0
M  V30 4 C 2.135711 -2.827024 1.259021 0
M  V30 5 O 1.044651 -2.570402 1.835494 0
M  V30 6 N 2.659331 -1.897410 0.323935 0
M  V30 7 C 1.948663 -0.679695 0.042372 0
M  V30 8 C 2.441460 0.240964 -0.866312 0
M  V30 9 C 1.752942 1.417641 -1.137254 0
M  V30 10 N 1.950488 2.483842 -1.937654 0
M  V30 11 N 0.933509 3.338154 -1.785186 0
M  V30 12 C 0.068795 2.836575 -0.887376 0
M  V30 13 C -1.161157 3.507405 -0.476542 0
M  V30 14 C -1.641833 3.659435 0.809013 0
M  V30 15 C -2.830677 4.324407 1.036086 0
M  V30 16 C -3.578014 4.857400 0.004070 0
M  V30 17 N -4.804416 5.545065 0.220192 0
M  V30 18 N -5.175647 6.760567 0.578981 0
M  V30 19 C -6.531432 6.831703 0.617207 0
M  V30 20 C -6.994586 5.562364 0.253528 0
M  V30 21 N -5.884490 4.803182 0.018081 0
M  V30 22 C -3.118104 4.718552 -1.293422 0
M  V30 23 C -1.926704 4.049727 -1.496222 0
M  V30 24 C 0.566924 1.616102 -0.460326 0
M  V30 25 C 0.063670 0.705535 0.449115 0
M  V30 26 N 0.781755 -0.418456 0.667131 0
M  V30 27 C 2.021139 -6.287841 1.807865 0
M  V30 28 C 2.921740 -6.861974 0.903438 0
M  V30 29 C 2.603709 -8.062947 0.291201 0
M  V30 30 C 1.411573 -8.702507 0.559560 0
M  V30 31 F 1.055604 -9.880017 -0.015038 0
M  V30 32 C 0.501140 -8.168271 1.443245 0
M  V30 33 C 0.831860 -6.971148 2.045545 0
M  V30 34 H 4.256880 -4.672361 3.476616 0
M  V30 35 H 3.552563 -6.318271 3.722249 0
M  V30 36 H 2.826182 -4.963548 4.593013 0
M  V30 37 H 1.354024 -4.624634 2.911592 0
M  V30 38 H 3.758673 -4.281512 1.072405 0
M  V30 39 H 3.545021 -2.097876 -0.148948 0
M  V30 40 H 3.380367 0.065105 -1.390445 0
M  V30 41 H 2.805156 2.511745 -2.532398 0
M  V30 42 H -1.023384 3.226233 1.583287 0
M  V30 43 H -3.185662 4.429896 2.054082 0
M  V30 44 H -7.029664 7.755556 0.892703 0
M  V30 45 H -8.061298 5.415272 0.224498 0
M  V30 46 H -3.686512 5.127764 -2.117790 0
M  V30 47 H -1.617981 3.971900 -2.523764 0
M  V30 48 H -0.872669 0.879931 0.972484 0
M  V30 49 H 3.866551 -6.368040 0.682186 0
M  V30 50 H 3.260671 -8.552984 -0.415851 0
M  V30 51 H -0.459240 -8.575282 1.731233 0
M  V30 52 H 0.172864 -6.487316 2.749673 0
M  V30 END ATOM
M  V30 BEGIN BOND
M  V30 1 1 1 2
M  V30 2 1 2 3
M  V30 3 1 3 4
M  V30 4 2 4 5
M  V30 5 1 4 6
M  V30 6 1 6 7
M  V30 7 2 7 8
M  V30 8 1 8 9
M  V30 9 1 9 10
M  V30 10 1 10 11
M  V30 11 2 11 12
M  V30 12 1 12 13
M  V30 13 2 13 14
M  V30 14 1 14 15
M  V30 15 2 15 16
M  V30 16 1 16 17
M  V30 17 1 17 18
M  V30 18 2 18 19
M  V30 19 1 19 20
M  V30 20 2 20 21
M  V30 21 1 16 22
M  V30 22 2 22 23
M  V30 23 1 12 24
M  V30 24 1 24 25
M  V30 25 2 25 26
M  V30 26 1 2 27
M  V30 27 2 27 28
M  V30 28 1 28 29
M  V30 29 2 29 30
M  V30 30 1 30 31
M  V30 31 1 30 32
M  V30 32 2 32 33
M  V30 33 1 26 7
M  V30 34 1 33 27
M  V30 35 2 24 9
M  V30 36 1 23 13
M  V30 37 1 21 17
M  V30 38 1 1 34
M  V30 39 1 1 35
M  V30 40 1 1 36
M  V30 41 1 2 37 CFG=1
M  V30 42 1 3 38
M  V30 43 1 6 39
M  V30 44 1 8 40
M  V30 45 1 10 41
M  V30 46 1 14 42
M  V30 47 1 15 43
M  V30 48 1 19 44
M  V30 49 1 20 45
M  V30 50 1 22 46
M  V30 51 1 23 47
M  V30 52 1 25 48
M  V30 53 1 28 49
M  V30 54 1 29 50
M  V30 55 1 32 51
M  V30 56 1 33 52
M  V30 END BOND
M  V30 END CTAB
M  END
>  <Dataset>  (430) 
ChEMBL_Kinases

>  <Ligand_Instance>  (430) 
nan

>  <PDB_ID>  (430) 
nan

>  <Standardized_SMILES>  (430) 
C[C@@H](NC(=O)Nc1cc2[nH]nc(-c3ccc(-n4nccn4)cc3)c2cn1)c1ccc(F)cc1

>  <Name>  (430) 
nan

>  <Pocket>  (430) 
nan

>  <ATP_Site>  (430) 
nan

>  <Peripheral>  (430) 
nan

>  <Num_H_Atoms_ProtBoundConf>  (430) 
nan

>  <Num_Resolved_Atoms>  (430) 
nan

>  <Num_Not_Resolved_Atoms>  (430) 
nan

$$$$
CHEMBL3654874
     RDKit          3D

  0  0  0  0  0  0  0  0  0  0999 V3000
M  V30 BEGIN CTAB
M  V30 COUNTS 46 49 0 0 0
M  V30 BEGIN ATOM
M  V30 1 C 3.543212 -8.549649 1.619866 0
M  V30 2 C 3.532065 -7.389566 0.671952 0
M  V30 3 C 4.215245 -7.088031 -0.460066 0
M  V30 4 C 3.922597 -5.897998 -1.067792 0
M  V30 5 C 3.019173 -5.106303 -0.556868 0
M  V30 6 C 2.544923 -3.780411 -1.044251 0
M  V30 7 N 3.016588 -3.183047 -2.145580 0
M  V30 8 N 2.388267 -2.005562 -2.312320 0
M  V30 9 C 1.526599 -1.911554 -1.281931 0
M  V30 10 C 0.638225 -0.859124 -1.011137 0
M  V30 11 C -0.143196 -1.010980 0.119222 0
M  V30 12 N -1.108011 -0.063709 0.573349 0
M  V30 13 C -0.864569 1.020643 1.472780 0
M  V30 14 O 0.300642 1.145504 1.896016 0
M  V30 15 N -1.969996 1.824977 1.778282 0
M  V30 16 C -1.829693 2.950024 2.679141 0 CFG=2
M  V30 17 C -2.733155 2.796537 3.884056 0
M  V30 18 C -2.094978 4.204949 1.921310 0
M  V30 19 C -2.866497 5.265400 2.307832 0
M  V30 20 C -3.051210 6.377589 1.541561 0
M  V30 21 C -2.433223 6.459110 0.300582 0
M  V30 22 F -2.664342 7.597189 -0.404748 0
M  V30 23 C -1.634007 5.398898 -0.137969 0
M  V30 24 C -1.483359 4.290613 0.688307 0
M  V30 25 N -0.084679 -2.095494 0.941966 0
M  V30 26 C 0.780206 -3.119416 0.677826 0
M  V30 27 C 1.578840 -3.008077 -0.441187 0
M  V30 28 S 2.442276 -5.928384 0.868909 0
M  V30 29 H 3.211385 -8.239918 2.632306 0
M  V30 30 H 2.815602 -9.333476 1.288716 0
M  V30 31 H 4.573506 -8.944854 1.624992 0
M  V30 32 H 4.930567 -7.844807 -0.757254 0
M  V30 33 H 4.461896 -5.623816 -1.991186 0
M  V30 34 H 2.531509 -1.308146 -3.074054 0
M  V30 35 H 0.509949 0.039467 -1.590423 0
M  V30 36 H -2.031674 -0.323177 0.114857 0
M  V30 37 H -2.925946 1.646785 1.373336 0
M  V30 38 H -0.762305 2.961752 2.983261 0
M  V30 39 H -2.684074 3.674132 4.526749 0
M  V30 40 H -2.295428 1.959278 4.486382 0
M  V30 41 H -3.767068 2.558124 3.563961 0
M  V30 42 H -3.333173 5.159483 3.288968 0
M  V30 43 H -3.681792 7.171922 1.929808 0
M  V30 44 H -1.177263 5.516169 -1.112075 0
M  V30 45 H -0.838602 3.549901 0.220806 0
M  V30 46 H 0.863264 -3.999415 1.299642 0
M  V30 END ATOM
M  V30 BEGIN BOND
M  V30 1 1 1 2
M  V30 2 2 2 3
M  V30 3 1 3 4
M  V30 4 2 4 5
M  V30 5 1 5 6
M  V30 6 2 6 7
M  V30 7 1 7 8
M  V30 8 1 8 9
M  V30 9 2 9 10
M  V30 10 1 10 11
M  V30 11 1 11 12
M  V30 12 1 12 13
M  V30 13 2 13 14
M  V30 14 1 13 15
M  V30 15 1 15 16
M  V30 16 1 16 17
M  V30 17 1 16 18
M  V30 18 2 18 19
M  V30 19 1 19 20
M  V30 20 2 20 21
M  V30 21 1 21 22
M  V30 22 1 21 23
M  V30 23 2 23 24
M  V30 24 2 11 25
M  V30 25 1 25 26
M  V30 26 2 26 27
M  V30 27 1 5 28
M  V30 28 1 28 2
M  V30 29 1 27 6
M  V30 30 1 27 9
M  V30 31 1 24 18
M  V30 32 1 1 29
M  V30 33 1 1 30
M  V30 34 1 1 31
M  V30 35 1 3 32
M  V30 36 1 4 33
M  V30 37 1 8 34
M  V30 38 1 10 35
M  V30 39 1 12 36
M  V30 40 1 15 37
M  V30 41 1 16 38 CFG=1
M  V30 42 1 17 39
M  V30 43 1 17 40
M  V30 44 1 17 41
M  V30 45 1 19 42
M  V30 46 1 20 43
M  V30 47 1 23 44
M  V30 48 1 24 45
M  V30 49 1 26 46
M  V30 END BOND
M  V30 END CTAB
M  END
>  <Dataset>  (431) 
ChEMBL_Kinases

>  <Ligand_Instance>  (431) 
nan

>  <PDB_ID>  (431) 
nan

>  <Standardized_SMILES>  (431) 
Cc1ccc(-c2n[nH]c3cc(NC(=O)N[C@H](C)c4ccc(F)cc4)ncc23)s1

>  <Name>  (431) 
nan

>  <Pocket>  (431) 
nan

>  <ATP_Site>  (431) 
nan

>  <Peripheral>  (431) 
nan

>  <Num_H_Atoms_ProtBoundConf>  (431) 
nan

>  <Num_Resolved_Atoms>  (431) 
nan

>  <Num_Not_Resolved_Atoms>  (431) 
nan

$$$$
CHEMBL3654875
     RDKit          3D

  0  0  0  0  0  0  0  0  0  0999 V3000
M  V30 BEGIN CTAB
M  V30 COUNTS 54 58 0 0 0
M  V30 BEGIN ATOM
M  V30 1 C 9.646199 -4.220609 -0.614987 0
M  V30 2 C 8.423466 -4.006775 0.207347 0
M  V30 3 C 8.029254 -4.889520 1.266872 0
M  V30 4 S 6.441185 -4.031734 1.834169 0
M  V30 5 C 6.656410 -2.676731 0.524020 0
M  V30 6 C 5.619693 -1.676494 0.516559 0
M  V30 7 C 5.737668 -0.634557 -0.373401 0
M  V30 8 C 4.872677 0.419143 -0.561531 0
M  V30 9 C 3.756732 0.367818 0.285252 0
M  V30 10 C 2.744082 1.417523 0.216014 0
M  V30 11 N 2.990394 2.754364 0.184215 0
M  V30 12 N 1.845672 3.412926 0.115399 0
M  V30 13 C 0.854447 2.505761 0.101596 0
M  V30 14 C -0.518916 2.629740 0.035636 0
M  V30 15 C -1.334391 1.517434 0.032304 0
M  V30 16 N -2.752196 1.605082 -0.032386 0
M  V30 17 C -3.565021 0.412333 -0.044766 0
M  V30 18 O -2.927492 -0.671473 -0.002767 0
M  V30 19 N -4.966485 0.397787 -0.097967 0
M  V30 20 C -5.657976 -0.851913 -0.103954 0 CFG=2
M  V30 21 C -6.491991 -0.986144 -1.355103 0
M  V30 22 C -6.503886 -1.033254 1.123210 0
M  V30 23 C -6.445073 -2.251977 1.792141 0
M  V30 24 C -7.202106 -2.485179 2.935988 0
M  V30 25 C -8.013898 -1.437707 3.367076 0
M  V30 26 F -8.767836 -1.628174 4.485516 0
M  V30 27 C -8.077042 -0.222550 2.705214 0
M  V30 28 C -7.316281 -0.016837 1.573352 0
M  V30 29 N -0.766231 0.300205 0.094694 0
M  V30 30 C 0.556421 0.069979 0.161563 0
M  V30 31 C 1.361328 1.201122 0.163884 0
M  V30 32 C 3.588282 -0.671683 1.210121 0
M  V30 33 N 4.518144 -1.637171 1.283422 0
M  V30 34 N 7.680507 -2.951295 -0.075382 0
M  V30 35 H 10.410078 -4.769345 0.004193 0
M  V30 36 H 10.090848 -3.313318 -1.024245 0
M  V30 37 H 9.426620 -4.885824 -1.492960 0
M  V30 38 H 8.753042 -5.847894 1.482539 0
M  V30 39 H 6.612775 -0.604216 -1.027492 0
M  V30 40 H 5.024079 1.196615 -1.270908 0
M  V30 41 H 1.684093 4.462913 0.075836 0
M  V30 42 H -0.994515 3.606586 -0.014654 0
M  V30 43 H -3.305698 2.465522 -0.069314 0
M  V30 44 H -5.467748 1.322921 -0.131826 0
M  V30 45 H -4.878685 -1.665894 -0.145156 0
M  V30 46 H -6.385709 -1.989630 -1.814606 0
M  V30 47 H -7.580599 -0.809011 -1.126204 0
M  V30 48 H -6.219122 -0.154984 -2.031718 0
M  V30 49 H -5.790038 -3.020504 1.400354 0
M  V30 50 H -7.169683 -3.424942 3.468137 0
M  V30 51 H -8.730482 0.576563 3.078780 0
M  V30 52 H -7.332163 0.919905 1.022009 0
M  V30 53 H 1.003397 -0.911852 0.210933 0
M  V30 54 H 2.724729 -0.706508 1.861681 0
M  V30 END ATOM
M  V30 BEGIN BOND
M  V30 1 1 1 2
M  V30 2 2 2 3
M  V30 3 1 3 4
M  V30 4 1 4 5
M  V30 5 1 5 6
M  V30 6 2 6 7
M  V30 7 1 7 8
M  V30 8 2 8 9
M  V30 9 1 9 10
M  V30 10 2 10 11
M  V30 11 1 11 12
M  V30 12 1 12 13
M  V30 13 2 13 14
M  V30 14 1 14 15
M  V30 15 1 15 16
M  V30 16 1 16 17
M  V30 17 2 17 18
M  V30 18 1 17 19
M  V30 19 1 19 20
M  V30 20 1 20 21
M  V30 21 1 20 22
M  V30 22 2 22 23
M  V30 23 1 23 24
M  V30 24 2 24 25
M  V30 25 1 25 26
M  V30 26 1 25 27
M  V30 27 2 27 28
M  V30 28 2 15 29
M  V30 29 1 29 30
M  V30 30 2 30 31
M  V30 31 1 9 32
M  V30 32 2 32 33
M  V30 33 2 5 34
M  V30 34 1 34 2
M  V30 35 1 33 6
M  V30 36 1 31 10
M  V30 37 1 31 13
M  V30 38 1 28 22
M  V30 39 1 1 35
M  V30 40 1 1 36
M  V30 41 1 1 37
M  V30 42 1 3 38
M  V30 43 1 7 39
M  V30 44 1 8 40
M  V30 45 1 12 41
M  V30 46 1 14 42
M  V30 47 1 16 43
M  V30 48 1 19 44
M  V30 49 1 20 45 CFG=3
M  V30 50 1 21 46
M  V30 51 1 21 47
M  V30 52 1 21 48
M  V30 53 1 23 49
M  V30 54 1 24 50
M  V30 55 1 27 51
M  V30 56 1 28 52
M  V30 57 1 30 53
M  V30 58 1 32 54
M  V30 END BOND
M  V30 END CTAB
M  END
>  <Dataset>  (432) 
ChEMBL_Kinases

>  <Ligand_Instance>  (432) 
nan

>  <PDB_ID>  (432) 
nan

>  <Standardized_SMILES>  (432) 
Cc1csc(-c2ccc(-c3n[nH]c4cc(NC(=O)N[C@H](C)c5ccc(F)cc5)ncc34)cn2)n1

>  <Name>  (432) 
nan

>  <Pocket>  (432) 
nan

>  <ATP_Site>  (432) 
nan

>  <Peripheral>  (432) 
nan

>  <Num_H_Atoms_ProtBoundConf>  (432) 
nan

>  <Num_Resolved_Atoms>  (432) 
nan

>  <Num_Not_Resolved_Atoms>  (432) 
nan

$$$$
CHEMBL3654876
     RDKit          3D

  0  0  0  0  0  0  0  0  0  0999 V3000
M  V30 BEGIN CTAB
M  V30 COUNTS 55 58 0 0 0
M  V30 BEGIN ATOM
M  V30 1 C 5.042269 -0.377762 7.319059 0
M  V30 2 C 5.575331 -0.952464 5.998381 0
M  V30 3 C 6.935638 -1.564083 6.296383 0
M  V30 4 O 5.681800 0.103853 5.081338 0
M  V30 5 C 4.953236 0.081835 3.911527 0
M  V30 6 C 4.052412 -0.782168 3.329500 0
M  V30 7 C 3.484583 -0.499431 2.108016 0
M  V30 8 C 3.782388 0.650591 1.407557 0
M  V30 9 C 3.169558 0.917675 0.128725 0
M  V30 10 N 3.719650 1.362066 -1.025045 0
M  V30 11 N 2.835512 1.482749 -1.979743 0
M  V30 12 C 1.627146 1.120754 -1.511688 0
M  V30 13 C 0.376672 1.060601 -2.085436 0
M  V30 14 C -0.716581 0.643080 -1.359292 0
M  V30 15 N -2.057867 0.534350 -1.826426 0
M  V30 16 C -2.569175 -0.660215 -2.414670 0
M  V30 17 O -1.843925 -1.658269 -2.537937 0
M  V30 18 N -3.931101 -0.560010 -2.814170 0
M  V30 19 C -4.654256 -1.676697 -3.442314 0 CFG=2
M  V30 20 C -5.148499 -1.213652 -4.766685 0
M  V30 21 C -5.741928 -2.044986 -2.501734 0
M  V30 22 C -6.557745 -1.131035 -1.872007 0
M  V30 23 C -7.569016 -1.520182 -0.994653 0
M  V30 24 C -7.778559 -2.864763 -0.732519 0
M  V30 25 F -8.757762 -3.256175 0.117925 0
M  V30 26 C -6.983049 -3.833957 -1.341615 0
M  V30 27 C -6.015670 -3.378204 -2.186189 0
M  V30 28 N -0.517332 0.292592 -0.056443 0
M  V30 29 C 0.715777 0.355845 0.496126 0
M  V30 30 C 1.840080 0.767699 -0.191714 0
M  V30 31 C 4.685165 1.491471 2.016648 0
M  V30 32 N 5.258023 1.226511 3.228006 0
M  V30 33 H 4.114810 0.164956 7.034554 0
M  V30 34 H 5.802905 0.271112 7.774126 0
M  V30 35 H 4.807037 -1.211083 8.007780 0
M  V30 36 H 4.887060 -1.734101 5.677954 0
M  V30 37 H 7.016886 -2.506568 5.684624 0
M  V30 38 H 7.750963 -0.919419 5.970127 0
M  V30 39 H 6.963894 -1.846615 7.356169 0
M  V30 40 H 3.892153 -1.641166 3.954621 0
M  V30 41 H 2.800032 -1.242254 1.754799 0
M  V30 42 H 3.037754 1.806523 -2.943640 0
M  V30 43 H 0.188424 1.326981 -3.098512 0
M  V30 44 H -2.563249 1.441719 -1.665157 0
M  V30 45 H -4.515794 0.296487 -2.696376 0
M  V30 46 H -4.002240 -2.557880 -3.546472 0
M  V30 47 H -6.243468 -1.317590 -4.897065 0
M  V30 48 H -4.845165 -0.170357 -5.001930 0
M  V30 49 H -4.695191 -1.842862 -5.560047 0
M  V30 50 H -6.414458 -0.095024 -2.058698 0
M  V30 51 H -8.164954 -0.744654 -0.541536 0
M  V30 52 H -7.106771 -4.895131 -1.169816 0
M  V30 53 H -5.369394 -4.111027 -2.684427 0
M  V30 54 H 0.803582 0.068997 1.515710 0
M  V30 55 H 4.907491 2.400400 1.441547 0
M  V30 END ATOM
M  V30 BEGIN BOND
M  V30 1 1 1 2
M  V30 2 1 2 3
M  V30 3 1 2 4
M  V30 4 1 4 5
M  V30 5 2 5 6
M  V30 6 1 6 7
M  V30 7 2 7 8
M  V30 8 1 8 9
M  V30 9 2 9 10
M  V30 10 1 10 11
M  V30 11 1 11 12
M  V30 12 2 12 13
M  V30 13 1 13 14
M  V30 14 1 14 15
M  V30 15 1 15 16
M  V30 16 2 16 17
M  V30 17 1 16 18
M  V30 18 1 18 19
M  V30 19 1 19 20
M  V30 20 1 19 21
M  V30 21 2 21 22
M  V30 22 1 22 23
M  V30 23 2 23 24
M  V30 24 1 24 25
M  V30 25 1 24 26
M  V30 26 2 26 27
M  V30 27 2 14 28
M  V30 28 1 28 29
M  V30 29 2 29 30
M  V30 30 1 8 31
M  V30 31 2 31 32
M  V30 32 1 32 5
M  V30 33 1 30 9
M  V30 34 1 30 12
M  V30 35 1 27 21
M  V30 36 1 1 33
M  V30 37 1 1 34
M  V30 38 1 1 35
M  V30 39 1 2 36
M  V30 40 1 3 37
M  V30 41 1 3 38
M  V30 42 1 3 39
M  V30 43 1 6 40
M  V30 44 1 7 41
M  V30 45 1 11 42
M  V30 46 1 13 43
M  V30 47 1 15 44
M  V30 48 1 18 45
M  V30 49 1 19 46 CFG=3
M  V30 50 1 20 47
M  V30 51 1 20 48
M  V30 52 1 20 49
M  V30 53 1 22 50
M  V30 54 1 23 51
M  V30 55 1 26 52
M  V30 56 1 27 53
M  V30 57 1 29 54
M  V30 58 1 31 55
M  V30 END BOND
M  V30 END CTAB
M  END
>  <Dataset>  (433) 
ChEMBL_Kinases

>  <Ligand_Instance>  (433) 
nan

>  <PDB_ID>  (433) 
nan

>  <Standardized_SMILES>  (433) 
CC(C)Oc1ccc(-c2n[nH]c3cc(NC(=O)N[C@H](C)c4ccc(F)cc4)ncc23)cn1

>  <Name>  (433) 
nan

>  <Pocket>  (433) 
nan

>  <ATP_Site>  (433) 
nan

>  <Peripheral>  (433) 
nan

>  <Num_H_Atoms_ProtBoundConf>  (433) 
nan

>  <Num_Resolved_Atoms>  (433) 
nan

>  <Num_Not_Resolved_Atoms>  (433) 
nan

$$$$
CHEMBL3654868
     RDKit          3D

  0  0  0  0  0  0  0  0  0  0999 V3000
M  V30 BEGIN CTAB
M  V30 COUNTS 52 56 0 0 0
M  V30 BEGIN ATOM
M  V30 1 C 3.168286 -5.231544 3.614837 0
M  V30 2 C 2.183238 -5.001528 2.493709 0 CFG=1
M  V30 3 N 2.775683 -4.089436 1.520224 0
M  V30 4 C 2.074188 -2.883180 1.244329 0
M  V30 5 O 0.972612 -2.586299 1.809158 0
M  V30 6 N 2.593822 -1.940054 0.301080 0
M  V30 7 C 1.886778 -0.718768 0.019533 0
M  V30 8 C 2.390391 0.188796 -0.890419 0
M  V30 9 C 1.699235 1.367563 -1.156256 0
M  V30 10 N 1.963208 2.401046 -1.981691 0
M  V30 11 N 0.982356 3.295086 -1.872373 0
M  V30 12 C 0.070471 2.843849 -0.969526 0
M  V30 13 C -1.156715 3.515689 -0.553664 0
M  V30 14 C -1.624991 3.662080 0.736285 0
M  V30 15 C -2.813666 4.331821 0.943906 0
M  V30 16 C -3.537191 4.854194 -0.109689 0
M  V30 17 N -4.765562 5.546775 0.100135 0
M  V30 18 C -5.226222 6.726860 0.556861 0
M  V30 19 C -6.609590 6.655493 0.443464 0
M  V30 20 N -6.944081 5.458259 -0.068635 0
M  V30 21 N -5.809396 4.816530 -0.263261 0
M  V30 22 C -3.085379 4.719150 -1.418067 0
M  V30 23 C -1.886625 4.042706 -1.616923 0
M  V30 24 C 0.497407 1.614014 -0.491873 0
M  V30 25 C 0.019495 0.690445 0.410578 0
M  V30 26 N 0.727588 -0.444963 0.637795 0
M  V30 27 C 1.878897 -6.324052 1.898958 0
M  V30 28 C 2.755938 -7.006509 1.083306 0
M  V30 29 C 2.411236 -8.234773 0.561432 0
M  V30 30 C 1.188700 -8.827233 0.829335 0
M  V30 31 F 0.782777 -10.031536 0.351066 0
M  V30 32 C 0.274408 -8.173356 1.647225 0
M  V30 33 C 0.662048 -6.951691 2.144263 0
M  V30 34 H 3.323639 -4.332298 4.236581 0
M  V30 35 H 4.147969 -5.470576 3.135028 0
M  V30 36 H 2.807145 -6.078928 4.244755 0
M  V30 37 H 1.225749 -4.566199 2.873937 0
M  V30 38 H 3.667775 -4.334812 1.065871 0
M  V30 39 H 3.480339 -2.142449 -0.176297 0
M  V30 40 H 3.320846 0.006454 -1.410074 0
M  V30 41 H 2.801332 2.475202 -2.598715 0
M  V30 42 H -1.005062 3.227203 1.508423 0
M  V30 43 H -3.164322 4.436970 1.955840 0
M  V30 44 H -4.450620 7.408258 0.883895 0
M  V30 45 H -7.154536 7.547680 0.776809 0
M  V30 46 H -3.653199 5.128146 -2.235065 0
M  V30 47 H -1.588283 3.969237 -2.642382 0
M  V30 48 H -0.923737 0.891846 0.927016 0
M  V30 49 H 3.712132 -6.580550 0.852703 0
M  V30 50 H 3.055420 -8.817901 -0.083744 0
M  V30 51 H -0.718612 -8.540476 1.929076 0
M  V30 52 H -0.018975 -6.408782 2.784929 0
M  V30 END ATOM
M  V30 BEGIN BOND
M  V30 1 1 1 2
M  V30 2 1 2 3
M  V30 3 1 3 4
M  V30 4 2 4 5
M  V30 5 1 4 6
M  V30 6 1 6 7
M  V30 7 2 7 8
M  V30 8 1 8 9
M  V30 9 1 9 10
M  V30 10 1 10 11
M  V30 11 2 11 12
M  V30 12 1 12 13
M  V30 13 2 13 14
M  V30 14 1 14 15
M  V30 15 2 15 16
M  V30 16 1 16 17
M  V30 17 1 17 18
M  V30 18 2 18 19
M  V30 19 1 19 20
M  V30 20 2 20 21
M  V30 21 1 16 22
M  V30 22 2 22 23
M  V30 23 1 12 24
M  V30 24 1 24 25
M  V30 25 2 25 26
M  V30 26 1 2 27
M  V30 27 2 27 28
M  V30 28 1 28 29
M  V30 29 2 29 30
M  V30 30 1 30 31
M  V30 31 1 30 32
M  V30 32 2 32 33
M  V30 33 1 26 7
M  V30 34 1 33 27
M  V30 35 2 24 9
M  V30 36 1 23 13
M  V30 37 1 21 17
M  V30 38 1 1 34
M  V30 39 1 1 35
M  V30 40 1 1 36
M  V30 41 1 2 37 CFG=1
M  V30 42 1 3 38
M  V30 43 1 6 39
M  V30 44 1 8 40
M  V30 45 1 10 41
M  V30 46 1 14 42
M  V30 47 1 15 43
M  V30 48 1 18 44
M  V30 49 1 19 45
M  V30 50 1 22 46
M  V30 51 1 23 47
M  V30 52 1 25 48
M  V30 53 1 28 49
M  V30 54 1 29 50
M  V30 55 1 32 51
M  V30 56 1 33 52
M  V30 END BOND
M  V30 END CTAB
M  END
>  <Dataset>  (434) 
ChEMBL_Kinases

>  <Ligand_Instance>  (434) 
nan

>  <PDB_ID>  (434) 
nan

>  <Standardized_SMILES>  (434) 
C[C@@H](NC(=O)Nc1cc2[nH]nc(-c3ccc(-n4ccnn4)cc3)c2cn1)c1ccc(F)cc1

>  <Name>  (434) 
nan

>  <Pocket>  (434) 
nan

>  <ATP_Site>  (434) 
nan

>  <Peripheral>  (434) 
nan

>  <Num_H_Atoms_ProtBoundConf>  (434) 
nan

>  <Num_Resolved_Atoms>  (434) 
nan

>  <Num_Not_Resolved_Atoms>  (434) 
nan

$$$$
CHEMBL3691604
     RDKit          3D

  0  0  0  0  0  0  0  0  0  0999 V3000
M  V30 BEGIN CTAB
M  V30 COUNTS 84 89 0 0 0
M  V30 BEGIN ATOM
M  V30 1 C -4.017019 -2.015618 0.455529 0
M  V30 2 C -3.676405 -3.043280 -0.581090 0
M  V30 3 C -4.676623 -4.178586 -0.529369 0
M  V30 4 C -3.431278 -2.502230 -1.954632 0 CFG=1
M  V30 5 N -4.596233 -1.782770 -2.434317 0
M  V30 6 C -2.255933 -1.626764 -1.982486 0
M  V30 7 O -1.340459 -2.050448 -1.213777 0
M  V30 8 N -2.092459 -0.428894 -2.760493 0
M  V30 9 C -2.845508 0.361542 -3.709423 0
M  V30 10 C -1.825299 0.554094 -4.834434 0
M  V30 11 C -0.479086 0.284611 -4.207454 0
M  V30 12 C -0.841261 0.321897 -2.719840 0
M  V30 13 C -1.010585 1.752056 -2.329295 0
M  V30 14 N -2.393125 1.972374 -1.958559 0
M  V30 15 C -3.062056 2.395669 -0.775771 0
M  V30 16 O -4.269835 2.588401 -0.493213 0
M  V30 17 C -2.308968 2.701186 0.438655 0
M  V30 18 C -2.017665 3.784695 1.243640 0
M  V30 19 C -1.251205 3.618562 2.371252 0
M  V30 20 C -0.724563 2.394980 2.783508 0
M  V30 21 N 0.078935 2.320897 3.982026 0
M  V30 22 C 0.427754 0.954470 4.175915 0
M  V30 23 N -0.102176 -0.011149 4.970797 0
M  V30 24 C 0.388893 -1.269482 4.922422 0
M  V30 25 C 1.422376 -1.603734 4.080228 0
M  V30 26 C 2.155479 -2.754505 3.759012 0
M  V30 27 C 3.089553 -2.446086 2.792973 0
M  V30 28 C 4.041145 -3.361342 2.169876 0
M  V30 29 O 5.154957 -3.831145 2.560469 0
M  V30 30 N 3.456423 -3.690399 0.891047 0
M  V30 31 C 2.223659 -3.323021 0.178947 0
M  V30 32 C 4.200204 -4.596257 0.037358 0
M  V30 33 N 2.957310 -1.127104 2.504301 0
M  V30 34 C 3.722809 -0.384039 1.561574 0
M  V30 35 C 5.152793 -0.103431 2.014354 0
M  V30 36 C 5.624655 0.772656 0.863864 0
M  V30 37 C 4.390573 1.501261 0.376773 0
M  V30 38 C 3.235576 0.986345 1.251902 0
M  V30 39 C 1.965380 -0.624837 3.269814 0
M  V30 40 N 1.434894 0.600576 3.366798 0
M  V30 41 N -1.040461 1.389610 1.961579 0
M  V30 42 C -1.781524 1.483564 0.847309 0
M  V30 43 C -3.242047 1.661567 -3.085966 0
M  V30 44 H -3.681478 -2.407193 1.458139 0
M  V30 45 H -3.586649 -1.030964 0.309057 0
M  V30 46 H -5.140150 -1.942722 0.580038 0
M  V30 47 H -2.705017 -3.516252 -0.208642 0
M  V30 48 H -4.736442 -4.518957 0.546239 0
M  V30 49 H -5.682890 -3.871010 -0.836692 0
M  V30 50 H -4.303066 -5.060566 -1.084415 0
M  V30 51 H -3.299835 -3.362290 -2.692524 0
M  V30 52 H -5.496774 -2.192980 -2.058338 0
M  V30 53 H -4.544963 -0.777423 -2.051877 0
M  V30 54 H -3.708713 -0.181307 -4.160520 0
M  V30 55 H -1.904718 1.509301 -5.346791 0
M  V30 56 H -1.969682 -0.280411 -5.579160 0
M  V30 57 H -0.055193 -0.711837 -4.468907 0
M  V30 58 H 0.253419 1.099574 -4.396598 0
M  V30 59 H -0.053232 -0.198431 -2.122150 0
M  V30 60 H -0.807205 2.460518 -3.184344 0
M  V30 61 H -0.306350 2.079804 -1.541795 0
M  V30 62 H -2.480155 4.653620 0.810951 0
M  V30 63 H -1.090351 4.535571 2.915292 0
M  V30 64 H 0.269410 3.209626 4.483418 0
M  V30 65 H -0.031207 -2.015987 5.547938 0
M  V30 66 H 1.969003 -3.721204 4.229959 0
M  V30 67 H 1.683401 -4.215353 -0.138250 0
M  V30 68 H 2.459402 -2.708739 -0.734106 0
M  V30 69 H 1.577339 -2.714450 0.842012 0
M  V30 70 H 5.075466 -5.022750 0.561945 0
M  V30 71 H 4.598041 -4.023099 -0.818532 0
M  V30 72 H 3.590746 -5.431149 -0.360167 0
M  V30 73 H 3.765079 -0.936785 0.579190 0
M  V30 74 H 5.100432 0.442245 2.954762 0
M  V30 75 H 5.674401 -1.060071 2.064819 0
M  V30 76 H 6.092407 0.158468 0.087271 0
M  V30 77 H 6.303471 1.541568 1.299901 0
M  V30 78 H 4.474037 2.607189 0.442403 0
M  V30 79 H 4.237421 1.232677 -0.687569 0
M  V30 80 H 2.355378 0.985481 0.596026 0
M  V30 81 H 3.148565 1.655793 2.129120 0
M  V30 82 H -1.811016 0.464247 0.445583 0
M  V30 83 H -3.090259 2.526544 -3.804134 0
M  V30 84 H -4.317400 1.580648 -2.820021 0
M  V30 END ATOM
M  V30 BEGIN BOND
M  V30 1 1 1 2
M  V30 2 1 2 3
M  V30 3 1 2 4
M  V30 4 1 4 5
M  V30 5 1 4 6
M  V30 6 2 6 7
M  V30 7 1 6 8
M  V30 8 1 8 9
M  V30 9 1 9 10
M  V30 10 1 10 11
M  V30 11 1 11 12
M  V30 12 1 12 13
M  V30 13 1 13 14
M  V30 14 1 14 15
M  V30 15 2 15 16
M  V30 16 1 15 17
M  V30 17 2 17 18
M  V30 18 1 18 19
M  V30 19 2 19 20
M  V30 20 1 20 21
M  V30 21 1 21 22
M  V30 22 2 22 23
M  V30 23 1 23 24
M  V30 24 2 24 25
M  V30 25 1 25 26
M  V30 26 2 26 27
M  V30 27 1 27 28
M  V30 28 2 28 29
M  V30 29 1 28 30
M  V30 30 1 30 31
M  V30 31 1 30 32
M  V30 32 1 27 33
M  V30 33 1 33 34
M  V30 34 1 34 35
M  V30 35 1 35 36
M  V30 36 1 36 37
M  V30 37 1 37 38
M  V30 38 1 33 39
M  V30 39 2 39 40
M  V30 40 1 20 41
M  V30 41 2 41 42
M  V30 42 1 14 43
M  V30 43 1 12 8
M  V30 44 1 42 17
M  V30 45 1 43 9
M  V30 46 1 40 22
M  V30 47 1 39 25
M  V30 48 1 38 34
M  V30 49 1 1 44
M  V30 50 1 1 45
M  V30 51 1 1 46
M  V30 52 1 2 47
M  V30 53 1 3 48
M  V30 54 1 3 49
M  V30 55 1 3 50
M  V30 56 1 4 51 CFG=3
M  V30 57 1 5 52
M  V30 58 1 5 53
M  V30 59 1 9 54
M  V30 60 1 10 55
M  V30 61 1 10 56
M  V30 62 1 11 57
M  V30 63 1 11 58
M  V30 64 1 12 59
M  V30 65 1 13 60
M  V30 66 1 13 61
M  V30 67 1 18 62
M  V30 68 1 19 63
M  V30 69 1 21 64
M  V30 70 1 24 65
M  V30 71 1 26 66
M  V30 72 1 31 67
M  V30 73 1 31 68
M  V30 74 1 31 69
M  V30 75 1 32 70
M  V30 76 1 32 71
M  V30 77 1 32 72
M  V30 78 1 34 73
M  V30 79 1 35 74
M  V30 80 1 35 75
M  V30 81 1 36 76
M  V30 82 1 36 77
M  V30 83 1 37 78
M  V30 84 1 37 79
M  V30 85 1 38 80
M  V30 86 1 38 81
M  V30 87 1 42 82
M  V30 88 1 43 83
M  V30 89 1 43 84
M  V30 END BOND
M  V30 END CTAB
M  END
>  <Dataset>  (435) 
ChEMBL_Kinases

>  <Ligand_Instance>  (435) 
nan

>  <PDB_ID>  (435) 
nan

>  <Standardized_SMILES>  (435) 
CC(C)[C@@H](N)C(=O)N1C2CCC1CN(C(=O)c1ccc(Nc3ncc4cc(C(=O)N(C)C)n(C5CCCC5)c4n3)nc1)C2

>  <Name>  (435) 
nan

>  <Pocket>  (435) 
nan

>  <ATP_Site>  (435) 
nan

>  <Peripheral>  (435) 
nan

>  <Num_H_Atoms_ProtBoundConf>  (435) 
nan

>  <Num_Resolved_Atoms>  (435) 
nan

>  <Num_Not_Resolved_Atoms>  (435) 
nan

$$$$
CHEMBL3691603
     RDKit          3D

  0  0  0  0  0  0  0  0  0  0999 V3000
M  V30 BEGIN CTAB
M  V30 COUNTS 82 88 0 0 0
M  V30 BEGIN ATOM
M  V30 1 C 4.358056 -3.696699 5.076980 0
M  V30 2 N 3.999492 -2.962604 3.859572 0
M  V30 3 C 2.712591 -3.220235 3.272264 0
M  V30 4 C 5.045854 -2.069229 3.442619 0
M  V30 5 O 5.960096 -2.201046 4.272111 0
M  V30 6 C 4.677517 -1.344191 2.229497 0
M  V30 7 C 5.009317 -1.731132 0.948517 0
M  V30 8 C 4.461266 -0.758821 0.124102 0
M  V30 9 C 4.521049 -0.697481 -1.246728 0
M  V30 10 N 3.903827 0.360848 -1.842339 0
M  V30 11 C 3.281124 1.271306 -1.073178 0
M  V30 12 N 2.586533 2.435747 -1.522969 0
M  V30 13 C 1.201691 2.243102 -1.803673 0
M  V30 14 C 0.618951 1.000644 -1.639882 0
M  V30 15 C -0.721035 0.776551 -1.900917 0
M  V30 16 C -1.511332 1.819713 -2.339435 0
M  V30 17 C -2.918738 1.620002 -2.620711 0
M  V30 18 O -3.584683 1.784909 -3.686451 0
M  V30 19 N -3.721002 1.159634 -1.533504 0
M  V30 20 C -3.345480 0.858257 -0.188715 0
M  V30 21 C -3.698210 -0.533543 0.204965 0
M  V30 22 C -4.853334 -0.452887 1.222005 0
M  V30 23 C -6.100664 -0.414069 0.363300 0
M  V30 24 C -5.518448 -0.456620 -1.053132 0
M  V30 25 C -5.143256 0.892140 -1.557462 0
M  V30 26 N -4.303283 -1.228046 -0.888957 0
M  V30 27 C -4.001052 -2.330016 -1.686383 0
M  V30 28 O -4.979159 -2.428197 -2.479270 0
M  V30 29 C -3.422216 -3.499705 -2.346925 0
M  V30 30 C -2.104844 -3.230227 -3.010084 0
M  V30 31 C -2.266437 -3.469692 -4.496142 0
M  V30 32 C -3.738181 -3.655278 -4.664865 0
M  V30 33 N -4.282304 -3.975952 -3.380231 0
M  V30 34 C -0.916400 3.078417 -2.504275 0
M  V30 35 N 0.412222 3.265565 -2.236826 0
M  V30 36 N 3.255945 1.158301 0.267610 0
M  V30 37 C 3.828524 0.161500 0.953423 0
M  V30 38 N 3.964822 -0.203092 2.241971 0
M  V30 39 C 3.426373 0.534943 3.356736 0
M  V30 40 C 4.355175 1.586039 3.899272 0
M  V30 41 C 3.990323 2.813804 3.103568 0
M  V30 42 C 2.485099 2.699669 2.908499 0
M  V30 43 C 2.148147 1.245621 3.020259 0
M  V30 44 H 5.075015 -4.489794 4.837731 0
M  V30 45 H 4.840347 -3.003300 5.793763 0
M  V30 46 H 3.468820 -4.134702 5.575416 0
M  V30 47 H 2.785062 -2.958736 2.180302 0
M  V30 48 H 2.518137 -4.314653 3.352512 0
M  V30 49 H 1.931899 -2.613647 3.756186 0
M  V30 50 H 5.582912 -2.620099 0.661362 0
M  V30 51 H 5.018869 -1.426185 -1.845894 0
M  V30 52 H 2.978933 3.388728 -1.662477 0
M  V30 53 H 1.203193 0.137420 -1.292898 0
M  V30 54 H -1.128181 -0.208886 -1.757496 0
M  V30 55 H -3.809432 1.576659 0.548610 0
M  V30 56 H -2.246290 0.979778 0.005842 0
M  V30 57 H -2.861770 -1.090214 0.673632 0
M  V30 58 H -4.853803 -1.293615 1.917110 0
M  V30 59 H -4.793613 0.486415 1.795477 0
M  V30 60 H -6.667077 0.522156 0.516153 0
M  V30 61 H -6.745205 -1.292909 0.533608 0
M  V30 62 H -6.241534 -0.927776 -1.752752 0
M  V30 63 H -5.468253 0.993122 -2.612450 0
M  V30 64 H -5.626426 1.707598 -0.946728 0
M  V30 65 H -3.258696 -4.299066 -1.582842 0
M  V30 66 H -1.308649 -3.905062 -2.641550 0
M  V30 67 H -1.897688 -2.168703 -2.888525 0
M  V30 68 H -1.649260 -4.320422 -4.862747 0
M  V30 69 H -1.894096 -2.591742 -5.101406 0
M  V30 70 H -3.877372 -4.518755 -5.380677 0
M  V30 71 H -4.212534 -2.754564 -5.098753 0
M  V30 72 H -4.358809 -5.013360 -3.304310 0
M  V30 73 H -1.532070 3.896828 -2.846227 0
M  V30 74 H 3.188837 -0.163933 4.205883 0
M  V30 75 H 5.414840 1.287054 3.806266 0
M  V30 76 H 4.067442 1.800082 4.962310 0
M  V30 77 H 4.184520 3.749000 3.679053 0
M  V30 78 H 4.519765 2.831877 2.139178 0
M  V30 79 H 2.185845 3.129020 1.949117 0
M  V30 80 H 1.960676 3.281428 3.706111 0
M  V30 81 H 1.765400 0.779295 2.102075 0
M  V30 82 H 1.359930 1.096554 3.789535 0
M  V30 END ATOM
M  V30 BEGIN BOND
M  V30 1 1 1 2
M  V30 2 1 2 3
M  V30 3 1 2 4
M  V30 4 2 4 5
M  V30 5 1 4 6
M  V30 6 2 6 7
M  V30 7 1 7 8
M  V30 8 2 8 9
M  V30 9 1 9 10
M  V30 10 2 10 11
M  V30 11 1 11 12
M  V30 12 1 12 13
M  V30 13 2 13 14
M  V30 14 1 14 15
M  V30 15 2 15 16
M  V30 16 1 16 17
M  V30 17 2 17 18
M  V30 18 1 17 19
M  V30 19 1 19 20
M  V30 20 1 20 21
M  V30 21 1 21 22
M  V30 22 1 22 23
M  V30 23 1 23 24
M  V30 24 1 24 25
M  V30 25 1 24 26
M  V30 26 1 26 27
M  V30 27 2 27 28
M  V30 28 1 27 29
M  V30 29 1 29 30
M  V30 30 1 30 31
M  V30 31 1 31 32
M  V30 32 1 32 33
M  V30 33 1 16 34
M  V30 34 2 34 35
M  V30 35 1 11 36
M  V30 36 2 36 37
M  V30 37 1 37 38
M  V30 38 1 38 39
M  V30 39 1 39 40
M  V30 40 1 40 41
M  V30 41 1 41 42
M  V30 42 1 42 43
M  V30 43 1 38 6
M  V30 44 1 43 39
M  V30 45 1 37 8
M  V30 46 1 35 13
M  V30 47 1 25 19
M  V30 48 1 33 29
M  V30 49 1 26 21
M  V30 50 1 1 44
M  V30 51 1 1 45
M  V30 52 1 1 46
M  V30 53 1 3 47
M  V30 54 1 3 48
M  V30 55 1 3 49
M  V30 56 1 7 50
M  V30 57 1 9 51
M  V30 58 1 12 52
M  V30 59 1 14 53
M  V30 60 1 15 54
M  V30 61 1 20 55
M  V30 62 1 20 56
M  V30 63 1 21 57
M  V30 64 1 22 58
M  V30 65 1 22 59
M  V30 66 1 23 60
M  V30 67 1 23 61
M  V30 68 1 24 62
M  V30 69 1 25 63
M  V30 70 1 25 64
M  V30 71 1 29 65
M  V30 72 1 30 66
M  V30 73 1 30 67
M  V30 74 1 31 68
M  V30 75 1 31 69
M  V30 76 1 32 70
M  V30 77 1 32 71
M  V30 78 1 33 72
M  V30 79 1 34 73
M  V30 80 1 39 74
M  V30 81 1 40 75
M  V30 82 1 40 76
M  V30 83 1 41 77
M  V30 84 1 41 78
M  V30 85 1 42 79
M  V30 86 1 42 80
M  V30 87 1 43 81
M  V30 88 1 43 82
M  V30 END BOND
M  V30 END CTAB
M  END
>  <Dataset>  (436) 
ChEMBL_Kinases

>  <Ligand_Instance>  (436) 
nan

>  <PDB_ID>  (436) 
nan

>  <Standardized_SMILES>  (436) 
CN(C)C(=O)c1cc2cnc(Nc3ccc(C(=O)N4CC5CCC(C4)N5C(=O)C4CCCN4)cn3)nc2n1C1CCCC1

>  <Name>  (436) 
nan

>  <Pocket>  (436) 
nan

>  <ATP_Site>  (436) 
nan

>  <Peripheral>  (436) 
nan

>  <Num_H_Atoms_ProtBoundConf>  (436) 
nan

>  <Num_Resolved_Atoms>  (436) 
nan

>  <Num_Not_Resolved_Atoms>  (436) 
nan

$$$$
CHEMBL3691602
     RDKit          3D

  0  0  0  0  0  0  0  0  0  0999 V3000
M  V30 BEGIN CTAB
M  V30 COUNTS 75 80 0 0 0
M  V30 BEGIN ATOM
M  V30 1 C 6.240006 -4.010064 4.094168 0
M  V30 2 N 5.297823 -3.362438 3.179449 0
M  V30 3 C 4.176591 -2.681770 3.778032 0
M  V30 4 C 5.634466 -3.508056 1.814692 0
M  V30 5 O 6.706172 -4.191980 1.672314 0
M  V30 6 C 4.756434 -2.891113 0.824638 0
M  V30 7 C 3.966266 -3.735586 0.064349 0
M  V30 8 C 3.238970 -2.919776 -0.770554 0
M  V30 9 C 2.295741 -3.274736 -1.727890 0
M  V30 10 N 1.721950 -2.241925 -2.413843 0
M  V30 11 C 2.094829 -0.959836 -2.130606 0
M  V30 12 N 1.443268 0.052321 -2.895433 0
M  V30 13 C 0.238328 0.573285 -2.327224 0
M  V30 14 C -0.224976 0.090698 -1.097048 0
M  V30 15 C -1.400363 0.612435 -0.558040 0
M  V30 16 C -2.140420 1.593960 -1.183212 0
M  V30 17 C -3.365966 2.159320 -0.657737 0
M  V30 18 O -3.642919 3.355567 -0.395720 0
M  V30 19 N -4.529195 1.369726 -0.337405 0
M  V30 20 C -5.688851 2.050200 0.177282 0
M  V30 21 C -6.931835 1.329546 -0.315680 0
M  V30 22 C -6.828886 1.175893 -1.841204 0
M  V30 23 C -6.376707 -0.251649 -2.077282 0
M  V30 24 C -5.866748 -0.652925 -0.705437 0
M  V30 25 C -4.492184 -0.044061 -0.541101 0
M  V30 26 N -6.851325 -0.035072 0.163316 0
M  V30 27 C -7.473586 -0.784577 1.192677 0
M  V30 28 O -6.997558 -1.959670 1.136198 0
M  V30 29 C -8.489133 -0.303879 2.159040 0
M  V30 30 N -8.851051 -1.408373 3.034085 0
M  V30 31 C -1.622245 2.029519 -2.404679 0
M  V30 32 N -0.496052 1.541116 -2.938885 0
M  V30 33 N 3.010352 -0.677168 -1.197008 0
M  V30 34 C 3.624052 -1.630142 -0.475385 0
M  V30 35 N 4.567796 -1.596383 0.515181 0
M  V30 36 C 5.178163 -0.426712 1.059928 0
M  V30 37 C 6.678293 -0.618176 1.282112 0
M  V30 38 C 7.244350 -0.704300 -0.139004 0
M  V30 39 C 6.279460 0.156737 -0.937775 0
M  V30 40 C 5.286120 0.718342 0.026312 0
M  V30 41 H 6.699296 -4.900968 3.655007 0
M  V30 42 H 7.045331 -3.274005 4.307442 0
M  V30 43 H 5.742390 -4.294355 5.044651 0
M  V30 44 H 3.286947 -3.368949 3.849183 0
M  V30 45 H 3.816706 -1.805149 3.234099 0
M  V30 46 H 4.424027 -2.364351 4.805547 0
M  V30 47 H 3.886968 -4.829864 0.073054 0
M  V30 48 H 2.032011 -4.286792 -1.920206 0
M  V30 49 H 1.733586 0.458312 -3.812001 0
M  V30 50 H 0.321522 -0.691678 -0.549247 0
M  V30 51 H -1.748290 0.225150 0.395725 0
M  V30 52 H -5.673533 1.966571 1.282939 0
M  V30 53 H -5.708984 3.125193 -0.090955 0
M  V30 54 H -7.863012 1.847543 -0.034771 0
M  V30 55 H -6.144258 1.924126 -2.277249 0
M  V30 56 H -7.878893 1.259717 -2.233924 0
M  V30 57 H -7.240818 -0.928029 -2.309287 0
M  V30 58 H -5.588370 -0.320602 -2.852559 0
M  V30 59 H -5.847608 -1.752517 -0.657340 0
M  V30 60 H -4.031285 -0.518420 0.367243 0
M  V30 61 H -3.862677 -0.322950 -1.397899 0
M  V30 62 H -9.421992 0.015471 1.664453 0
M  V30 63 H -8.134566 0.563885 2.758586 0
M  V30 64 H -8.051529 -2.106918 3.039523 0
M  V30 65 H -8.968490 -1.100270 4.011249 0
M  V30 66 H -2.152471 2.797870 -2.946992 0
M  V30 67 H 4.677060 -0.003198 1.928852 0
M  V30 68 H 6.964732 -1.494761 1.830374 0
M  V30 69 H 7.116875 0.265164 1.785762 0
M  V30 70 H 7.232036 -1.755067 -0.461688 0
M  V30 71 H 8.291285 -0.353538 -0.183739 0
M  V30 72 H 6.901729 0.923509 -1.459479 0
M  V30 73 H 5.797585 -0.520344 -1.680724 0
M  V30 74 H 4.337538 1.047211 -0.363028 0
M  V30 75 H 5.755839 1.553591 0.592626 0
M  V30 END ATOM
M  V30 BEGIN BOND
M  V30 1 1 1 2
M  V30 2 1 2 3
M  V30 3 1 2 4
M  V30 4 2 4 5
M  V30 5 1 4 6
M  V30 6 2 6 7
M  V30 7 1 7 8
M  V30 8 2 8 9
M  V30 9 1 9 10
M  V30 10 2 10 11
M  V30 11 1 11 12
M  V30 12 1 12 13
M  V30 13 2 13 14
M  V30 14 1 14 15
M  V30 15 2 15 16
M  V30 16 1 16 17
M  V30 17 2 17 18
M  V30 18 1 17 19
M  V30 19 1 19 20
M  V30 20 1 20 21
M  V30 21 1 21 22
M  V30 22 1 22 23
M  V30 23 1 23 24
M  V30 24 1 24 25
M  V30 25 1 24 26
M  V30 26 1 26 27
M  V30 27 2 27 28
M  V30 28 1 27 29
M  V30 29 1 29 30
M  V30 30 1 16 31
M  V30 31 2 31 32
M  V30 32 1 11 33
M  V30 33 2 33 34
M  V30 34 1 34 35
M  V30 35 1 35 36
M  V30 36 1 36 37
M  V30 37 1 37 38
M  V30 38 1 38 39
M  V30 39 1 39 40
M  V30 40 1 35 6
M  V30 41 1 40 36
M  V30 42 1 34 8
M  V30 43 1 32 13
M  V30 44 1 25 19
M  V30 45 1 26 21
M  V30 46 1 1 41
M  V30 47 1 1 42
M  V30 48 1 1 43
M  V30 49 1 3 44
M  V30 50 1 3 45
M  V30 51 1 3 46
M  V30 52 1 7 47
M  V30 53 1 9 48
M  V30 54 1 12 49
M  V30 55 1 14 50
M  V30 56 1 15 51
M  V30 57 1 20 52
M  V30 58 1 20 53
M  V30 59 1 21 54
M  V30 60 1 22 55
M  V30 61 1 22 56
M  V30 62 1 23 57
M  V30 63 1 23 58
M  V30 64 1 24 59
M  V30 65 1 25 60
M  V30 66 1 25 61
M  V30 67 1 29 62
M  V30 68 1 29 63
M  V30 69 1 30 64
M  V30 70 1 30 65
M  V30 71 1 31 66
M  V30 72 1 36 67
M  V30 73 1 37 68
M  V30 74 1 37 69
M  V30 75 1 38 70
M  V30 76 1 38 71
M  V30 77 1 39 72
M  V30 78 1 39 73
M  V30 79 1 40 74
M  V30 80 1 40 75
M  V30 END BOND
M  V30 END CTAB
M  END
>  <Dataset>  (437) 
ChEMBL_Kinases

>  <Ligand_Instance>  (437) 
nan

>  <PDB_ID>  (437) 
nan

>  <Standardized_SMILES>  (437) 
CN(C)C(=O)c1cc2cnc(Nc3ccc(C(=O)N4CC5CCC(C4)N5C(=O)CN)cn3)nc2n1C1CCCC1

>  <Name>  (437) 
nan

>  <Pocket>  (437) 
nan

>  <ATP_Site>  (437) 
nan

>  <Peripheral>  (437) 
nan

>  <Num_H_Atoms_ProtBoundConf>  (437) 
nan

>  <Num_Resolved_Atoms>  (437) 
nan

>  <Num_Not_Resolved_Atoms>  (437) 
nan

$$$$
CHEMBL3691601
     RDKit          3D

  0  0  0  0  0  0  0  0  0  0999 V3000
M  V30 BEGIN CTAB
M  V30 COUNTS 85 90 0 0 0
M  V30 BEGIN ATOM
M  V30 1 C -2.611846 -4.770961 0.106503 0
M  V30 2 S -1.201447 -4.463801 -0.956192 0
M  V30 3 C -1.780029 -3.818160 -2.530494 0
M  V30 4 C -2.410323 -2.435958 -2.368936 0
M  V30 5 C -2.862642 -1.971343 -3.716275 0 CFG=1
M  V30 6 N -3.843748 -2.931722 -4.219582 0
M  V30 7 C -3.502394 -0.660736 -3.733624 0
M  V30 8 O -4.672508 -0.385132 -4.104951 0
M  V30 9 N -3.112250 0.659978 -3.384771 0
M  V30 10 C -4.019285 1.779342 -3.533598 0
M  V30 11 C -3.157033 2.769735 -4.303004 0
M  V30 12 C -1.717397 2.359895 -3.963977 0
M  V30 13 C -1.907878 1.318145 -2.847898 0
M  V30 14 C -2.157242 2.041053 -1.572597 0
M  V30 15 N -3.534903 2.040193 -1.131186 0
M  V30 16 C -4.106818 1.815753 0.167346 0
M  V30 17 O -5.335097 1.826479 0.498401 0
M  V30 18 C -3.385129 1.528042 1.381051 0
M  V30 19 C -3.457427 2.207796 2.585705 0
M  V30 20 C -2.712618 1.851537 3.688825 0
M  V30 21 C -1.847390 0.754854 3.580864 0
M  V30 22 N -1.044432 0.353496 4.711165 0
M  V30 23 C -0.199677 -0.775436 4.500753 0
M  V30 24 N -0.367139 -2.085809 4.781589 0
M  V30 25 C 0.610189 -2.956701 4.455313 0
M  V30 26 C 1.786436 -2.576265 3.842069 0
M  V30 27 C 2.922940 -3.224876 3.402464 0
M  V30 28 C 3.712596 -2.223273 2.873418 0
M  V30 29 C 5.001079 -2.602419 2.314005 0
M  V30 30 O 6.179847 -2.834462 2.746420 0
M  V30 31 N 4.985213 -2.774499 0.873220 0
M  V30 32 C 3.807833 -2.598697 0.015879 0
M  V30 33 C 6.081317 -3.142013 -0.000027 0
M  V30 34 N 3.145268 -1.008880 2.955386 0
M  V30 35 C 3.575961 0.271794 2.549030 0
M  V30 36 C 5.027326 0.572029 2.565247 0
M  V30 37 C 5.405761 0.970514 1.145386 0
M  V30 38 C 4.123982 1.438692 0.496126 0
M  V30 39 C 3.001651 0.734303 1.226438 0
M  V30 40 C 1.941329 -1.238224 3.562589 0
M  V30 41 N 0.938906 -0.379124 3.902998 0
M  V30 42 N -1.800586 0.116868 2.398777 0
M  V30 43 C -2.521502 0.454228 1.316730 0
M  V30 44 C -4.471575 2.316134 -2.201690 0
M  V30 45 H -2.970694 -5.814245 -0.121162 0
M  V30 46 H -3.443686 -4.084668 -0.150148 0
M  V30 47 H -2.401147 -4.730572 1.178346 0
M  V30 48 H -2.590882 -4.474234 -2.884711 0
M  V30 49 H -0.964198 -3.768639 -3.284858 0
M  V30 50 H -1.666563 -1.744911 -1.934507 0
M  V30 51 H -3.283809 -2.509515 -1.709419 0
M  V30 52 H -1.963535 -1.988933 -4.393541 0
M  V30 53 H -4.709212 -2.481709 -4.536289 0
M  V30 54 H -3.426499 -3.609223 -4.891003 0
M  V30 55 H -4.921495 1.524220 -4.147014 0
M  V30 56 H -3.321875 2.563934 -5.381007 0
M  V30 57 H -3.361842 3.819878 -4.024221 0
M  V30 58 H -1.107719 3.206778 -3.641196 0
M  V30 59 H -1.290001 1.775255 -4.804856 0
M  V30 60 H -1.056765 0.642756 -2.759642 0
M  V30 61 H -1.512461 1.678623 -0.744993 0
M  V30 62 H -1.882316 3.128224 -1.688633 0
M  V30 63 H -4.158079 3.058980 2.590559 0
M  V30 64 H -2.802468 2.414328 4.614601 0
M  V30 65 H -1.127236 0.893171 5.578118 0
M  V30 66 H 0.435498 -3.988047 4.696548 0
M  V30 67 H 3.055503 -4.274197 3.499041 0
M  V30 68 H 3.882037 -1.748458 -0.664614 0
M  V30 69 H 3.604707 -3.541213 -0.535652 0
M  V30 70 H 2.890920 -2.437177 0.636327 0
M  V30 71 H 6.215078 -2.381935 -0.799720 0
M  V30 72 H 7.028700 -3.264843 0.595456 0
M  V30 73 H 5.802291 -4.090038 -0.538078 0
M  V30 74 H 3.130429 1.015615 3.290265 0
M  V30 75 H 5.305350 1.496362 3.166404 0
M  V30 76 H 5.686481 -0.199975 2.996787 0
M  V30 77 H 6.204098 1.710346 1.092477 0
M  V30 78 H 5.714747 0.051095 0.608540 0
M  V30 79 H 4.072464 1.249562 -0.587783 0
M  V30 80 H 4.071956 2.543296 0.630500 0
M  V30 81 H 2.194415 1.488304 1.329955 0
M  V30 82 H 2.539109 -0.072651 0.630166 0
M  V30 83 H -2.307749 -0.214051 0.485168 0
M  V30 84 H -4.544126 3.437747 -2.241549 0
M  V30 85 H -5.470340 1.945039 -1.966813 0
M  V30 END ATOM
M  V30 BEGIN BOND
M  V30 1 1 1 2
M  V30 2 1 2 3
M  V30 3 1 3 4
M  V30 4 1 4 5
M  V30 5 1 5 6
M  V30 6 1 5 7
M  V30 7 2 7 8
M  V30 8 1 7 9
M  V30 9 1 9 10
M  V30 10 1 10 11
M  V30 11 1 11 12
M  V30 12 1 12 13
M  V30 13 1 13 14
M  V30 14 1 14 15
M  V30 15 1 15 16
M  V30 16 2 16 17
M  V30 17 1 16 18
M  V30 18 2 18 19
M  V30 19 1 19 20
M  V30 20 2 20 21
M  V30 21 1 21 22
M  V30 22 1 22 23
M  V30 23 2 23 24
M  V30 24 1 24 25
M  V30 25 2 25 26
M  V30 26 1 26 27
M  V30 27 2 27 28
M  V30 28 1 28 29
M  V30 29 2 29 30
M  V30 30 1 29 31
M  V30 31 1 31 32
M  V30 32 1 31 33
M  V30 33 1 28 34
M  V30 34 1 34 35
M  V30 35 1 35 36
M  V30 36 1 36 37
M  V30 37 1 37 38
M  V30 38 1 38 39
M  V30 39 1 34 40
M  V30 40 2 40 41
M  V30 41 1 21 42
M  V30 42 2 42 43
M  V30 43 1 15 44
M  V30 44 1 13 9
M  V30 45 1 43 18
M  V30 46 1 44 10
M  V30 47 1 41 23
M  V30 48 1 40 26
M  V30 49 1 39 35
M  V30 50 1 1 45
M  V30 51 1 1 46
M  V30 52 1 1 47
M  V30 53 1 3 48
M  V30 54 1 3 49
M  V30 55 1 4 50
M  V30 56 1 4 51
M  V30 57 1 5 52 CFG=3
M  V30 58 1 6 53
M  V30 59 1 6 54
M  V30 60 1 10 55
M  V30 61 1 11 56
M  V30 62 1 11 57
M  V30 63 1 12 58
M  V30 64 1 12 59
M  V30 65 1 13 60
M  V30 66 1 14 61
M  V30 67 1 14 62
M  V30 68 1 19 63
M  V30 69 1 20 64
M  V30 70 1 22 65
M  V30 71 1 25 66
M  V30 72 1 27 67
M  V30 73 1 32 68
M  V30 74 1 32 69
M  V30 75 1 32 70
M  V30 76 1 33 71
M  V30 77 1 33 72
M  V30 78 1 33 73
M  V30 79 1 35 74
M  V30 80 1 36 75
M  V30 81 1 36 76
M  V30 82 1 37 77
M  V30 83 1 37 78
M  V30 84 1 38 79
M  V30 85 1 38 80
M  V30 86 1 39 81
M  V30 87 1 39 82
M  V30 88 1 43 83
M  V30 89 1 44 84
M  V30 90 1 44 85
M  V30 END BOND
M  V30 END CTAB
M  END
>  <Dataset>  (438) 
ChEMBL_Kinases

>  <Ligand_Instance>  (438) 
nan

>  <PDB_ID>  (438) 
nan

>  <Standardized_SMILES>  (438) 
CSCC[C@@H](N)C(=O)N1C2CCC1CN(C(=O)c1ccc(Nc3ncc4cc(C(=O)N(C)C)n(C5CCCC5)c4n3)nc1)C2

>  <Name>  (438) 
nan

>  <Pocket>  (438) 
nan

>  <ATP_Site>  (438) 
nan

>  <Peripheral>  (438) 
nan

>  <Num_H_Atoms_ProtBoundConf>  (438) 
nan

>  <Num_Resolved_Atoms>  (438) 
nan

>  <Num_Not_Resolved_Atoms>  (438) 
nan

$$$$
CHEMBL3691600
     RDKit          3D

  0  0  0  0  0  0  0  0  0  0999 V3000
M  V30 BEGIN CTAB
M  V30 COUNTS 67 71 0 0 0
M  V30 BEGIN ATOM
M  V30 1 C 5.142226 -3.236742 4.305330 0
M  V30 2 N 4.623277 -2.979663 2.986230 0
M  V30 3 C 4.360360 -3.996842 1.998359 0
M  V30 4 C 4.458347 -1.556607 2.961841 0
M  V30 5 O 4.816631 -1.091090 4.074963 0
M  V30 6 C 3.975222 -0.633899 1.919171 0
M  V30 7 C 4.823043 0.005905 1.028586 0
M  V30 8 C 4.034966 0.804745 0.189133 0
M  V30 9 C 4.357272 1.653997 -0.865852 0
M  V30 10 N 3.346822 2.309394 -1.494384 0
M  V30 11 C 2.085806 2.133783 -1.100304 0
M  V30 12 N 1.069519 2.885045 -1.800576 0
M  V30 13 C -0.305817 2.634222 -1.565380 0
M  V30 14 C -1.358480 3.322746 -2.118061 0
M  V30 15 C -2.679193 3.027338 -1.889576 0
M  V30 16 C -2.989797 1.973536 -1.053371 0
M  V30 17 C -4.197913 1.351434 -0.555202 0
M  V30 18 O -5.061614 1.749876 0.271372 0
M  V30 19 N -4.452777 0.050259 -1.095292 0
M  V30 20 C -5.576279 -0.827622 -0.743906 0
M  V30 21 C -5.093796 -2.146825 -0.182996 0
M  V30 22 C -5.475491 -3.235149 -1.157746 0
M  V30 23 C -4.418923 -3.064636 -2.231294 0
M  V30 24 C -3.399307 -2.086219 -1.637220 0
M  V30 25 C -3.710238 -0.668385 -2.090464 0
M  V30 26 N -3.629259 -2.242957 -0.220489 0
M  V30 27 C -1.909124 1.274783 -0.490923 0
M  V30 28 N -0.640971 1.626121 -0.763872 0
M  V30 29 N 1.769067 1.311434 -0.077673 0
M  V30 30 C 2.736111 0.619694 0.600918 0
M  V30 31 N 2.719910 -0.242432 1.636476 0
M  V30 32 C 1.581709 -0.715463 2.390776 0
M  V30 33 C 1.448156 -2.227736 2.379837 0
M  V30 34 C 0.307844 -0.224912 1.734394 0
M  V30 35 C 1.551897 -0.145822 3.789636 0
M  V30 36 H 5.312363 -4.317959 4.480174 0
M  V30 37 H 4.457389 -2.907021 5.101034 0
M  V30 38 H 6.108704 -2.728820 4.490635 0
M  V30 39 H 5.094763 -4.811593 2.147506 0
M  V30 40 H 3.347588 -4.442092 2.229717 0
M  V30 41 H 4.388145 -3.590510 0.963538 0
M  V30 42 H 5.920064 -0.061257 0.943181 0
M  V30 43 H 5.411222 1.730153 -1.113887 0
M  V30 44 H 1.311217 3.611724 -2.473259 0
M  V30 45 H -1.157685 4.137738 -2.762631 0
M  V30 46 H -3.568495 3.487457 -2.258660 0
M  V30 47 H -6.317176 -0.918017 -1.526310 0
M  V30 48 H -6.064405 -0.305954 0.133230 0
M  V30 49 H -5.398289 -2.349635 0.841796 0
M  V30 50 H -6.499782 -3.019874 -1.527896 0
M  V30 51 H -5.413480 -4.234537 -0.676752 0
M  V30 52 H -3.958518 -4.061815 -2.418511 0
M  V30 53 H -4.839719 -2.663344 -3.175993 0
M  V30 54 H -2.415877 -2.441609 -1.968506 0
M  V30 55 H -2.756368 -0.173604 -2.268847 0
M  V30 56 H -4.307635 -0.795148 -3.043947 0
M  V30 57 H -3.425097 -3.246753 -0.008945 0
M  V30 58 H -1.975605 0.411239 0.187709 0
M  V30 59 H 0.373292 -2.545222 2.486669 0
M  V30 60 H 1.790990 -2.681621 1.457993 0
M  V30 61 H 1.917799 -2.583211 3.315457 0
M  V30 62 H -0.534282 -0.579831 2.395140 0
M  V30 63 H 0.112299 -0.690237 0.753658 0
M  V30 64 H 0.236736 0.865805 1.754508 0
M  V30 65 H 2.468268 0.389435 4.056740 0
M  V30 66 H 0.724495 0.578215 3.937002 0
M  V30 67 H 1.358633 -0.973628 4.520793 0
M  V30 END ATOM
M  V30 BEGIN BOND
M  V30 1 1 1 2
M  V30 2 1 2 3
M  V30 3 1 2 4
M  V30 4 2 4 5
M  V30 5 1 4 6
M  V30 6 2 6 7
M  V30 7 1 7 8
M  V30 8 2 8 9
M  V30 9 1 9 10
M  V30 10 2 10 11
M  V30 11 1 11 12
M  V30 12 1 12 13
M  V30 13 2 13 14
M  V30 14 1 14 15
M  V30 15 2 15 16
M  V30 16 1 16 17
M  V30 17 2 17 18
M  V30 18 1 17 19
M  V30 19 1 19 20
M  V30 20 1 20 21
M  V30 21 1 21 22
M  V30 22 1 22 23
M  V30 23 1 23 24
M  V30 24 1 24 25
M  V30 25 1 24 26
M  V30 26 1 16 27
M  V30 27 2 27 28
M  V30 28 1 11 29
M  V30 29 2 29 30
M  V30 30 1 30 31
M  V30 31 1 31 32
M  V30 32 1 32 33
M  V30 33 1 32 34
M  V30 34 1 32 35
M  V30 35 1 31 6
M  V30 36 1 30 8
M  V30 37 1 28 13
M  V30 38 1 25 19
M  V30 39 1 26 21
M  V30 40 1 1 36
M  V30 41 1 1 37
M  V30 42 1 1 38
M  V30 43 1 3 39
M  V30 44 1 3 40
M  V30 45 1 3 41
M  V30 46 1 7 42
M  V30 47 1 9 43
M  V30 48 1 12 44
M  V30 49 1 14 45
M  V30 50 1 15 46
M  V30 51 1 20 47
M  V30 52 1 20 48
M  V30 53 1 21 49
M  V30 54 1 22 50
M  V30 55 1 22 51
M  V30 56 1 23 52
M  V30 57 1 23 53
M  V30 58 1 24 54
M  V30 59 1 25 55
M  V30 60 1 25 56
M  V30 61 1 26 57
M  V30 62 1 27 58
M  V30 63 1 33 59
M  V30 64 1 33 60
M  V30 65 1 33 61
M  V30 66 1 34 62
M  V30 67 1 34 63
M  V30 68 1 34 64
M  V30 69 1 35 65
M  V30 70 1 35 66
M  V30 71 1 35 67
M  V30 END BOND
M  V30 END CTAB
M  END
>  <Dataset>  (439) 
ChEMBL_Kinases

>  <Ligand_Instance>  (439) 
nan

>  <PDB_ID>  (439) 
nan

>  <Standardized_SMILES>  (439) 
CN(C)C(=O)c1cc2cnc(Nc3ccc(C(=O)N4CC5CCC(C4)N5)cn3)nc2n1C(C)(C)C

>  <Name>  (439) 
nan

>  <Pocket>  (439) 
nan

>  <ATP_Site>  (439) 
nan

>  <Peripheral>  (439) 
nan

>  <Num_H_Atoms_ProtBoundConf>  (439) 
nan

>  <Num_Resolved_Atoms>  (439) 
nan

>  <Num_Not_Resolved_Atoms>  (439) 
nan

$$$$
CHEMBL3691599
     RDKit          3D

  0  0  0  0  0  0  0  0  0  0999 V3000
M  V30 BEGIN CTAB
M  V30 COUNTS 82 87 0 0 0
M  V30 BEGIN ATOM
M  V30 1 C 2.816663 -4.238522 2.255329 0
M  V30 2 N 3.901969 -4.261959 1.260392 0
M  V30 3 C 4.263306 -5.608596 0.832577 0
M  V30 4 C 4.537571 -3.060295 0.767020 0
M  V30 5 O 5.459389 -3.283903 -0.086097 0
M  V30 6 C 4.027269 -1.814472 1.318772 0
M  V30 7 C 4.531663 -1.318860 2.530338 0
M  V30 8 C 3.819579 -0.151018 2.711805 0
M  V30 9 C 3.945677 0.734764 3.788066 0
M  V30 10 N 3.146245 1.816154 3.758882 0
M  V30 11 C 2.297010 1.998606 2.747353 0
M  V30 12 N 1.365135 3.059161 2.541480 0
M  V30 13 C -0.031101 2.862542 2.711093 0
M  V30 14 C -0.590452 1.654259 3.066437 0
M  V30 15 C -1.947616 1.413816 3.229580 0
M  V30 16 C -2.792242 2.491882 3.012905 0
M  V30 17 C -4.212590 2.189320 3.186870 0
M  V30 18 O -4.434445 1.857774 4.397687 0
M  V30 19 N -5.195055 2.256693 2.150041 0
M  V30 20 C -5.196492 2.594152 0.759431 0
M  V30 21 C -5.858214 1.537215 -0.104300 0
M  V30 22 C -5.161978 0.220127 0.144681 0
M  V30 23 C -5.728219 -0.201381 1.482011 0
M  V30 24 C -6.931896 0.697587 1.675180 0
M  V30 25 C -6.548094 1.892107 2.547415 0
M  V30 26 N -7.211571 1.256662 0.361797 0
M  V30 27 C -2.239056 3.715669 2.655205 0
M  V30 28 N -0.912404 3.856745 2.519901 0
M  V30 29 N 2.178150 1.161076 1.729542 0
M  V30 30 C 2.944963 0.030523 1.663926 0
M  V30 31 N 3.086297 -1.017023 0.802863 0
M  V30 32 C 2.265823 -1.044759 -0.354940 0
M  V30 33 C 2.305009 -2.375196 -1.109366 0
M  V30 34 C 1.236751 -2.299467 -2.211881 0
M  V30 35 N 1.540699 -1.249399 -3.147270 0
M  V30 36 C 1.460354 -1.722809 -4.483311 0
M  V30 37 C 0.034184 -2.208285 -4.722885 0
M  V30 38 C 2.347345 -2.913574 -4.760676 0
M  V30 39 C 1.771325 -0.685944 -5.513037 0
M  V30 40 C 2.724592 -0.538756 -2.782994 0
M  V30 41 C 2.501013 0.009867 -1.373541 0
M  V30 42 H 1.849933 -4.224515 1.712985 0
M  V30 43 H 2.932371 -3.360720 2.927217 0
M  V30 44 H 2.840814 -5.132778 2.887701 0
M  V30 45 H 4.912156 -5.626958 -0.059046 0
M  V30 46 H 4.702479 -6.166638 1.682259 0
M  V30 47 H 3.309887 -6.127907 0.548190 0
M  V30 48 H 5.285191 -1.746177 3.151421 0
M  V30 49 H 4.641590 0.563247 4.594663 0
M  V30 50 H 1.693575 4.007049 2.259820 0
M  V30 51 H 0.122060 0.829707 3.227126 0
M  V30 52 H -2.315245 0.430566 3.512334 0
M  V30 53 H -5.799229 3.532732 0.575717 0
M  V30 54 H -4.179786 2.807956 0.398415 0
M  V30 55 H -5.833591 1.817342 -1.161171 0
M  V30 56 H -5.464178 -0.470946 -0.665865 0
M  V30 57 H -4.054692 0.325229 0.193785 0
M  V30 58 H -4.935371 0.021443 2.244602 0
M  V30 59 H -5.968076 -1.271469 1.518788 0
M  V30 60 H -7.790065 0.146731 2.065603 0
M  V30 61 H -6.656400 1.668782 3.608880 0
M  V30 62 H -7.222319 2.724561 2.267756 0
M  V30 63 H -7.594766 0.504278 -0.252405 0
M  V30 64 H -2.960233 4.508728 2.505084 0
M  V30 65 H 1.197867 -0.955353 0.021580 0
M  V30 66 H 3.280828 -2.608503 -1.529227 0
M  V30 67 H 1.959633 -3.192164 -0.448277 0
M  V30 68 H 1.151339 -3.298949 -2.664120 0
M  V30 69 H 0.294405 -2.015154 -1.681218 0
M  V30 70 H -0.660049 -1.533837 -4.179801 0
M  V30 71 H -0.085019 -3.272824 -4.433283 0
M  V30 72 H -0.235280 -2.158617 -5.815715 0
M  V30 73 H 1.790991 -3.857238 -4.512769 0
M  V30 74 H 3.345238 -2.854075 -4.292613 0
M  V30 75 H 2.493480 -2.962733 -5.860234 0
M  V30 76 H 1.029979 0.105739 -5.615076 0
M  V30 77 H 2.779240 -0.219606 -5.342185 0
M  V30 78 H 1.866833 -1.139979 -6.539525 0
M  V30 79 H 2.860187 0.398711 -3.400571 0
M  V30 80 H 3.660765 -1.100044 -2.827518 0
M  V30 81 H 3.344370 0.689286 -1.138504 0
M  V30 82 H 1.586153 0.643454 -1.469364 0
M  V30 END ATOM
M  V30 BEGIN BOND
M  V30 1 1 1 2
M  V30 2 1 2 3
M  V30 3 1 2 4
M  V30 4 2 4 5
M  V30 5 1 4 6
M  V30 6 2 6 7
M  V30 7 1 7 8
M  V30 8 2 8 9
M  V30 9 1 9 10
M  V30 10 2 10 11
M  V30 11 1 11 12
M  V30 12 1 12 13
M  V30 13 2 13 14
M  V30 14 1 14 15
M  V30 15 2 15 16
M  V30 16 1 16 17
M  V30 17 2 17 18
M  V30 18 1 17 19
M  V30 19 1 19 20
M  V30 20 1 20 21
M  V30 21 1 21 22
M  V30 22 1 22 23
M  V30 23 1 23 24
M  V30 24 1 24 25
M  V30 25 1 24 26
M  V30 26 1 16 27
M  V30 27 2 27 28
M  V30 28 1 11 29
M  V30 29 2 29 30
M  V30 30 1 30 31
M  V30 31 1 31 32
M  V30 32 1 32 33
M  V30 33 1 33 34
M  V30 34 1 34 35
M  V30 35 1 35 36
M  V30 36 1 36 37
M  V30 37 1 36 38
M  V30 38 1 36 39
M  V30 39 1 35 40
M  V30 40 1 40 41
M  V30 41 1 31 6
M  V30 42 1 41 32
M  V30 43 1 30 8
M  V30 44 1 28 13
M  V30 45 1 25 19
M  V30 46 1 26 21
M  V30 47 1 1 42
M  V30 48 1 1 43
M  V30 49 1 1 44
M  V30 50 1 3 45
M  V30 51 1 3 46
M  V30 52 1 3 47
M  V30 53 1 7 48
M  V30 54 1 9 49
M  V30 55 1 12 50
M  V30 56 1 14 51
M  V30 57 1 15 52
M  V30 58 1 20 53
M  V30 59 1 20 54
M  V30 60 1 21 55
M  V30 61 1 22 56
M  V30 62 1 22 57
M  V30 63 1 23 58
M  V30 64 1 23 59
M  V30 65 1 24 60
M  V30 66 1 25 61
M  V30 67 1 25 62
M  V30 68 1 26 63
M  V30 69 1 27 64
M  V30 70 1 32 65
M  V30 71 1 33 66
M  V30 72 1 33 67
M  V30 73 1 34 68
M  V30 74 1 34 69
M  V30 75 1 37 70
M  V30 76 1 37 71
M  V30 77 1 37 72
M  V30 78 1 38 73
M  V30 79 1 38 74
M  V30 80 1 38 75
M  V30 81 1 39 76
M  V30 82 1 39 77
M  V30 83 1 39 78
M  V30 84 1 40 79
M  V30 85 1 40 80
M  V30 86 1 41 81
M  V30 87 1 41 82
M  V30 END BOND
M  V30 END CTAB
M  END
>  <Dataset>  (440) 
ChEMBL_Kinases

>  <Ligand_Instance>  (440) 
nan

>  <PDB_ID>  (440) 
nan

>  <Standardized_SMILES>  (440) 
CN(C)C(=O)c1cc2cnc(Nc3ccc(C(=O)N4CC5CCC(C4)N5)cn3)nc2n1C1CCN(C(C)(C)C)CC1

>  <Name>  (440) 
nan

>  <Pocket>  (440) 
nan

>  <ATP_Site>  (440) 
nan

>  <Peripheral>  (440) 
nan

>  <Num_H_Atoms_ProtBoundConf>  (440) 
nan

>  <Num_Resolved_Atoms>  (440) 
nan

>  <Num_Not_Resolved_Atoms>  (440) 
nan

$$$$
CHEMBL3691598
     RDKit          3D

  0  0  0  0  0  0  0  0  0  0999 V3000
M  V30 BEGIN CTAB
M  V30 COUNTS 77 83 0 0 0
M  V30 BEGIN ATOM
M  V30 1 C 4.786896 -1.998762 4.177628 0
M  V30 2 N 3.868617 -1.547138 3.126273 0
M  V30 3 C 2.504199 -1.494940 3.621583 0
M  V30 4 C 4.369238 -1.215335 1.813254 0
M  V30 5 O 5.612246 -1.362780 1.729577 0
M  V30 6 C 3.302655 -0.798837 0.921418 0
M  V30 7 C 2.774442 -1.707630 -0.004850 0
M  V30 8 C 1.786666 -1.021709 -0.659837 0
M  V30 9 C 0.978935 -1.558036 -1.672908 0
M  V30 10 N 0.044660 -0.692388 -2.170335 0
M  V30 11 C -0.043991 0.584993 -1.676751 0
M  V30 12 N -1.126913 1.203864 -2.361336 0
M  V30 13 C -2.375707 0.858756 -1.717943 0
M  V30 14 C -2.389549 0.036224 -0.575155 0
M  V30 15 C -3.627820 -0.293150 0.010650 0
M  V30 16 C -4.866547 0.166034 -0.497221 0
M  V30 17 C -5.978234 -0.329776 0.294436 0
M  V30 18 O -6.086910 0.612167 1.143718 0
M  V30 19 N -6.402045 -1.588035 -0.233386 0
M  V30 20 C -5.892023 -2.327956 -1.391578 0
M  V30 21 C -5.410915 -3.665082 -0.866658 0
M  V30 22 C -6.411822 -4.724651 -1.257870 0
M  V30 23 C -7.357028 -4.771883 -0.087603 0
M  V30 24 C -6.898095 -3.657990 0.849734 0
M  V30 25 C -7.493469 -2.313001 0.438944 0
M  V30 26 N -5.450948 -3.710675 0.581712 0
M  V30 27 C -4.722197 0.952935 -1.604472 0
M  V30 28 N -3.563899 1.284889 -2.184644 0
M  V30 29 N 0.758275 1.043968 -0.707660 0
M  V30 30 C 1.719706 0.254115 -0.149037 0
M  V30 31 N 2.652286 0.377613 0.814897 0
M  V30 32 C 2.786433 1.621453 1.486944 0
M  V30 33 C 2.782693 2.755551 0.445506 0
M  V30 34 C 3.843082 2.529995 -0.584314 0
M  V30 35 N 4.805744 1.556218 -0.065968 0
M  V30 36 C 6.001682 1.512660 -0.870037 0
M  V30 37 C 6.017360 1.211968 -2.302746 0
M  V30 38 C 6.311631 0.087645 -1.348906 0
M  V30 39 C 5.209894 1.952604 1.288903 0
M  V30 40 C 4.071375 1.829116 2.252285 0
M  V30 41 H 4.365767 -2.795492 4.801356 0
M  V30 42 H 4.952898 -1.131746 4.867787 0
M  V30 43 H 5.758034 -2.335356 3.780765 0
M  V30 44 H 2.263432 -2.419750 4.163480 0
M  V30 45 H 1.791934 -1.391985 2.783424 0
M  V30 46 H 2.396451 -0.647941 4.353657 0
M  V30 47 H 3.101510 -2.733650 -0.149104 0
M  V30 48 H 1.085099 -2.574216 -2.029807 0
M  V30 49 H -1.208513 1.833372 -3.192959 0
M  V30 50 H -1.492179 -0.344963 -0.135816 0
M  V30 51 H -3.542520 -0.941192 0.903009 0
M  V30 52 H -6.773596 -2.445982 -2.050594 0
M  V30 53 H -5.119262 -1.772308 -1.945168 0
M  V30 54 H -4.376053 -3.910935 -1.214662 0
M  V30 55 H -5.925368 -5.702822 -1.476564 0
M  V30 56 H -6.969981 -4.347277 -2.148792 0
M  V30 57 H -8.416702 -4.730990 -0.341323 0
M  V30 58 H -7.113341 -5.724052 0.470526 0
M  V30 59 H -7.127287 -3.870073 1.908369 0
M  V30 60 H -8.245868 -2.519643 -0.337848 0
M  V30 61 H -7.878230 -1.756669 1.318500 0
M  V30 62 H -5.052189 -2.825065 0.995550 0
M  V30 63 H -5.719850 1.274267 -1.944372 0
M  V30 64 H 1.912326 1.852313 2.156344 0
M  V30 65 H 1.788752 2.995657 0.074231 0
M  V30 66 H 3.095632 3.658242 1.054902 0
M  V30 67 H 4.370782 3.473385 -0.850213 0
M  V30 68 H 3.458152 2.085693 -1.545719 0
M  V30 69 H 6.900461 2.027330 -0.436417 0
M  V30 70 H 6.890309 1.614540 -2.882083 0
M  V30 71 H 5.081014 1.194360 -2.909263 0
M  V30 72 H 5.507228 -0.676726 -1.304898 0
M  V30 73 H 7.342736 -0.291322 -1.212949 0
M  V30 74 H 6.054852 1.292473 1.564893 0
M  V30 75 H 5.606957 3.014139 1.214932 0
M  V30 76 H 3.960500 2.863833 2.721613 0
M  V30 77 H 4.247251 1.144545 3.074640 0
M  V30 END ATOM
M  V30 BEGIN BOND
M  V30 1 1 1 2
M  V30 2 1 2 3
M  V30 3 1 2 4
M  V30 4 2 4 5
M  V30 5 1 4 6
M  V30 6 2 6 7
M  V30 7 1 7 8
M  V30 8 2 8 9
M  V30 9 1 9 10
M  V30 10 2 10 11
M  V30 11 1 11 12
M  V30 12 1 12 13
M  V30 13 2 13 14
M  V30 14 1 14 15
M  V30 15 2 15 16
M  V30 16 1 16 17
M  V30 17 2 17 18
M  V30 18 1 17 19
M  V30 19 1 19 20
M  V30 20 1 20 21
M  V30 21 1 21 22
M  V30 22 1 22 23
M  V30 23 1 23 24
M  V30 24 1 24 25
M  V30 25 1 24 26
M  V30 26 1 16 27
M  V30 27 2 27 28
M  V30 28 1 11 29
M  V30 29 2 29 30
M  V30 30 1 30 31
M  V30 31 1 31 32
M  V30 32 1 32 33
M  V30 33 1 33 34
M  V30 34 1 34 35
M  V30 35 1 35 36
M  V30 36 1 36 37
M  V30 37 1 37 38
M  V30 38 1 35 39
M  V30 39 1 39 40
M  V30 40 1 31 6
M  V30 41 1 40 32
M  V30 42 1 30 8
M  V30 43 1 38 36
M  V30 44 1 28 13
M  V30 45 1 25 19
M  V30 46 1 26 21
M  V30 47 1 1 41
M  V30 48 1 1 42
M  V30 49 1 1 43
M  V30 50 1 3 44
M  V30 51 1 3 45
M  V30 52 1 3 46
M  V30 53 1 7 47
M  V30 54 1 9 48
M  V30 55 1 12 49
M  V30 56 1 14 50
M  V30 57 1 15 51
M  V30 58 1 20 52
M  V30 59 1 20 53
M  V30 60 1 21 54
M  V30 61 1 22 55
M  V30 62 1 22 56
M  V30 63 1 23 57
M  V30 64 1 23 58
M  V30 65 1 24 59
M  V30 66 1 25 60
M  V30 67 1 25 61
M  V30 68 1 26 62
M  V30 69 1 27 63
M  V30 70 1 32 64
M  V30 71 1 33 65
M  V30 72 1 33 66
M  V30 73 1 34 67
M  V30 74 1 34 68
M  V30 75 1 36 69
M  V30 76 1 37 70
M  V30 77 1 37 71
M  V30 78 1 38 72
M  V30 79 1 38 73
M  V30 80 1 39 74
M  V30 81 1 39 75
M  V30 82 1 40 76
M  V30 83 1 40 77
M  V30 END BOND
M  V30 END CTAB
M  END
>  <Dataset>  (441) 
ChEMBL_Kinases

>  <Ligand_Instance>  (441) 
nan

>  <PDB_ID>  (441) 
nan

>  <Standardized_SMILES>  (441) 
CN(C)C(=O)c1cc2cnc(Nc3ccc(C(=O)N4CC5CCC(C4)N5)cn3)nc2n1C1CCN(C2CC2)CC1

>  <Name>  (441) 
nan

>  <Pocket>  (441) 
nan

>  <ATP_Site>  (441) 
nan

>  <Peripheral>  (441) 
nan

>  <Num_H_Atoms_ProtBoundConf>  (441) 
nan

>  <Num_Resolved_Atoms>  (441) 
nan

>  <Num_Not_Resolved_Atoms>  (441) 
nan

$$$$
CHEMBL3691597
     RDKit          3D

  0  0  0  0  0  0  0  0  0  0999 V3000
M  V30 BEGIN CTAB
M  V30 COUNTS 65 70 0 0 0
M  V30 BEGIN ATOM
M  V30 1 C 6.016378 -2.121865 -3.040998 0
M  V30 2 N 5.208172 -1.295357 -2.173853 0
M  V30 3 C 5.079377 -1.640223 -0.759089 0
M  V30 4 C 4.562638 -0.168596 -2.722990 0
M  V30 5 O 4.912209 -0.203153 -3.952132 0
M  V30 6 C 3.717477 0.755029 -1.977527 0
M  V30 7 C 4.072096 2.086038 -1.843441 0
M  V30 8 C 3.063513 2.645588 -1.086162 0
M  V30 9 C 2.927961 3.948179 -0.659902 0
M  V30 10 N 1.841220 4.230764 0.076481 0
M  V30 11 C 0.921107 3.298324 0.390024 0
M  V30 12 N -0.193929 3.690213 1.178615 0
M  V30 13 C -1.175144 2.750609 1.601425 0
M  V30 14 C -2.266342 3.100714 2.362971 0
M  V30 15 C -3.254280 2.218691 2.815390 0
M  V30 16 C -3.023550 0.909715 2.408916 0
M  V30 17 C -3.986742 -0.098225 2.826636 0
M  V30 18 O -5.194289 0.285121 2.712002 0
M  V30 19 N -4.039056 -1.420964 3.340316 0
M  V30 20 C -5.381802 -1.914110 3.571887 0
M  V30 21 C -5.472141 -3.357497 3.058501 0
M  V30 22 C -5.018111 -3.412591 1.615968 0
M  V30 23 C -3.548795 -3.706462 1.669333 0
M  V30 24 C -3.231716 -3.704615 3.134109 0
M  V30 25 C -2.941374 -2.314215 3.656324 0
M  V30 26 N -4.473707 -4.145129 3.736642 0
M  V30 27 C -1.948486 0.520999 1.649020 0
M  V30 28 N -1.034195 1.447604 1.253115 0
M  V30 29 N 1.108549 2.048436 -0.053993 0
M  V30 30 C 2.149353 1.629411 -0.798098 0
M  V30 31 N 2.544302 0.458259 -1.344372 0
M  V30 32 C 1.828163 -0.757838 -1.227820 0
M  V30 33 C 1.814016 -1.544072 -2.511590 0
M  V30 34 C 0.365510 -1.088296 -2.759198 0
M  V30 35 C 0.328952 -0.695711 -1.319168 0
M  V30 36 H 6.859384 -2.533368 -2.412175 0
M  V30 37 H 6.490795 -1.543308 -3.855613 0
M  V30 38 H 5.497706 -3.028712 -3.407823 0
M  V30 39 H 4.278151 -2.369177 -0.562262 0
M  V30 40 H 6.010019 -2.108145 -0.362827 0
M  V30 41 H 4.979413 -0.685238 -0.177116 0
M  V30 42 H 4.925949 2.590011 -2.226583 0
M  V30 43 H 3.673863 4.683023 -0.919829 0
M  V30 44 H -0.331486 4.666290 1.470753 0
M  V30 45 H -2.352816 4.151998 2.626269 0
M  V30 46 H -4.095051 2.534675 3.413536 0
M  V30 47 H -6.157546 -1.363160 2.999364 0
M  V30 48 H -5.654454 -1.871108 4.650698 0
M  V30 49 H -6.475799 -3.765813 3.225772 0
M  V30 50 H -5.213094 -2.485857 1.047389 0
M  V30 51 H -5.601843 -4.259494 1.160523 0
M  V30 52 H -3.360093 -4.758806 1.305092 0
M  V30 53 H -2.941242 -2.978179 1.070424 0
M  V30 54 H -2.412157 -4.401270 3.311062 0
M  V30 55 H -2.789976 -2.301371 4.738049 0
M  V30 56 H -1.996307 -1.990972 3.170150 0
M  V30 57 H -4.665390 -5.157431 3.571082 0
M  V30 58 H -1.758156 -0.488151 1.326823 0
M  V30 59 H 2.125841 -1.356443 -0.319577 0
M  V30 60 H 2.443059 -1.192748 -3.336485 0
M  V30 61 H 1.829526 -2.656195 -2.345169 0
M  V30 62 H -0.275217 -1.920198 -3.086306 0
M  V30 63 H 0.304765 -0.254454 -3.489876 0
M  V30 64 H -0.131808 0.284251 -1.093142 0
M  V30 65 H -0.164434 -1.483232 -0.714752 0
M  V30 END ATOM
M  V30 BEGIN BOND
M  V30 1 1 1 2
M  V30 2 1 2 3
M  V30 3 1 2 4
M  V30 4 2 4 5
M  V30 5 1 4 6
M  V30 6 2 6 7
M  V30 7 1 7 8
M  V30 8 2 8 9
M  V30 9 1 9 10
M  V30 10 2 10 11
M  V30 11 1 11 12
M  V30 12 1 12 13
M  V30 13 2 13 14
M  V30 14 1 14 15
M  V30 15 2 15 16
M  V30 16 1 16 17
M  V30 17 2 17 18
M  V30 18 1 17 19
M  V30 19 1 19 20
M  V30 20 1 20 21
M  V30 21 1 21 22
M  V30 22 1 22 23
M  V30 23 1 23 24
M  V30 24 1 24 25
M  V30 25 1 24 26
M  V30 26 1 16 27
M  V30 27 2 27 28
M  V30 28 1 11 29
M  V30 29 2 29 30
M  V30 30 1 30 31
M  V30 31 1 31 32
M  V30 32 1 32 33
M  V30 33 1 33 34
M  V30 34 1 34 35
M  V30 35 1 31 6
M  V30 36 1 35 32
M  V30 37 1 30 8
M  V30 38 1 28 13
M  V30 39 1 25 19
M  V30 40 1 26 21
M  V30 41 1 1 36
M  V30 42 1 1 37
M  V30 43 1 1 38
M  V30 44 1 3 39
M  V30 45 1 3 40
M  V30 46 1 3 41
M  V30 47 1 7 42
M  V30 48 1 9 43
M  V30 49 1 12 44
M  V30 50 1 14 45
M  V30 51 1 15 46
M  V30 52 1 20 47
M  V30 53 1 20 48
M  V30 54 1 21 49
M  V30 55 1 22 50
M  V30 56 1 22 51
M  V30 57 1 23 52
M  V30 58 1 23 53
M  V30 59 1 24 54
M  V30 60 1 25 55
M  V30 61 1 25 56
M  V30 62 1 26 57
M  V30 63 1 27 58
M  V30 64 1 32 59
M  V30 65 1 33 60
M  V30 66 1 33 61
M  V30 67 1 34 62
M  V30 68 1 34 63
M  V30 69 1 35 64
M  V30 70 1 35 65
M  V30 END BOND
M  V30 END CTAB
M  END
>  <Dataset>  (442) 
ChEMBL_Kinases

>  <Ligand_Instance>  (442) 
nan

>  <PDB_ID>  (442) 
nan

>  <Standardized_SMILES>  (442) 
CN(C)C(=O)c1cc2cnc(Nc3ccc(C(=O)N4CC5CCC(C4)N5)cn3)nc2n1C1CCC1

>  <Name>  (442) 
nan

>  <Pocket>  (442) 
nan

>  <ATP_Site>  (442) 
nan

>  <Peripheral>  (442) 
nan

>  <Num_H_Atoms_ProtBoundConf>  (442) 
nan

>  <Num_Resolved_Atoms>  (442) 
nan

>  <Num_Not_Resolved_Atoms>  (442) 
nan

$$$$
CHEMBL3691595
     RDKit          3D

  0  0  0  0  0  0  0  0  0  0999 V3000
M  V30 BEGIN CTAB
M  V30 COUNTS 77 82 0 0 0
M  V30 BEGIN ATOM
M  V30 1 C 6.547321 -3.004419 2.538766 0
M  V30 2 N 5.154886 -2.842813 2.171412 0
M  V30 3 C 4.154056 -2.957222 3.221026 0
M  V30 4 C 4.898169 -2.578591 0.777354 0
M  V30 5 O 5.983400 -2.539884 0.147849 0
M  V30 6 C 3.630345 -2.379006 0.130548 0
M  V30 7 C 2.799273 -3.479078 -0.086315 0
M  V30 8 C 1.658428 -3.020815 -0.711723 0
M  V30 9 C 0.506652 -3.581298 -1.172477 0
M  V30 10 N -0.411721 -2.766170 -1.749696 0
M  V30 11 C -0.262667 -1.449488 -1.896497 0
M  V30 12 N -1.384097 -0.878393 -2.540242 0
M  V30 13 C -2.573152 -0.536921 -1.829065 0
M  V30 14 C -3.655137 0.023888 -2.480664 0
M  V30 15 C -4.808612 0.335920 -1.784349 0
M  V30 16 C -4.823119 0.063957 -0.433127 0
M  V30 17 C -5.923787 0.289329 0.491816 0
M  V30 18 O -6.517874 1.251346 1.101157 0
M  V30 19 N -6.587825 -0.925499 0.870929 0
M  V30 20 C -6.233313 -2.253007 0.401488 0
M  V30 21 C -7.387668 -2.882370 -0.342517 0
M  V30 22 C -7.883141 -4.132169 0.356345 0
M  V30 23 C -8.510142 -3.508704 1.608203 0
M  V30 24 C -8.756640 -2.057391 1.201887 0
M  V30 25 C -7.725962 -1.134250 1.767770 0
M  V30 26 N -8.582178 -2.050841 -0.261257 0
M  V30 27 C -3.738893 -0.498028 0.225108 0
M  V30 28 N -2.609868 -0.797052 -0.488031 0
M  V30 29 N 0.892119 -0.922073 -1.428919 0
M  V30 30 C 1.835393 -1.684751 -0.848723 0
M  V30 31 N 3.013817 -1.285583 -0.348408 0
M  V30 32 C 3.669092 -0.026861 -0.249270 0
M  V30 33 C 4.073902 0.491418 0.968638 0
M  V30 34 C 4.718351 1.714251 1.026341 0
M  V30 35 C 4.958818 2.421160 -0.142899 0
M  V30 36 C 5.650724 3.729307 -0.135930 0
M  V30 37 C 6.037675 4.126584 1.271520 0
M  V30 38 C 6.888848 3.672355 -1.000440 0
M  V30 39 C 4.782328 4.855394 -0.668212 0
M  V30 40 C 4.559379 1.913674 -1.364166 0
M  V30 41 C 3.908288 0.678998 -1.423967 0
M  V30 42 H 7.240056 -2.852121 1.677110 0
M  V30 43 H 6.770932 -2.328297 3.382209 0
M  V30 44 H 6.728374 -4.043435 2.939566 0
M  V30 45 H 3.178333 -2.529112 2.889133 0
M  V30 46 H 3.988225 -4.010262 3.554853 0
M  V30 47 H 4.569397 -2.424839 4.120180 0
M  V30 48 H 2.940391 -4.526392 0.156986 0
M  V30 49 H 0.362548 -4.656613 -1.066565 0
M  V30 50 H -1.351571 -0.695864 -3.567274 0
M  V30 51 H -3.642317 0.239509 -3.542556 0
M  V30 52 H -5.699767 0.772434 -2.189372 0
M  V30 53 H -5.375690 -2.276806 -0.269444 0
M  V30 54 H -5.996889 -2.911820 1.261743 0
M  V30 55 H -7.200195 -3.098729 -1.391562 0
M  V30 56 H -7.107596 -4.862986 0.581294 0
M  V30 57 H -8.691615 -4.556805 -0.305532 0
M  V30 58 H -7.736031 -3.591330 2.401319 0
M  V30 59 H -9.434895 -4.034121 1.894446 0
M  V30 60 H -9.759042 -1.713398 1.501525 0
M  V30 61 H -7.388227 -1.570636 2.733206 0
M  V30 62 H -8.162603 -0.153078 1.972066 0
M  V30 63 H -9.348517 -2.600528 -0.722247 0
M  V30 64 H -3.660507 -0.744631 1.265379 0
M  V30 65 H 3.838994 -0.133131 1.830227 0
M  V30 66 H 5.016087 2.088562 1.977040 0
M  V30 67 H 5.169080 4.523743 1.828225 0
M  V30 68 H 6.753654 4.988143 1.167484 0
M  V30 69 H 6.600924 3.365901 1.822516 0
M  V30 70 H 7.626791 3.016433 -0.487040 0
M  V30 71 H 6.553324 3.242230 -1.973275 0
M  V30 72 H 7.249614 4.715900 -1.102130 0
M  V30 73 H 5.184432 5.272520 -1.614599 0
M  V30 74 H 4.671543 5.686867 0.036100 0
M  V30 75 H 3.749269 4.459844 -0.847834 0
M  V30 76 H 4.702801 2.394695 -2.335288 0
M  V30 77 H 3.576968 0.240257 -2.363479 0
M  V30 END ATOM
M  V30 BEGIN BOND
M  V30 1 1 1 2
M  V30 2 1 2 3
M  V30 3 1 2 4
M  V30 4 2 4 5
M  V30 5 1 4 6
M  V30 6 2 6 7
M  V30 7 1 7 8
M  V30 8 2 8 9
M  V30 9 1 9 10
M  V30 10 2 10 11
M  V30 11 1 11 12
M  V30 12 1 12 13
M  V30 13 2 13 14
M  V30 14 1 14 15
M  V30 15 2 15 16
M  V30 16 1 16 17
M  V30 17 2 17 18
M  V30 18 1 17 19
M  V30 19 1 19 20
M  V30 20 1 20 21
M  V30 21 1 21 22
M  V30 22 1 22 23
M  V30 23 1 23 24
M  V30 24 1 24 25
M  V30 25 1 24 26
M  V30 26 1 16 27
M  V30 27 2 27 28
M  V30 28 1 11 29
M  V30 29 2 29 30
M  V30 30 1 30 31
M  V30 31 1 31 32
M  V30 32 2 32 33
M  V30 33 1 33 34
M  V30 34 2 34 35
M  V30 35 1 35 36
M  V30 36 1 36 37
M  V30 37 1 36 38
M  V30 38 1 36 39
M  V30 39 1 35 40
M  V30 40 2 40 41
M  V30 41 1 31 6
M  V30 42 1 41 32
M  V30 43 1 30 8
M  V30 44 1 28 13
M  V30 45 1 25 19
M  V30 46 1 26 21
M  V30 47 1 1 42
M  V30 48 1 1 43
M  V30 49 1 1 44
M  V30 50 1 3 45
M  V30 51 1 3 46
M  V30 52 1 3 47
M  V30 53 1 7 48
M  V30 54 1 9 49
M  V30 55 1 12 50
M  V30 56 1 14 51
M  V30 57 1 15 52
M  V30 58 1 20 53
M  V30 59 1 20 54
M  V30 60 1 21 55
M  V30 61 1 22 56
M  V30 62 1 22 57
M  V30 63 1 23 58
M  V30 64 1 23 59
M  V30 65 1 24 60
M  V30 66 1 25 61
M  V30 67 1 25 62
M  V30 68 1 26 63
M  V30 69 1 27 64
M  V30 70 1 33 65
M  V30 71 1 34 66
M  V30 72 1 37 67
M  V30 73 1 37 68
M  V30 74 1 37 69
M  V30 75 1 38 70
M  V30 76 1 38 71
M  V30 77 1 38 72
M  V30 78 1 39 73
M  V30 79 1 39 74
M  V30 80 1 39 75
M  V30 81 1 40 76
M  V30 82 1 41 77
M  V30 END BOND
M  V30 END CTAB
M  END
>  <Dataset>  (443) 
ChEMBL_Kinases

>  <Ligand_Instance>  (443) 
nan

>  <PDB_ID>  (443) 
nan

>  <Standardized_SMILES>  (443) 
CN(C)C(=O)c1cc2cnc(Nc3ccc(C(=O)N4CC5CCC(C4)N5)cn3)nc2n1-c1ccc(C(C)(C)C)cc1

>  <Name>  (443) 
nan

>  <Pocket>  (443) 
nan

>  <ATP_Site>  (443) 
nan

>  <Peripheral>  (443) 
nan

>  <Num_H_Atoms_ProtBoundConf>  (443) 
nan

>  <Num_Resolved_Atoms>  (443) 
nan

>  <Num_Not_Resolved_Atoms>  (443) 
nan

$$$$
CHEMBL3691594
     RDKit          3D

  0  0  0  0  0  0  0  0  0  0999 V3000
M  V30 BEGIN CTAB
M  V30 COUNTS 71 76 0 0 0
M  V30 BEGIN ATOM
M  V30 1 C 7.026735 -1.486182 0.708342 0
M  V30 2 N 5.657550 -1.212045 0.333909 0
M  V30 3 C 4.585391 -1.321491 1.296441 0
M  V30 4 C 5.377397 -0.824536 -1.027832 0
M  V30 5 O 6.351559 -0.747226 -1.825502 0
M  V30 6 C 3.991856 -0.538037 -1.435439 0
M  V30 7 C 3.457475 -1.508932 -2.298458 0
M  V30 8 C 2.152107 -1.056456 -2.546413 0
M  V30 9 C 1.170922 -1.663698 -3.345796 0
M  V30 10 N -0.013334 -1.007923 -3.395859 0
M  V30 11 C -0.224187 0.135257 -2.730637 0
M  V30 12 N -1.394328 0.946143 -2.628656 0
M  V30 13 C -2.132009 0.705305 -1.416135 0
M  V30 14 C -3.301021 1.380133 -1.127826 0
M  V30 15 C -4.014110 1.176226 0.030521 0
M  V30 16 C -3.551073 0.262178 0.947361 0
M  V30 17 C -4.064466 -0.162005 2.246034 0
M  V30 18 O -3.470930 0.475861 3.150564 0
M  V30 19 N -5.069710 -1.141276 2.387340 0
M  V30 20 C -5.725200 -1.838949 1.323109 0
M  V30 21 C -6.036356 -3.267611 1.611931 0
M  V30 22 C -4.840061 -4.155024 1.328484 0
M  V30 23 C -3.728388 -3.908472 2.286187 0
M  V30 24 C -4.136626 -3.616797 3.698408 0
M  V30 25 C -5.500420 -3.038256 3.871478 0
M  V30 26 C -5.514590 -1.527297 3.721700 0
M  V30 27 N -6.471202 -3.552348 2.944878 0
M  V30 28 C -2.383002 -0.421888 0.672879 0
M  V30 29 N -1.737022 -0.175275 -0.475056 0
M  V30 30 N 0.745618 0.712209 -1.957269 0
M  V30 31 C 1.974186 0.117124 -1.848865 0
M  V30 32 N 3.113923 0.424949 -1.169865 0
M  V30 33 C 3.327229 1.544854 -0.331399 0
M  V30 34 C 4.609817 2.248035 -0.706499 0
M  V30 35 C 4.233274 2.831648 -2.071476 0
M  V30 36 C 2.760227 3.223774 -1.912885 0
M  V30 37 C 2.346988 2.672102 -0.593707 0
M  V30 38 H 7.668092 -1.510971 -0.208693 0
M  V30 39 H 7.126702 -2.494723 1.205799 0
M  V30 40 H 7.458756 -0.730874 1.404714 0
M  V30 41 H 4.562742 -2.353025 1.713179 0
M  V30 42 H 4.808469 -0.586413 2.100461 0
M  V30 43 H 3.607241 -1.075751 0.865051 0
M  V30 44 H 3.852088 -2.419265 -2.733653 0
M  V30 45 H 1.300861 -2.568832 -3.888989 0
M  V30 46 H -1.786834 1.662846 -3.276368 0
M  V30 47 H -3.716243 2.120108 -1.824788 0
M  V30 48 H -4.926689 1.645079 0.345800 0
M  V30 49 H -6.640468 -1.250354 1.024027 0
M  V30 50 H -5.028503 -1.767884 0.438426 0
M  V30 51 H -6.831065 -3.613841 0.893295 0
M  V30 52 H -5.165032 -5.215483 1.286160 0
M  V30 53 H -4.479604 -3.898479 0.289758 0
M  V30 54 H -3.034399 -3.160214 1.861003 0
M  V30 55 H -3.111979 -4.855215 2.328612 0
M  V30 56 H -3.971025 -4.478930 4.386305 0
M  V30 57 H -3.398466 -2.840703 4.064350 0
M  V30 58 H -5.849830 -3.268054 4.894679 0
M  V30 59 H -4.923111 -1.067332 4.528842 0
M  V30 60 H -6.555178 -1.155272 3.821904 0
M  V30 61 H -6.595810 -4.576806 3.025030 0
M  V30 62 H -1.850736 -1.168335 1.240443 0
M  V30 63 H 3.324200 1.290450 0.764008 0
M  V30 64 H 4.829464 3.076342 0.013772 0
M  V30 65 H 5.473458 1.608698 -0.871809 0
M  V30 66 H 4.847864 3.686763 -2.351237 0
M  V30 67 H 4.260435 1.983544 -2.804365 0
M  V30 68 H 2.181214 2.920187 -2.784221 0
M  V30 69 H 2.737276 4.354502 -1.921914 0
M  V30 70 H 1.304037 2.429558 -0.449996 0
M  V30 71 H 2.585127 3.465174 0.176025 0
M  V30 END ATOM
M  V30 BEGIN BOND
M  V30 1 1 1 2
M  V30 2 1 2 3
M  V30 3 1 2 4
M  V30 4 2 4 5
M  V30 5 1 4 6
M  V30 6 2 6 7
M  V30 7 1 7 8
M  V30 8 2 8 9
M  V30 9 1 9 10
M  V30 10 2 10 11
M  V30 11 1 11 12
M  V30 12 1 12 13
M  V30 13 2 13 14
M  V30 14 1 14 15
M  V30 15 2 15 16
M  V30 16 1 16 17
M  V30 17 2 17 18
M  V30 18 1 17 19
M  V30 19 1 19 20
M  V30 20 1 20 21
M  V30 21 1 21 22
M  V30 22 1 22 23
M  V30 23 1 23 24
M  V30 24 1 24 25
M  V30 25 1 25 26
M  V30 26 1 25 27
M  V30 27 1 16 28
M  V30 28 2 28 29
M  V30 29 1 11 30
M  V30 30 2 30 31
M  V30 31 1 31 32
M  V30 32 1 32 33
M  V30 33 1 33 34
M  V30 34 1 34 35
M  V30 35 1 35 36
M  V30 36 1 36 37
M  V30 37 1 32 6
M  V30 38 1 37 33
M  V30 39 1 31 8
M  V30 40 1 29 13
M  V30 41 1 26 19
M  V30 42 1 27 21
M  V30 43 1 1 38
M  V30 44 1 1 39
M  V30 45 1 1 40
M  V30 46 1 3 41
M  V30 47 1 3 42
M  V30 48 1 3 43
M  V30 49 1 7 44
M  V30 50 1 9 45
M  V30 51 1 12 46
M  V30 52 1 14 47
M  V30 53 1 15 48
M  V30 54 1 20 49
M  V30 55 1 20 50
M  V30 56 1 21 51
M  V30 57 1 22 52
M  V30 58 1 22 53
M  V30 59 1 23 54
M  V30 60 1 23 55
M  V30 61 1 24 56
M  V30 62 1 24 57
M  V30 63 1 25 58
M  V30 64 1 26 59
M  V30 65 1 26 60
M  V30 66 1 27 61
M  V30 67 1 28 62
M  V30 68 1 33 63
M  V30 69 1 34 64
M  V30 70 1 34 65
M  V30 71 1 35 66
M  V30 72 1 35 67
M  V30 73 1 36 68
M  V30 74 1 36 69
M  V30 75 1 37 70
M  V30 76 1 37 71
M  V30 END BOND
M  V30 END CTAB
M  END
>  <Dataset>  (444) 
ChEMBL_Kinases

>  <Ligand_Instance>  (444) 
nan

>  <PDB_ID>  (444) 
nan

>  <Standardized_SMILES>  (444) 
CN(C)C(=O)c1cc2cnc(Nc3ccc(C(=O)N4CC5CCCC(C4)N5)cn3)nc2n1C1CCCC1

>  <Name>  (444) 
nan

>  <Pocket>  (444) 
nan

>  <ATP_Site>  (444) 
nan

>  <Peripheral>  (444) 
nan

>  <Num_H_Atoms_ProtBoundConf>  (444) 
nan

>  <Num_Resolved_Atoms>  (444) 
nan

>  <Num_Not_Resolved_Atoms>  (444) 
nan

$$$$
CHEMBL3691593
     RDKit          3D

  0  0  0  0  0  0  0  0  0  0999 V3000
M  V30 BEGIN CTAB
M  V30 COUNTS 73 78 0 0 0
M  V30 BEGIN ATOM
M  V30 1 C 2.017662 -0.757164 2.032819 0
M  V30 2 C 2.018491 0.540813 1.371767 0
M  V30 3 C 1.160229 0.618487 0.295718 0
M  V30 4 C 1.004651 1.730680 -0.490153 0
M  V30 5 N 0.132439 1.904260 -1.593648 0
M  V30 6 C -0.824703 0.982219 -2.066965 0
M  V30 7 N -2.065228 1.476935 -1.832364 0
M  V30 8 C -3.199743 0.833386 -2.158652 0
M  V30 9 C -3.164127 -0.419719 -2.776685 0
M  V30 10 C -4.080711 -1.311704 -3.217547 0
M  V30 11 C -3.355865 -2.364818 -3.728744 0
M  V30 12 C -4.055650 -3.527451 -4.297287 0
M  V30 13 O -3.710322 -4.518061 -3.590236 0
M  V30 14 N -4.932676 -3.443422 -5.430029 0
M  V30 15 C -5.289664 -2.255136 -6.213491 0
M  V30 16 C -5.476142 -4.763624 -5.746373 0
M  V30 17 N -2.024339 -2.099078 -3.590519 0
M  V30 18 C -1.024492 -3.031194 -4.029611 0
M  V30 19 C 0.096886 -2.373537 -4.780145 0
M  V30 20 C 1.216196 -3.410593 -4.587209 0
M  V30 21 C 1.156995 -3.576681 -3.089437 0
M  V30 22 C -0.345123 -3.743393 -2.878074 0
M  V30 23 C -1.868759 -0.902647 -3.004506 0
M  V30 24 N -0.750140 -0.234745 -2.666906 0
M  V30 25 N 1.783449 2.798984 -0.128393 0
M  V30 26 C 2.618675 2.719433 0.922423 0
M  V30 27 C 2.794764 1.611765 1.731933 0
M  V30 28 C 3.737315 1.622753 2.851903 0
M  V30 29 O 4.546334 0.470164 2.928012 0
M  V30 30 N 3.235954 2.040072 4.114053 0
M  V30 31 C 2.173017 1.303871 4.672022 0
M  V30 32 C 1.618465 1.772279 5.978291 0
M  V30 33 C 0.325025 2.539696 5.647815 0
M  V30 34 C 0.926484 3.865208 5.182065 0
M  V30 35 C 2.391552 3.821060 5.568426 0
M  V30 36 C 3.286232 3.429614 4.409206 0
M  V30 37 N 2.390826 2.815056 6.622628 0
M  V30 38 H 2.762511 -0.950407 2.794612 0
M  V30 39 H 2.245458 -1.518614 1.222970 0
M  V30 40 H 0.980977 -1.019735 2.332404 0
M  V30 41 H 0.517876 -0.195990 -0.039738 0
M  V30 42 H 0.166093 2.790410 -2.153709 0
M  V30 43 H -4.208737 1.224056 -1.972158 0
M  V30 44 H -5.159007 -1.135267 -3.137931 0
M  V30 45 H -4.655463 -2.242154 -7.124385 0
M  V30 46 H -6.368488 -2.257472 -6.404343 0
M  V30 47 H -5.020189 -1.391957 -5.563331 0
M  V30 48 H -5.925080 -5.228032 -4.841573 0
M  V30 49 H -4.663555 -5.428877 -6.093292 0
M  V30 50 H -6.243178 -4.665291 -6.543132 0
M  V30 51 H -1.462438 -3.826206 -4.678049 0
M  V30 52 H -0.120553 -2.211296 -5.852301 0
M  V30 53 H 0.479184 -1.470957 -4.260485 0
M  V30 54 H 1.013820 -4.329935 -5.138205 0
M  V30 55 H 2.152106 -2.903858 -4.841421 0
M  V30 56 H 1.736002 -4.441838 -2.721036 0
M  V30 57 H 1.491226 -2.613841 -2.628350 0
M  V30 58 H -0.548963 -4.831070 -2.880110 0
M  V30 59 H -0.666211 -3.338688 -1.894424 0
M  V30 60 H 3.187049 3.626000 1.124248 0
M  V30 61 H 4.504657 2.420751 2.565841 0
M  V30 62 H 4.917048 0.376002 3.824450 0
M  V30 63 H 2.489758 0.242736 4.839044 0
M  V30 64 H 1.326609 1.253349 3.925118 0
M  V30 65 H 1.342546 0.951443 6.647471 0
M  V30 66 H -0.329327 2.627604 6.512632 0
M  V30 67 H -0.230354 2.034924 4.831156 0
M  V30 68 H 0.378153 4.678693 5.715092 0
M  V30 69 H 0.812262 3.964597 4.076264 0
M  V30 70 H 2.689634 4.779047 6.041596 0
M  V30 71 H 2.972915 4.063507 3.541068 0
M  V30 72 H 4.316461 3.755001 4.674611 0
M  V30 73 H 3.342349 2.488039 6.819147 0
M  V30 END ATOM
M  V30 BEGIN BOND
M  V30 1 1 1 2
M  V30 2 2 2 3
M  V30 3 1 3 4
M  V30 4 1 4 5
M  V30 5 1 5 6
M  V30 6 2 6 7
M  V30 7 1 7 8
M  V30 8 2 8 9
M  V30 9 1 9 10
M  V30 10 2 10 11
M  V30 11 1 11 12
M  V30 12 2 12 13
M  V30 13 1 12 14
M  V30 14 1 14 15
M  V30 15 1 14 16
M  V30 16 1 11 17
M  V30 17 1 17 18
M  V30 18 1 18 19
M  V30 19 1 19 20
M  V30 20 1 20 21
M  V30 21 1 21 22
M  V30 22 1 17 23
M  V30 23 2 23 24
M  V30 24 2 4 25
M  V30 25 1 25 26
M  V30 26 2 26 27
M  V30 27 1 27 28
M  V30 28 1 28 29
M  V30 29 1 28 30
M  V30 30 1 30 31
M  V30 31 1 31 32
M  V30 32 1 32 33
M  V30 33 1 33 34
M  V30 34 1 34 35
M  V30 35 1 35 36
M  V30 36 1 35 37
M  V30 37 1 27 2
M  V30 38 1 36 30
M  V30 39 1 24 6
M  V30 40 1 37 32
M  V30 41 1 23 9
M  V30 42 1 22 18
M  V30 43 1 1 38
M  V30 44 1 1 39
M  V30 45 1 1 40
M  V30 46 1 3 41
M  V30 47 1 5 42
M  V30 48 1 8 43
M  V30 49 1 10 44
M  V30 50 1 15 45
M  V30 51 1 15 46
M  V30 52 1 15 47
M  V30 53 1 16 48
M  V30 54 1 16 49
M  V30 55 1 16 50
M  V30 56 1 18 51
M  V30 57 1 19 52
M  V30 58 1 19 53
M  V30 59 1 20 54
M  V30 60 1 20 55
M  V30 61 1 21 56
M  V30 62 1 21 57
M  V30 63 1 22 58
M  V30 64 1 22 59
M  V30 65 1 26 60
M  V30 66 1 28 61
M  V30 67 1 29 62
M  V30 68 1 31 63
M  V30 69 1 31 64
M  V30 70 1 32 65
M  V30 71 1 33 66
M  V30 72 1 33 67
M  V30 73 1 34 68
M  V30 74 1 34 69
M  V30 75 1 35 70
M  V30 76 1 36 71
M  V30 77 1 36 72
M  V30 78 1 37 73
M  V30 END BOND
M  V30 END CTAB
M  END
>  <Dataset>  (445) 
ChEMBL_Kinases

>  <Ligand_Instance>  (445) 
nan

>  <PDB_ID>  (445) 
nan

>  <Standardized_SMILES>  (445) 
Cc1cc(Nc2ncc3cc(C(=O)N(C)C)n(C4CCCC4)c3n2)ncc1C(O)N1CC2CCC(C1)N2

>  <Name>  (445) 
nan

>  <Pocket>  (445) 
nan

>  <ATP_Site>  (445) 
nan

>  <Peripheral>  (445) 
nan

>  <Num_H_Atoms_ProtBoundConf>  (445) 
nan

>  <Num_Resolved_Atoms>  (445) 
nan

>  <Num_Not_Resolved_Atoms>  (445) 
nan

$$$$
CHEMBL3691592
     RDKit          3D

  0  0  0  0  0  0  0  0  0  0999 V3000
M  V30 BEGIN CTAB
M  V30 COUNTS 71 76 0 0 0
M  V30 BEGIN ATOM
M  V30 1 C -0.044317 -1.195021 3.288938 0
M  V30 2 C 0.077366 -2.588152 2.726037 0
M  V30 3 N 1.306118 -2.662007 2.108209 0
M  V30 4 C 1.760468 -3.778228 1.528424 0
M  V30 5 N 3.030128 -3.758202 0.824788 0
M  V30 6 C 3.309776 -2.351632 0.897737 0
M  V30 7 N 3.953518 -1.604977 1.836254 0
M  V30 8 C 3.963105 -0.244987 1.693463 0
M  V30 9 C 3.330671 0.368112 0.616124 0
M  V30 10 C 3.116653 1.655380 0.169903 0
M  V30 11 C 2.366231 1.627282 -1.004787 0
M  V30 12 C 1.977281 2.860788 -1.669447 0
M  V30 13 O 2.315457 3.518210 -2.671927 0
M  V30 14 N 0.889345 3.487134 -0.949508 0
M  V30 15 C 0.416548 4.731076 -1.521859 0
M  V30 16 C 0.209886 3.029231 0.257553 0
M  V30 17 N 2.113090 0.340158 -1.292272 0
M  V30 18 C 1.374887 0.011746 -2.447327 0
M  V30 19 C 1.390840 -1.425731 -2.890278 0
M  V30 20 C 0.226774 -1.502485 -3.890147 0
M  V30 21 C -0.503819 -0.184086 -3.797123 0
M  V30 22 C -0.112684 0.280743 -2.398101 0
M  V30 23 C 2.693453 -0.422917 -0.315586 0
M  V30 24 N 2.682227 -1.782333 -0.175732 0
M  V30 25 C 0.933094 -4.877028 1.577283 0
M  V30 26 C -0.300087 -4.856820 2.178119 0
M  V30 27 C -0.734711 -3.697235 2.756853 0
M  V30 28 C -1.947203 -3.218865 3.416818 0
M  V30 29 O -2.117387 -3.228748 4.640779 0
M  V30 30 N -2.880848 -2.743301 2.406363 0
M  V30 31 C -4.121497 -2.200218 2.934916 0
M  V30 32 C -4.689225 -1.160895 1.976937 0
M  V30 33 C -3.824571 0.059749 1.855302 0
M  V30 34 C -2.785891 -0.355545 0.845401 0
M  V30 35 C -3.297011 -1.644611 0.301948 0
M  V30 36 C -2.652541 -2.807736 0.987307 0
M  V30 37 N -4.727860 -1.666538 0.621181 0
M  V30 38 H 0.286804 -0.441636 2.552546 0
M  V30 39 H 0.626349 -1.174292 4.189922 0
M  V30 40 H -1.100099 -0.985262 3.537883 0
M  V30 41 H 3.508003 -4.591656 0.430396 0
M  V30 42 H 4.458798 0.357616 2.420270 0
M  V30 43 H 3.492761 2.542314 0.682174 0
M  V30 44 H -0.663450 4.875588 -1.256199 0
M  V30 45 H 0.974668 5.553298 -1.014116 0
M  V30 46 H 0.503821 4.780584 -2.621454 0
M  V30 47 H 0.491223 3.656866 1.135624 0
M  V30 48 H -0.887482 3.271441 0.117431 0
M  V30 49 H 0.264217 1.949474 0.421328 0
M  V30 50 H 1.718703 0.584588 -3.364839 0
M  V30 51 H 1.146714 -2.160609 -2.116468 0
M  V30 52 H 2.311200 -1.642733 -3.464671 0
M  V30 53 H -0.500271 -2.281409 -3.622744 0
M  V30 54 H 0.586389 -1.708607 -4.913380 0
M  V30 55 H -0.134137 0.548669 -4.563773 0
M  V30 56 H -1.602653 -0.338995 -3.885396 0
M  V30 57 H -0.637133 -0.384334 -1.693745 0
M  V30 58 H -0.328351 1.360700 -2.254946 0
M  V30 59 H 1.223103 -5.813159 1.139478 0
M  V30 60 H -1.043479 -5.610954 2.291400 0
M  V30 61 H -4.884707 -2.944828 3.147236 0
M  V30 62 H -3.856602 -1.683359 3.888835 0
M  V30 63 H -5.709944 -0.922632 2.355733 0
M  V30 64 H -4.475036 0.868819 1.467072 0
M  V30 65 H -3.356845 0.345295 2.828723 0
M  V30 66 H -1.812969 -0.388454 1.334886 0
M  V30 67 H -2.668990 0.426484 0.040398 0
M  V30 68 H -3.202436 -1.704916 -0.812210 0
M  V30 69 H -1.560663 -2.832816 0.741026 0
M  V30 70 H -3.106724 -3.786942 0.665504 0
M  V30 71 H -5.120774 -0.864882 0.043128 0
M  V30 END ATOM
M  V30 BEGIN BOND
M  V30 1 1 1 2
M  V30 2 2 2 3
M  V30 3 1 3 4
M  V30 4 1 4 5
M  V30 5 1 5 6
M  V30 6 2 6 7
M  V30 7 1 7 8
M  V30 8 2 8 9
M  V30 9 1 9 10
M  V30 10 2 10 11
M  V30 11 1 11 12
M  V30 12 2 12 13
M  V30 13 1 12 14
M  V30 14 1 14 15
M  V30 15 1 14 16
M  V30 16 1 11 17
M  V30 17 1 17 18
M  V30 18 1 18 19
M  V30 19 1 19 20
M  V30 20 1 20 21
M  V30 21 1 21 22
M  V30 22 1 17 23
M  V30 23 2 23 24
M  V30 24 2 4 25
M  V30 25 1 25 26
M  V30 26 2 26 27
M  V30 27 1 27 28
M  V30 28 2 28 29
M  V30 29 1 28 30
M  V30 30 1 30 31
M  V30 31 1 31 32
M  V30 32 1 32 33
M  V30 33 1 33 34
M  V30 34 1 34 35
M  V30 35 1 35 36
M  V30 36 1 35 37
M  V30 37 1 27 2
M  V30 38 1 36 30
M  V30 39 1 24 6
M  V30 40 1 37 32
M  V30 41 1 23 9
M  V30 42 1 22 18
M  V30 43 1 1 38
M  V30 44 1 1 39
M  V30 45 1 1 40
M  V30 46 1 5 41
M  V30 47 1 8 42
M  V30 48 1 10 43
M  V30 49 1 15 44
M  V30 50 1 15 45
M  V30 51 1 15 46
M  V30 52 1 16 47
M  V30 53 1 16 48
M  V30 54 1 16 49
M  V30 55 1 18 50
M  V30 56 1 19 51
M  V30 57 1 19 52
M  V30 58 1 20 53
M  V30 59 1 20 54
M  V30 60 1 21 55
M  V30 61 1 21 56
M  V30 62 1 22 57
M  V30 63 1 22 58
M  V30 64 1 25 59
M  V30 65 1 26 60
M  V30 66 1 31 61
M  V30 67 1 31 62
M  V30 68 1 32 63
M  V30 69 1 33 64
M  V30 70 1 33 65
M  V30 71 1 34 66
M  V30 72 1 34 67
M  V30 73 1 35 68
M  V30 74 1 36 69
M  V30 75 1 36 70
M  V30 76 1 37 71
M  V30 END BOND
M  V30 END CTAB
M  END
>  <Dataset>  (446) 
ChEMBL_Kinases

>  <Ligand_Instance>  (446) 
nan

>  <PDB_ID>  (446) 
nan

>  <Standardized_SMILES>  (446) 
Cc1nc(Nc2ncc3cc(C(=O)N(C)C)n(C4CCCC4)c3n2)ccc1C(=O)N1CC2CCC(C1)N2

>  <Name>  (446) 
nan

>  <Pocket>  (446) 
nan

>  <ATP_Site>  (446) 
nan

>  <Peripheral>  (446) 
nan

>  <Num_H_Atoms_ProtBoundConf>  (446) 
nan

>  <Num_Resolved_Atoms>  (446) 
nan

>  <Num_Not_Resolved_Atoms>  (446) 
nan

$$$$
CHEMBL3691591
     RDKit          3D

  0  0  0  0  0  0  0  0  0  0999 V3000
M  V30 BEGIN CTAB
M  V30 COUNTS 65 70 0 0 0
M  V30 BEGIN ATOM
M  V30 1 C 5.978863 -0.109390 2.064291 0
M  V30 2 N 5.875496 -1.202038 1.091094 0
M  V30 3 C 7.068630 -1.396175 0.289879 0
M  V30 4 C 4.796499 -2.113422 0.795393 0
M  V30 5 O 4.856341 -3.028955 -0.095124 0
M  V30 6 C 3.485930 -2.175796 1.416051 0
M  V30 7 C 2.931551 -3.243559 2.123300 0
M  V30 8 C 1.674559 -2.943086 2.565400 0
M  V30 9 C 0.703026 -3.602879 3.285837 0
M  V30 10 N -0.474043 -2.994464 3.558878 0
M  V30 11 C -0.680692 -1.748037 3.120866 0
M  V30 12 N -1.807201 -0.853220 3.239364 0
M  V30 13 C -2.759484 -0.711733 2.192438 0
M  V30 14 C -3.837862 0.144766 2.300342 0
M  V30 15 C -4.735465 0.268212 1.259634 0
M  V30 16 C -4.547452 -0.470617 0.110672 0
M  V30 17 C -5.389981 -0.470543 -1.098950 0
M  V30 18 O -6.631436 -0.726683 -1.248996 0
M  V30 19 N -4.736693 -0.127692 -2.340693 0
M  V30 20 C -5.474612 -0.094100 -3.613778 0
M  V30 21 C -4.463565 0.433345 -4.608897 0
M  V30 22 C -3.655218 1.344013 -3.701975 0
M  V30 23 C -3.373527 0.232335 -2.670856 0 CFG=2
M  V30 24 C -2.776937 -0.774594 -3.628062 0
M  V30 25 N -3.527865 -0.616491 -4.863752 0
M  V30 26 C -3.448389 -1.330308 0.026835 0
M  V30 27 N -2.562058 -1.448837 1.060978 0
M  V30 28 N 0.265020 -1.071649 2.403493 0
M  V30 29 C 1.466336 -1.658305 2.111017 0
M  V30 30 N 2.547661 -1.183095 1.417224 0
M  V30 31 C 2.666768 0.114533 0.807393 0
M  V30 32 C 2.855208 0.054645 -0.692227 0
M  V30 33 C 2.468308 1.456048 -1.113894 0
M  V30 34 C 1.477387 1.962615 -0.064904 0
M  V30 35 C 1.286800 0.780772 0.864222 0
M  V30 36 H 5.125331 -0.223754 2.734962 0
M  V30 37 H 5.876425 0.890719 1.577484 0
M  V30 38 H 6.974088 -0.145919 2.525803 0
M  V30 39 H 7.852580 -1.954825 0.831720 0
M  V30 40 H 7.525756 -0.429625 0.000240 0
M  V30 41 H 6.876812 -1.930647 -0.663217 0
M  V30 42 H 3.432528 -4.202770 2.306499 0
M  V30 43 H 0.843848 -4.590254 3.641917 0
M  V30 44 H -1.912834 -0.305410 4.115826 0
M  V30 45 H -3.998157 0.731567 3.197731 0
M  V30 46 H -5.595468 0.902796 1.254126 0
M  V30 47 H -6.393482 0.498354 -3.544894 0
M  V30 48 H -5.691157 -1.149024 -3.880627 0
M  V30 49 H -4.891298 0.919075 -5.470495 0
M  V30 50 H -2.689359 1.619079 -4.181672 0
M  V30 51 H -4.219091 2.176363 -3.276785 0
M  V30 52 H -2.746853 0.562412 -1.859874 0
M  V30 53 H -2.855080 -1.770659 -3.182182 0
M  V30 54 H -1.716374 -0.437694 -3.782440 0
M  V30 55 H -2.874222 -0.305103 -5.614053 0
M  V30 56 H -3.179697 -1.968595 -0.812177 0
M  V30 57 H 3.344208 0.807027 1.297802 0
M  V30 58 H 2.111788 -0.671189 -1.087401 0
M  V30 59 H 3.883384 -0.126293 -1.004474 0
M  V30 60 H 1.995849 1.454865 -2.118787 0
M  V30 61 H 3.355187 2.142026 -1.063397 0
M  V30 62 H 0.489746 2.232446 -0.524240 0
M  V30 63 H 1.883605 2.801755 0.524321 0
M  V30 64 H 0.586062 0.098734 0.362446 0
M  V30 65 H 1.017419 1.115704 1.862775 0
M  V30 END ATOM
M  V30 BEGIN BOND
M  V30 1 1 1 2
M  V30 2 1 2 3
M  V30 3 1 2 4
M  V30 4 2 4 5
M  V30 5 1 4 6
M  V30 6 2 6 7
M  V30 7 1 7 8
M  V30 8 2 8 9
M  V30 9 1 9 10
M  V30 10 2 10 11
M  V30 11 1 11 12
M  V30 12 1 12 13
M  V30 13 2 13 14
M  V30 14 1 14 15
M  V30 15 2 15 16
M  V30 16 1 16 17
M  V30 17 2 17 18
M  V30 18 1 17 19
M  V30 19 1 19 20
M  V30 20 1 20 21
M  V30 21 1 21 22
M  V30 22 1 22 23
M  V30 23 1 23 24
M  V30 24 1 24 25
M  V30 25 1 16 26
M  V30 26 2 26 27
M  V30 27 1 11 28
M  V30 28 2 28 29
M  V30 29 1 29 30
M  V30 30 1 30 31
M  V30 31 1 31 32
M  V30 32 1 32 33
M  V30 33 1 33 34
M  V30 34 1 34 35
M  V30 35 1 30 6
M  V30 36 1 35 31
M  V30 37 1 29 8
M  V30 38 1 27 13
M  V30 39 1 23 19
M  V30 40 1 25 21
M  V30 41 1 1 36
M  V30 42 1 1 37
M  V30 43 1 1 38
M  V30 44 1 3 39
M  V30 45 1 3 40
M  V30 46 1 3 41
M  V30 47 1 7 42
M  V30 48 1 9 43
M  V30 49 1 12 44
M  V30 50 1 14 45
M  V30 51 1 15 46
M  V30 52 1 20 47
M  V30 53 1 20 48
M  V30 54 1 21 49
M  V30 55 1 22 50
M  V30 56 1 22 51
M  V30 57 1 23 52 CFG=1
M  V30 58 1 24 53
M  V30 59 1 24 54
M  V30 60 1 25 55
M  V30 61 1 26 56
M  V30 62 1 31 57
M  V30 63 1 32 58
M  V30 64 1 32 59
M  V30 65 1 33 60
M  V30 66 1 33 61
M  V30 67 1 34 62
M  V30 68 1 34 63
M  V30 69 1 35 64
M  V30 70 1 35 65
M  V30 END BOND
M  V30 END CTAB
M  END
>  <Dataset>  (447) 
ChEMBL_Kinases

>  <Ligand_Instance>  (447) 
nan

>  <PDB_ID>  (447) 
nan

>  <Standardized_SMILES>  (447) 
CN(C)C(=O)c1cc2cnc(Nc3ccc(C(=O)N4CC5C[C@@H]4CN5)cn3)nc2n1C1CCCC1

>  <Name>  (447) 
nan

>  <Pocket>  (447) 
nan

>  <ATP_Site>  (447) 
nan

>  <Peripheral>  (447) 
nan

>  <Num_H_Atoms_ProtBoundConf>  (447) 
nan

>  <Num_Resolved_Atoms>  (447) 
nan

>  <Num_Not_Resolved_Atoms>  (447) 
nan

$$$$
CHEMBL3691590
     RDKit          3D

  0  0  0  0  0  0  0  0  0  0999 V3000
M  V30 BEGIN CTAB
M  V30 COUNTS 71 76 0 0 0
M  V30 BEGIN ATOM
M  V30 1 C 7.314412 -1.513585 -0.503409 0
M  V30 2 N 5.890858 -1.237208 -0.675348 0
M  V30 3 C 4.980581 -1.721378 0.330992 0
M  V30 4 C 5.604838 -0.500019 -1.865428 0
M  V30 5 O 6.661565 -0.236926 -2.536132 0
M  V30 6 C 4.179417 -0.231838 -2.017857 0
M  V30 7 C 3.478913 -0.979048 -2.942813 0
M  V30 8 C 2.167355 -0.508811 -2.856256 0
M  V30 9 C 1.066309 -0.924867 -3.569077 0
M  V30 10 N -0.105183 -0.287916 -3.277143 0
M  V30 11 C -0.143935 0.681881 -2.344376 0
M  V30 12 N -1.268860 1.438704 -1.921054 0
M  V30 13 C -2.053907 0.944215 -0.830725 0
M  V30 14 C -3.156971 1.625273 -0.358808 0
M  V30 15 C -3.911990 1.145846 0.690332 0
M  V30 16 C -3.562233 -0.059123 1.300230 0
M  V30 17 C -4.212285 -0.726569 2.401284 0
M  V30 18 O -3.832877 -0.072946 3.404479 0
M  V30 19 N -5.079050 -1.855520 2.379568 0
M  V30 20 C -5.382692 -2.451453 1.109248 0
M  V30 21 C -5.783213 -3.885113 1.185661 0
M  V30 22 N -5.595618 -4.504598 2.477903 0
M  V30 23 C -4.340918 -4.228579 3.102293 0
M  V30 24 C -4.643324 -3.324241 4.295212 0
M  V30 25 C -5.515864 -2.210636 3.717098 0
M  V30 26 C -6.926085 -2.753212 3.559607 0
M  V30 27 C -6.753540 -4.252335 3.297463 0
M  V30 28 C -2.456656 -0.721523 0.812238 0
M  V30 29 N -1.738563 -0.218933 -0.221569 0
M  V30 30 N 0.974557 1.025330 -1.697562 0
M  V30 31 C 2.183065 0.478858 -1.891425 0
M  V30 32 N 3.433201 0.659044 -1.362711 0
M  V30 33 C 3.674390 1.623909 -0.348411 0
M  V30 34 C 5.046301 2.235614 -0.526760 0
M  V30 35 C 4.830126 3.009699 -1.836552 0
M  V30 36 C 3.367988 3.420268 -1.801489 0
M  V30 37 C 2.840460 2.884527 -0.510634 0
M  V30 38 H 7.512731 -2.152333 0.378282 0
M  V30 39 H 7.764839 -1.980313 -1.398250 0
M  V30 40 H 7.891763 -0.570812 -0.302019 0
M  V30 41 H 4.755312 -2.796201 0.175322 0
M  V30 42 H 5.421450 -1.518567 1.318529 0
M  V30 43 H 4.016828 -1.182045 0.264482 0
M  V30 44 H 3.809160 -1.762389 -3.611596 0
M  V30 45 H 1.098660 -1.694325 -4.306884 0
M  V30 46 H -1.566892 2.340502 -2.353321 0
M  V30 47 H -3.459731 2.567582 -0.807244 0
M  V30 48 H -4.779655 1.613376 1.113691 0
M  V30 49 H -6.265937 -1.891254 0.693160 0
M  V30 50 H -4.548154 -2.357182 0.380421 0
M  V30 51 H -6.869209 -4.060161 0.930710 0
M  V30 52 H -5.224754 -4.507941 0.447850 0
M  V30 53 H -3.815735 -5.136675 3.391009 0
M  V30 54 H -3.754711 -3.578512 2.391447 0
M  V30 55 H -3.744662 -2.939011 4.784198 0
M  V30 56 H -5.180785 -3.937266 5.029360 0
M  V30 57 H -5.453082 -1.386774 4.423599 0
M  V30 58 H -7.417035 -2.292051 2.657473 0
M  V30 59 H -7.547272 -2.544531 4.428969 0
M  V30 60 H -7.641865 -4.537908 2.673008 0
M  V30 61 H -6.806632 -4.852719 4.204486 0
M  V30 62 H -2.072999 -1.673049 1.196034 0
M  V30 63 H 3.517476 1.245259 0.683108 0
M  V30 64 H 5.235106 2.992756 0.291982 0
M  V30 65 H 5.866489 1.559428 -0.670285 0
M  V30 66 H 5.521145 3.877086 -1.894429 0
M  V30 67 H 5.002010 2.357301 -2.713813 0
M  V30 68 H 2.852440 3.019869 -2.696014 0
M  V30 69 H 3.313144 4.527170 -1.897357 0
M  V30 70 H 1.780014 2.774225 -0.400953 0
M  V30 71 H 3.197242 3.581242 0.296573 0
M  V30 END ATOM
M  V30 BEGIN BOND
M  V30 1 1 1 2
M  V30 2 1 2 3
M  V30 3 1 2 4
M  V30 4 2 4 5
M  V30 5 1 4 6
M  V30 6 2 6 7
M  V30 7 1 7 8
M  V30 8 2 8 9
M  V30 9 1 9 10
M  V30 10 2 10 11
M  V30 11 1 11 12
M  V30 12 1 12 13
M  V30 13 2 13 14
M  V30 14 1 14 15
M  V30 15 2 15 16
M  V30 16 1 16 17
M  V30 17 2 17 18
M  V30 18 1 17 19
M  V30 19 1 19 20
M  V30 20 1 20 21
M  V30 21 1 21 22
M  V30 22 1 22 23
M  V30 23 1 23 24
M  V30 24 1 24 25
M  V30 25 1 25 26
M  V30 26 1 26 27
M  V30 27 1 16 28
M  V30 28 2 28 29
M  V30 29 1 11 30
M  V30 30 2 30 31
M  V30 31 1 31 32
M  V30 32 1 32 33
M  V30 33 1 33 34
M  V30 34 1 34 35
M  V30 35 1 35 36
M  V30 36 1 36 37
M  V30 37 1 32 6
M  V30 38 1 37 33
M  V30 39 1 31 8
M  V30 40 1 29 13
M  V30 41 1 25 19
M  V30 42 1 27 22
M  V30 43 1 1 38
M  V30 44 1 1 39
M  V30 45 1 1 40
M  V30 46 1 3 41
M  V30 47 1 3 42
M  V30 48 1 3 43
M  V30 49 1 7 44
M  V30 50 1 9 45
M  V30 51 1 12 46
M  V30 52 1 14 47
M  V30 53 1 15 48
M  V30 54 1 20 49
M  V30 55 1 20 50
M  V30 56 1 21 51
M  V30 57 1 21 52
M  V30 58 1 23 53
M  V30 59 1 23 54
M  V30 60 1 24 55
M  V30 61 1 24 56
M  V30 62 1 25 57
M  V30 63 1 26 58
M  V30 64 1 26 59
M  V30 65 1 27 60
M  V30 66 1 27 61
M  V30 67 1 28 62
M  V30 68 1 33 63
M  V30 69 1 34 64
M  V30 70 1 34 65
M  V30 71 1 35 66
M  V30 72 1 35 67
M  V30 73 1 36 68
M  V30 74 1 36 69
M  V30 75 1 37 70
M  V30 76 1 37 71
M  V30 END BOND
M  V30 END CTAB
M  END
>  <Dataset>  (448) 
ChEMBL_Kinases

>  <Ligand_Instance>  (448) 
nan

>  <PDB_ID>  (448) 
nan

>  <Standardized_SMILES>  (448) 
CN(C)C(=O)c1cc2cnc(Nc3ccc(C(=O)N4CCN5CCC4CC5)cn3)nc2n1C1CCCC1

>  <Name>  (448) 
nan

>  <Pocket>  (448) 
nan

>  <ATP_Site>  (448) 
nan

>  <Peripheral>  (448) 
nan

>  <Num_H_Atoms_ProtBoundConf>  (448) 
nan

>  <Num_Resolved_Atoms>  (448) 
nan

>  <Num_Not_Resolved_Atoms>  (448) 
nan

$$$$
CHEMBL3691589
     RDKit          3D

  0  0  0  0  0  0  0  0  0  0999 V3000
M  V30 BEGIN CTAB
M  V30 COUNTS 69 74 0 0 0
M  V30 BEGIN ATOM
M  V30 1 C 6.263412 -0.035883 1.593936 0
M  V30 2 N 5.029835 0.402030 0.983768 0
M  V30 3 C 3.975731 -0.535317 1.388411 0
M  V30 4 C 4.750934 1.522902 0.129874 0
M  V30 5 O 5.661049 2.317559 -0.197384 0
M  V30 6 C 3.363682 1.635032 -0.295435 0
M  V30 7 C 3.052156 0.947145 -1.458050 0
M  V30 8 C 1.704696 1.149922 -1.695420 0
M  V30 9 C 0.808683 0.732276 -2.654527 0
M  V30 10 N -0.464628 1.140662 -2.520431 0
M  V30 11 C -0.910723 1.924086 -1.514389 0
M  V30 12 N -2.308709 2.079089 -1.708920 0
M  V30 13 C -2.943710 0.940613 -1.080099 0
M  V30 14 C -2.221242 -0.043006 -0.391463 0
M  V30 15 C -2.831891 -1.163340 0.194154 0
M  V30 16 C -4.219666 -1.306929 0.085425 0
M  V30 17 C -4.634062 -2.542024 0.739012 0
M  V30 18 O -5.542555 -2.374812 1.618360 0
M  V30 19 N -4.007982 -3.792273 0.351669 0
M  V30 20 C -2.982601 -3.973394 -0.651428 0
M  V30 21 C -3.149033 -5.273375 -1.381901 0
M  V30 22 C -1.805206 -6.010958 -1.279270 0
M  V30 23 N -1.447539 -6.060855 0.093914 0
M  V30 24 C -2.486968 -6.300399 1.033672 0
M  V30 25 C -3.885638 -6.149272 0.571720 0
M  V30 26 C -4.546828 -4.886482 1.137641 0
M  V30 27 O -4.065716 -6.141150 -0.801472 0
M  V30 28 C -4.882770 -0.321428 -0.594950 0
M  V30 29 N -4.269540 0.738627 -1.142533 0
M  V30 30 N -0.021038 2.323700 -0.589194 0
M  V30 31 C 1.267097 1.954951 -0.658712 0
M  V30 32 N 2.259407 2.242070 0.171897 0
M  V30 33 C 2.267058 3.044836 1.359492 0
M  V30 34 C 1.864282 4.481773 1.089772 0
M  V30 35 C 1.597020 5.008483 2.482653 0
M  V30 36 C 1.344558 3.798144 3.355552 0
M  V30 37 C 1.193678 2.643774 2.357245 0
M  V30 38 H 7.169454 0.477690 1.181448 0
M  V30 39 H 6.449989 -1.128702 1.375951 0
M  V30 40 H 6.276661 0.067263 2.676445 0
M  V30 41 H 4.264208 -1.555001 1.083018 0
M  V30 42 H 3.018844 -0.268485 0.859635 0
M  V30 43 H 3.804473 -0.543515 2.475027 0
M  V30 44 H 3.615244 0.335874 -2.150606 0
M  V30 45 H 1.188065 0.095836 -3.463207 0
M  V30 46 H -2.955213 2.755399 -2.158044 0
M  V30 47 H -1.125783 0.040260 -0.294700 0
M  V30 48 H -2.142093 -1.816393 0.695022 0
M  V30 49 H -2.005862 -3.975127 -0.089841 0
M  V30 50 H -2.925240 -3.110436 -1.346909 0
M  V30 51 H -3.390520 -5.043537 -2.443273 0
M  V30 52 H -1.891597 -6.985986 -1.795645 0
M  V30 53 H -1.092806 -5.336903 -1.835980 0
M  V30 54 H -0.681403 -5.462570 0.400854 0
M  V30 55 H -2.320801 -5.612891 1.908154 0
M  V30 56 H -2.291194 -7.326650 1.466186 0
M  V30 57 H -4.489429 -6.996445 0.966492 0
M  V30 58 H -5.656297 -4.953709 1.071153 0
M  V30 59 H -4.225244 -4.725847 2.193795 0
M  V30 60 H -5.944689 -0.527593 -0.611591 0
M  V30 61 H 3.215748 3.006386 1.891890 0
M  V30 62 H 0.866136 4.497093 0.571786 0
M  V30 63 H 2.602626 5.059089 0.523770 0
M  V30 64 H 2.476114 5.587146 2.863966 0
M  V30 65 H 0.693980 5.680379 2.476232 0
M  V30 66 H 2.287669 3.559825 3.928923 0
M  V30 67 H 0.482961 3.893822 4.022615 0
M  V30 68 H 1.393432 1.673193 2.834138 0
M  V30 69 H 0.166169 2.717981 1.905028 0
M  V30 END ATOM
M  V30 BEGIN BOND
M  V30 1 1 1 2
M  V30 2 1 2 3
M  V30 3 1 2 4
M  V30 4 2 4 5
M  V30 5 1 4 6
M  V30 6 2 6 7
M  V30 7 1 7 8
M  V30 8 2 8 9
M  V30 9 1 9 10
M  V30 10 2 10 11
M  V30 11 1 11 12
M  V30 12 1 12 13
M  V30 13 2 13 14
M  V30 14 1 14 15
M  V30 15 2 15 16
M  V30 16 1 16 17
M  V30 17 2 17 18
M  V30 18 1 17 19
M  V30 19 1 19 20
M  V30 20 1 20 21
M  V30 21 1 21 22
M  V30 22 1 22 23
M  V30 23 1 23 24
M  V30 24 1 24 25
M  V30 25 1 25 26
M  V30 26 1 25 27
M  V30 27 1 16 28
M  V30 28 2 28 29
M  V30 29 1 11 30
M  V30 30 2 30 31
M  V30 31 1 31 32
M  V30 32 1 32 33
M  V30 33 1 33 34
M  V30 34 1 34 35
M  V30 35 1 35 36
M  V30 36 1 36 37
M  V30 37 1 32 6
M  V30 38 1 37 33
M  V30 39 1 31 8
M  V30 40 1 29 13
M  V30 41 1 26 19
M  V30 42 1 27 21
M  V30 43 1 1 38
M  V30 44 1 1 39
M  V30 45 1 1 40
M  V30 46 1 3 41
M  V30 47 1 3 42
M  V30 48 1 3 43
M  V30 49 1 7 44
M  V30 50 1 9 45
M  V30 51 1 12 46
M  V30 52 1 14 47
M  V30 53 1 15 48
M  V30 54 1 20 49
M  V30 55 1 20 50
M  V30 56 1 21 51
M  V30 57 1 22 52
M  V30 58 1 22 53
M  V30 59 1 23 54
M  V30 60 1 24 55
M  V30 61 1 24 56
M  V30 62 1 25 57
M  V30 63 1 26 58
M  V30 64 1 26 59
M  V30 65 1 28 60
M  V30 66 1 33 61
M  V30 67 1 34 62
M  V30 68 1 34 63
M  V30 69 1 35 64
M  V30 70 1 35 65
M  V30 71 1 36 66
M  V30 72 1 36 67
M  V30 73 1 37 68
M  V30 74 1 37 69
M  V30 END BOND
M  V30 END CTAB
M  END
>  <Dataset>  (449) 
ChEMBL_Kinases

>  <Ligand_Instance>  (449) 
nan

>  <PDB_ID>  (449) 
nan

>  <Standardized_SMILES>  (449) 
CN(C)C(=O)c1cc2cnc(Nc3ccc(C(=O)N4CC5CNCC(C4)O5)cn3)nc2n1C1CCCC1

>  <Name>  (449) 
nan

>  <Pocket>  (449) 
nan

>  <ATP_Site>  (449) 
nan

>  <Peripheral>  (449) 
nan

>  <Num_H_Atoms_ProtBoundConf>  (449) 
nan

>  <Num_Resolved_Atoms>  (449) 
nan

>  <Num_Not_Resolved_Atoms>  (449) 
nan

$$$$
CHEMBL3672549
     RDKit          3D

  0  0  0  0  0  0  0  0  0  0999 V3000
M  V30 BEGIN CTAB
M  V30 COUNTS 59 65 0 0 0
M  V30 BEGIN ATOM
M  V30 1 N 2.461516 -6.100198 2.377346 0
M  V30 2 C 3.199894 -4.964165 1.864685 0
M  V30 3 C 2.387283 -3.877875 1.311879 0
M  V30 4 C 1.335541 -3.548068 2.175436 0
M  V30 5 C 0.439641 -2.528480 1.827539 0
M  V30 6 C 0.558732 -1.822585 0.639432 0
M  V30 7 C -0.407416 -0.774020 0.338275 0
M  V30 8 N 0.203191 0.439655 0.251341 0
M  V30 9 C -0.528611 1.559203 -0.024161 0
M  V30 10 C -0.227697 2.899727 -0.176355 0
M  V30 11 C 1.020661 3.498565 -0.076523 0
M  V30 12 C 1.062935 4.863433 -0.271366 0
M  V30 13 C -0.076027 5.596096 -0.551005 0
M  V30 14 C -1.302479 4.931400 -0.637814 0
M  V30 15 C -2.513465 5.689517 -0.931213 0
M  V30 16 C -2.853743 6.897329 -0.337849 0
M  V30 17 N -4.043092 7.238349 -0.899581 0
M  V30 18 N -4.393503 6.297020 -1.772758 0
M  V30 19 C -3.485606 5.307222 -1.839425 0
M  V30 20 C -1.401768 3.572020 -0.452427 0
M  V30 21 N -2.361002 2.649927 -0.461223 0
M  V30 22 N -1.873598 1.442678 -0.209789 0
M  V30 23 C -2.503380 0.253283 -0.129353 0
M  V30 24 C -1.774951 -0.886238 0.148578 0
M  V30 25 C -2.274883 -2.251929 0.274913 0
M  V30 26 C -3.193511 -2.758202 1.172780 0
M  V30 27 C -3.521910 -4.098858 1.109043 0
M  V30 28 C -2.952057 -4.933503 0.170924 0
M  V30 29 C -2.025007 -4.431372 -0.738184 0
M  V30 30 C -1.689165 -3.088981 -0.682490 0
M  V30 31 C 1.605792 -2.174168 -0.186200 0
M  V30 32 C 2.498621 -3.174398 0.137376 0
M  V30 33 C 4.355657 -5.410822 1.021285 0
M  V30 34 C 5.235570 -4.479450 1.820849 0
M  V30 35 C 4.200816 -4.532279 2.935764 0
M  V30 36 H 2.961973 -7.004467 2.303106 0
M  V30 37 H 2.008491 -5.922029 3.297568 0
M  V30 38 H 1.111792 -4.003058 3.129807 0
M  V30 39 H -0.395029 -2.250368 2.488677 0
M  V30 40 H 1.899095 2.927044 0.140126 0
M  V30 41 H 1.996798 5.416993 -0.212328 0
M  V30 42 H -0.005376 6.667547 -0.698385 0
M  V30 43 H -2.237150 7.395909 0.412139 0
M  V30 44 H -5.287096 6.331706 -2.345273 0
M  V30 45 H -3.510417 4.424339 -2.455594 0
M  V30 46 H -3.550859 0.098412 -0.264776 0
M  V30 47 H -3.574398 -2.015111 1.860749 0
M  V30 48 H -4.255320 -4.440350 1.846919 0
M  V30 49 H -3.224115 -5.981248 0.138880 0
M  V30 50 H -1.587650 -5.116782 -1.473225 0
M  V30 51 H -0.963307 -2.799383 -1.428967 0
M  V30 52 H 1.728549 -1.653995 -1.106424 0
M  V30 53 H 3.319095 -3.481764 -0.461963 0
M  V30 54 H 4.637062 -6.475302 1.159015 0
M  V30 55 H 4.354733 -5.175976 -0.042310 0
M  V30 56 H 6.233951 -4.900311 2.101027 0
M  V30 57 H 5.338273 -3.473973 1.392795 0
M  V30 58 H 4.039628 -3.549055 3.378436 0
M  V30 59 H 4.467173 -5.333547 3.649816 0
M  V30 END ATOM
M  V30 BEGIN BOND
M  V30 1 1 1 2
M  V30 2 1 2 3
M  V30 3 2 3 4
M  V30 4 1 4 5
M  V30 5 2 5 6
M  V30 6 1 6 7
M  V30 7 2 7 8
M  V30 8 1 8 9
M  V30 9 2 9 10
M  V30 10 1 10 11
M  V30 11 2 11 12
M  V30 12 1 12 13
M  V30 13 2 13 14
M  V30 14 1 14 15
M  V30 15 1 15 16
M  V30 16 2 16 17
M  V30 17 1 17 18
M  V30 18 1 18 19
M  V30 19 1 14 20
M  V30 20 2 20 21
M  V30 21 1 21 22
M  V30 22 1 22 23
M  V30 23 2 23 24
M  V30 24 1 24 25
M  V30 25 2 25 26
M  V30 26 1 26 27
M  V30 27 2 27 28
M  V30 28 1 28 29
M  V30 29 2 29 30
M  V30 30 1 6 31
M  V30 31 2 31 32
M  V30 32 1 2 33
M  V30 33 1 33 34
M  V30 34 1 34 35
M  V30 35 1 35 2
M  V30 36 1 32 3
M  V30 37 1 24 7
M  V30 38 1 30 25
M  V30 39 1 22 9
M  V30 40 1 20 10
M  V30 41 2 19 15
M  V30 42 1 1 36
M  V30 43 1 1 37
M  V30 44 1 4 38
M  V30 45 1 5 39
M  V30 46 1 11 40
M  V30 47 1 12 41
M  V30 48 1 13 42
M  V30 49 1 16 43
M  V30 50 1 18 44
M  V30 51 1 19 45
M  V30 52 1 23 46
M  V30 53 1 26 47
M  V30 54 1 27 48
M  V30 55 1 28 49
M  V30 56 1 29 50
M  V30 57 1 30 51
M  V30 58 1 31 52
M  V30 59 1 32 53
M  V30 60 1 33 54
M  V30 61 1 33 55
M  V30 62 1 34 56
M  V30 63 1 34 57
M  V30 64 1 35 58
M  V30 65 1 35 59
M  V30 END BOND
M  V30 END CTAB
M  END
>  <Dataset>  (450) 
ChEMBL_Kinases

>  <Ligand_Instance>  (450) 
nan

>  <PDB_ID>  (450) 
nan

>  <Standardized_SMILES>  (450) 
NC1(c2ccc(-c3nc4c5cccc(-c6cn[nH]c6)c5nn4cc3-c3ccccc3)cc2)CCC1

>  <Name>  (450) 
nan

>  <Pocket>  (450) 
nan

>  <ATP_Site>  (450) 
nan

>  <Peripheral>  (450) 
nan

>  <Num_H_Atoms_ProtBoundConf>  (450) 
nan

>  <Num_Resolved_Atoms>  (450) 
nan

>  <Num_Not_Resolved_Atoms>  (450) 
nan

$$$$
CHEMBL3691587
     RDKit          3D

  0  0  0  0  0  0  0  0  0  0999 V3000
M  V30 BEGIN CTAB
M  V30 COUNTS 71 76 0 0 0
M  V30 BEGIN ATOM
M  V30 1 C 4.062599 -0.066024 3.543298 0
M  V30 2 N 3.245501 0.592014 2.512654 0
M  V30 3 C 3.137177 -0.099515 1.223494 0
M  V30 4 C 2.667849 1.841687 2.941676 0
M  V30 5 O 3.000286 2.096916 4.127331 0
M  V30 6 C 1.892368 2.388462 1.861659 0
M  V30 7 C 2.355791 3.327603 0.980233 0
M  V30 8 C 1.274467 3.523487 0.130508 0
M  V30 9 C 1.225758 4.378259 -0.962803 0
M  V30 10 N 0.085749 4.410969 -1.672195 0
M  V30 11 C -0.946666 3.630144 -1.307066 0
M  V30 12 N -2.237942 3.389211 -1.872565 0
M  V30 13 C -2.228616 2.139905 -2.583367 0
M  V30 14 C -3.356007 1.674498 -3.212563 0
M  V30 15 C -3.446066 0.482920 -3.891621 0
M  V30 16 C -2.326871 -0.316150 -3.952085 0
M  V30 17 C -1.921526 -1.609341 -4.507493 0
M  V30 18 O -1.772037 -1.630495 -5.739709 0
M  V30 19 N -1.735312 -2.709568 -3.596735 0
M  V30 20 C -1.940572 -2.642477 -2.169491 0
M  V30 21 C -0.987955 -3.555272 -1.467783 0
M  V30 22 C 0.415351 -2.951897 -1.641378 0
M  V30 23 C 0.784829 -3.413100 -3.047916 0
M  V30 24 C -0.190306 -4.512487 -3.366697 0
M  V30 25 C -1.295106 -3.923550 -4.259012 0
M  V30 26 N -0.800756 -4.825878 -2.096175 0
M  V30 27 C 0.236816 -5.532491 -1.326194 0
M  V30 28 C -1.170077 0.158743 -3.309326 0
M  V30 29 N -1.183862 1.337226 -2.672991 0
M  V30 30 N -0.854934 2.817992 -0.239310 0
M  V30 31 C 0.237172 2.711125 0.535845 0
M  V30 32 N 0.633556 1.996649 1.630940 0
M  V30 33 C -0.309731 1.109340 2.189722 0
M  V30 34 C -0.021196 0.596040 3.563269 0
M  V30 35 C -1.258715 -0.300616 3.765699 0
M  V30 36 C -1.600823 -0.799501 2.354027 0
M  V30 37 C -0.526118 -0.189466 1.439317 0
M  V30 38 H 3.772629 -1.145116 3.523079 0
M  V30 39 H 3.838455 0.303065 4.555874 0
M  V30 40 H 5.143527 0.063572 3.321516 0
M  V30 41 H 4.171594 -0.188757 0.834548 0
M  V30 42 H 2.495827 0.474454 0.522829 0
M  V30 43 H 2.762362 -1.126450 1.399593 0
M  V30 44 H 3.327970 3.792694 0.962317 0
M  V30 45 H 2.067886 4.993084 -1.234080 0
M  V30 46 H -3.114116 3.948677 -1.840168 0
M  V30 47 H -4.286566 2.218529 -3.227362 0
M  V30 48 H -4.220481 -0.014643 -4.421622 0
M  V30 49 H -1.813591 -1.619085 -1.756006 0
M  V30 50 H -2.968277 -3.035214 -1.984030 0
M  V30 51 H -1.224892 -3.661280 -0.381749 0
M  V30 52 H 1.119305 -3.292196 -0.876732 0
M  V30 53 H 0.311337 -1.875067 -1.542016 0
M  V30 54 H 1.834478 -3.743831 -3.056989 0
M  V30 55 H 0.680273 -2.590899 -3.765805 0
M  V30 56 H 0.286503 -5.383909 -3.852693 0
M  V30 57 H -0.920941 -3.774567 -5.277865 0
M  V30 58 H -2.151761 -4.626838 -4.198433 0
M  V30 59 H 0.181418 -5.257689 -0.233112 0
M  V30 60 H 1.249703 -5.248385 -1.660825 0
M  V30 61 H 0.125888 -6.621871 -1.357092 0
M  V30 62 H -0.157666 -0.251378 -3.206572 0
M  V30 63 H -1.350396 1.555877 2.258650 0
M  V30 64 H 0.023061 1.415318 4.307865 0
M  V30 65 H 0.818319 -0.110569 3.650625 0
M  V30 66 H -2.095232 0.272109 4.213313 0
M  V30 67 H -1.035382 -1.165096 4.398488 0
M  V30 68 H -2.548247 -0.308527 2.077361 0
M  V30 69 H -1.633940 -1.890135 2.310528 0
M  V30 70 H -0.985596 -0.056171 0.451946 0
M  V30 71 H 0.337050 -0.864613 1.445474 0
M  V30 END ATOM
M  V30 BEGIN BOND
M  V30 1 1 1 2
M  V30 2 1 2 3
M  V30 3 1 2 4
M  V30 4 2 4 5
M  V30 5 1 4 6
M  V30 6 2 6 7
M  V30 7 1 7 8
M  V30 8 2 8 9
M  V30 9 1 9 10
M  V30 10 2 10 11
M  V30 11 1 11 12
M  V30 12 1 12 13
M  V30 13 2 13 14
M  V30 14 1 14 15
M  V30 15 2 15 16
M  V30 16 1 16 17
M  V30 17 2 17 18
M  V30 18 1 17 19
M  V30 19 1 19 20
M  V30 20 1 20 21
M  V30 21 1 21 22
M  V30 22 1 22 23
M  V30 23 1 23 24
M  V30 24 1 24 25
M  V30 25 1 24 26
M  V30 26 1 26 27
M  V30 27 1 16 28
M  V30 28 2 28 29
M  V30 29 1 11 30
M  V30 30 2 30 31
M  V30 31 1 31 32
M  V30 32 1 32 33
M  V30 33 1 33 34
M  V30 34 1 34 35
M  V30 35 1 35 36
M  V30 36 1 36 37
M  V30 37 1 32 6
M  V30 38 1 37 33
M  V30 39 1 31 8
M  V30 40 1 29 13
M  V30 41 1 25 19
M  V30 42 1 26 21
M  V30 43 1 1 38
M  V30 44 1 1 39
M  V30 45 1 1 40
M  V30 46 1 3 41
M  V30 47 1 3 42
M  V30 48 1 3 43
M  V30 49 1 7 44
M  V30 50 1 9 45
M  V30 51 1 12 46
M  V30 52 1 14 47
M  V30 53 1 15 48
M  V30 54 1 20 49
M  V30 55 1 20 50
M  V30 56 1 21 51
M  V30 57 1 22 52
M  V30 58 1 22 53
M  V30 59 1 23 54
M  V30 60 1 23 55
M  V30 61 1 24 56
M  V30 62 1 25 57
M  V30 63 1 25 58
M  V30 64 1 27 59
M  V30 65 1 27 60
M  V30 66 1 27 61
M  V30 67 1 28 62
M  V30 68 1 33 63
M  V30 69 1 34 64
M  V30 70 1 34 65
M  V30 71 1 35 66
M  V30 72 1 35 67
M  V30 73 1 36 68
M  V30 74 1 36 69
M  V30 75 1 37 70
M  V30 76 1 37 71
M  V30 END BOND
M  V30 END CTAB
M  END
>  <Dataset>  (451) 
ChEMBL_Kinases

>  <Ligand_Instance>  (451) 
nan

>  <PDB_ID>  (451) 
nan

>  <Standardized_SMILES>  (451) 
CN(C)C(=O)c1cc2cnc(Nc3ccc(C(=O)N4CC5CCC(C4)N5C)cn3)nc2n1C1CCCC1

>  <Name>  (451) 
nan

>  <Pocket>  (451) 
nan

>  <ATP_Site>  (451) 
nan

>  <Peripheral>  (451) 
nan

>  <Num_H_Atoms_ProtBoundConf>  (451) 
nan

>  <Num_Resolved_Atoms>  (451) 
nan

>  <Num_Not_Resolved_Atoms>  (451) 
nan

$$$$
CHEMBL3691586
     RDKit          3D

  0  0  0  0  0  0  0  0  0  0999 V3000
M  V30 BEGIN CTAB
M  V30 COUNTS 71 77 0 0 0
M  V30 BEGIN ATOM
M  V30 1 C 7.956179 1.904356 2.758195 0
M  V30 2 N 7.028820 1.560225 1.698976 0
M  V30 3 C 7.604113 0.564497 0.819659 0
M  V30 4 C 5.793425 2.259823 1.752764 0
M  V30 5 O 5.860909 3.031012 2.772202 0
M  V30 6 C 4.555355 2.347829 1.030282 0
M  V30 7 C 4.335118 3.355150 0.100937 0
M  V30 8 C 3.075680 3.132733 -0.382418 0
M  V30 9 C 2.330362 3.807144 -1.318950 0
M  V30 10 N 1.106965 3.348487 -1.592947 0
M  V30 11 C 0.538134 2.275412 -1.026709 0
M  V30 12 N -0.771551 1.881646 -1.400577 0
M  V30 13 C -1.531834 0.780402 -0.948640 0
M  V30 14 C -1.101937 -0.141378 -0.020515 0
M  V30 15 C -1.838198 -1.234853 0.424225 0
M  V30 16 C -3.088664 -1.354071 -0.143386 0
M  V30 17 C -3.902669 -2.460868 0.258390 0
M  V30 18 O -3.435199 -3.280232 1.122591 0
M  V30 19 C -5.181706 -3.080817 0.046180 0
M  V30 20 C -5.261776 -4.333169 -0.758096 0
M  V30 21 C -5.959224 -3.455495 -1.760868 0 CFG=1
M  V30 22 C -7.235893 -3.963316 -2.316637 0
M  V30 23 C -8.431225 -3.209806 -1.811043 0 CFG=1
M  V30 24 O -9.596514 -3.938344 -2.078189 0
M  V30 25 C -8.310289 -3.113321 -0.313360 0
M  V30 26 C -7.061404 -2.392639 0.102713 0 CFG=1
M  V30 27 C -6.212484 -3.068943 1.135901 0
M  V30 28 N -6.020667 -2.348960 -0.880342 0
M  V30 29 C -3.532955 -0.440922 -1.071703 0
M  V30 30 N -2.762203 0.584653 -1.446704 0
M  V30 31 N 1.325059 1.678401 -0.130455 0
M  V30 32 C 2.558319 2.038230 0.228651 0
M  V30 33 N 3.484246 1.563277 1.099793 0
M  V30 34 C 3.186841 0.408352 1.885721 0
M  V30 35 C 2.908312 -0.734383 0.932530 0
M  V30 36 C 4.284091 -1.319923 0.712726 0
M  V30 37 C 4.776084 -1.385401 2.163549 0
M  V30 38 C 4.185221 -0.135695 2.792442 0
M  V30 39 H 7.534291 2.504626 3.564306 0
M  V30 40 H 8.845773 2.412694 2.283364 0
M  V30 41 H 8.408337 0.983147 3.228491 0
M  V30 42 H 8.626821 0.915493 0.504729 0
M  V30 43 H 7.040068 0.446114 -0.127574 0
M  V30 44 H 7.786802 -0.412675 1.304438 0
M  V30 45 H 4.967407 4.173738 -0.227416 0
M  V30 46 H 2.724580 4.677129 -1.813927 0
M  V30 47 H -1.237874 2.507058 -2.121686 0
M  V30 48 H -0.121832 -0.045477 0.423181 0
M  V30 49 H -1.422904 -1.920614 1.164558 0
M  V30 50 H -5.949603 -5.087845 -0.349589 0
M  V30 51 H -4.313517 -4.787317 -1.086693 0
M  V30 52 H -5.239601 -3.238044 -2.602225 0
M  V30 53 H -7.349160 -5.051479 -2.051444 0
M  V30 54 H -7.280723 -3.880173 -3.442440 0
M  V30 55 H -8.470124 -2.214280 -2.306619 0
M  V30 56 H -9.420554 -4.891805 -1.900679 0
M  V30 57 H -9.220248 -2.589751 0.067317 0
M  V30 58 H -8.385695 -4.147088 0.084790 0
M  V30 59 H -7.308506 -1.361709 0.429303 0
M  V30 60 H -5.974184 -2.510659 2.039437 0
M  V30 61 H -6.584375 -4.095425 1.388541 0
M  V30 62 H -4.521306 -0.581159 -1.483216 0
M  V30 63 H 2.181793 0.592061 2.390785 0
M  V30 64 H 2.231619 -1.488436 1.364524 0
M  V30 65 H 2.563417 -0.339053 -0.043273 0
M  V30 66 H 4.166988 -2.338366 0.288401 0
M  V30 67 H 4.943184 -0.687211 0.121642 0
M  V30 68 H 4.345128 -2.325991 2.555139 0
M  V30 69 H 5.858405 -1.450479 2.251207 0
M  V30 70 H 3.618645 -0.533520 3.693735 0
M  V30 71 H 4.937378 0.507974 3.241603 0
M  V30 END ATOM
M  V30 BEGIN BOND
M  V30 1 1 1 2
M  V30 2 1 2 3
M  V30 3 1 2 4
M  V30 4 2 4 5
M  V30 5 1 4 6
M  V30 6 2 6 7
M  V30 7 1 7 8
M  V30 8 2 8 9
M  V30 9 1 9 10
M  V30 10 2 10 11
M  V30 11 1 11 12
M  V30 12 1 12 13
M  V30 13 2 13 14
M  V30 14 1 14 15
M  V30 15 2 15 16
M  V30 16 1 16 17
M  V30 17 2 17 18
M  V30 18 1 17 19
M  V30 19 1 19 20
M  V30 20 1 20 21
M  V30 21 1 21 22
M  V30 22 1 22 23
M  V30 23 1 23 24
M  V30 24 1 23 25
M  V30 25 1 25 26
M  V30 26 1 26 27
M  V30 27 1 26 28
M  V30 28 1 16 29
M  V30 29 2 29 30
M  V30 30 1 11 31
M  V30 31 2 31 32
M  V30 32 1 32 33
M  V30 33 1 33 34
M  V30 34 1 34 35
M  V30 35 1 35 36
M  V30 36 1 36 37
M  V30 37 1 37 38
M  V30 38 1 33 6
M  V30 39 1 38 34
M  V30 40 1 32 8
M  V30 41 1 30 13
M  V30 42 1 27 19
M  V30 43 1 28 19
M  V30 44 1 28 21
M  V30 45 1 1 39
M  V30 46 1 1 40
M  V30 47 1 1 41
M  V30 48 1 3 42
M  V30 49 1 3 43
M  V30 50 1 3 44
M  V30 51 1 7 45
M  V30 52 1 9 46
M  V30 53 1 12 47
M  V30 54 1 14 48
M  V30 55 1 15 49
M  V30 56 1 20 50
M  V30 57 1 20 51
M  V30 58 1 21 52 CFG=3
M  V30 59 1 22 53
M  V30 60 1 22 54
M  V30 61 1 23 55 CFG=3
M  V30 62 1 24 56
M  V30 63 1 25 57
M  V30 64 1 25 58
M  V30 65 1 26 59 CFG=1
M  V30 66 1 27 60
M  V30 67 1 27 61
M  V30 68 1 29 62
M  V30 69 1 34 63
M  V30 70 1 35 64
M  V30 71 1 35 65
M  V30 72 1 36 66
M  V30 73 1 36 67
M  V30 74 1 37 68
M  V30 75 1 37 69
M  V30 76 1 38 70
M  V30 77 1 38 71
M  V30 END BOND
M  V30 END CTAB
M  END
>  <Dataset>  (452) 
ChEMBL_Kinases

>  <Ligand_Instance>  (452) 
nan

>  <PDB_ID>  (452) 
nan

>  <Standardized_SMILES>  (452) 
CN(C)C(=O)c1cc2cnc(Nc3ccc(C(=O)C45C[C@H]6C[C@@H](O)C[C@@H](C4)N65)cn3)nc2n1C1CCCC1

>  <Name>  (452) 
nan

>  <Pocket>  (452) 
nan

>  <ATP_Site>  (452) 
nan

>  <Peripheral>  (452) 
nan

>  <Num_H_Atoms_ProtBoundConf>  (452) 
nan

>  <Num_Resolved_Atoms>  (452) 
nan

>  <Num_Not_Resolved_Atoms>  (452) 
nan

$$$$
CHEMBL3691585
     RDKit          3D

  0  0  0  0  0  0  0  0  0  0999 V3000
M  V30 BEGIN CTAB
M  V30 COUNTS 65 70 0 0 0
M  V30 BEGIN ATOM
M  V30 1 C 4.567597 2.102563 6.568558 0
M  V30 2 N 4.648719 1.990945 5.120134 0
M  V30 3 C 5.570416 2.884786 4.397860 0
M  V30 4 C 3.788792 0.984772 4.607343 0
M  V30 5 O 3.490772 0.824826 5.811186 0
M  V30 6 C 3.579495 0.568654 3.234645 0
M  V30 7 C 4.689458 0.384131 2.453027 0
M  V30 8 C 4.133632 -0.012243 1.245783 0
M  V30 9 C 4.693603 -0.365819 0.021341 0
M  V30 10 N 3.887477 -0.719567 -0.986994 0
M  V30 11 C 2.547631 -0.764213 -0.916885 0
M  V30 12 N 1.825402 -1.163768 -2.068339 0
M  V30 13 C 0.429368 -1.308717 -2.263456 0
M  V30 14 C -0.387569 -1.030149 -1.194002 0
M  V30 15 C -1.761559 -1.183271 -1.400156 0
M  V30 16 C -2.148100 -1.597181 -2.653642 0
M  V30 17 C -3.528978 -1.801472 -3.017687 0
M  V30 18 O -3.912560 -2.642871 -2.133826 0
M  V30 19 N -4.857452 -2.239246 -3.064950 0
M  V30 20 C -5.796576 -3.108060 -2.397599 0
M  V30 21 C -6.167347 -4.040242 -3.539761 0 CFG=2
M  V30 22 C -5.295329 -4.154711 -4.726240 0 CFG=1
M  V30 23 N -5.519287 -5.309974 -5.579425 0
M  V30 24 C -6.280437 -3.061246 -4.680824 0 CFG=2
M  V30 25 C -5.768953 -1.729235 -4.106073 0
M  V30 26 C -1.328902 -1.875739 -3.725209 0
M  V30 27 N 0.003684 -1.710403 -3.470873 0
M  V30 28 N 2.075502 -0.415635 0.276853 0
M  V30 29 C 2.766304 -0.046075 1.354215 0
M  V30 30 N 2.439062 0.326359 2.621797 0
M  V30 31 C 1.063643 0.382229 3.013616 0
M  V30 32 C 0.801921 0.829984 4.411706 0
M  V30 33 C -0.689190 1.132884 4.379073 0
M  V30 34 C -0.957029 1.673846 2.979995 0
M  V30 35 C 0.365183 1.501522 2.224571 0
M  V30 36 H 4.892135 1.148338 7.075651 0
M  V30 37 H 5.312516 2.856404 6.949705 0
M  V30 38 H 3.574461 2.456234 6.911617 0
M  V30 39 H 5.750323 3.784076 4.988041 0
M  V30 40 H 6.494600 2.252675 4.255766 0
M  V30 41 H 5.224695 3.153534 3.401965 0
M  V30 42 H 5.741881 0.474194 2.580626 0
M  V30 43 H 5.761058 -0.350995 -0.101577 0
M  V30 44 H 2.424308 -1.391328 -2.919420 0
M  V30 45 H -0.142409 -0.707214 -0.202155 0
M  V30 46 H -2.528481 -0.996051 -0.634961 0
M  V30 47 H -6.688365 -2.538294 -2.038851 0
M  V30 48 H -5.348411 -3.678435 -1.571188 0
M  V30 49 H -6.947684 -4.803103 -3.358081 0
M  V30 50 H -4.225133 -3.848407 -4.687630 0
M  V30 51 H -6.385279 -5.830551 -5.256064 0
M  V30 52 H -4.674861 -5.942766 -5.488411 0
M  V30 53 H -7.238028 -3.071562 -5.233597 0
M  V30 54 H -5.229473 -1.230657 -4.907190 0
M  V30 55 H -6.592407 -1.169324 -3.659312 0
M  V30 56 H -1.612517 -2.200416 -4.712405 0
M  V30 57 H 0.527561 -0.578739 2.864778 0
M  V30 58 H 1.290248 1.807801 4.566725 0
M  V30 59 H 0.952702 0.082011 5.189041 0
M  V30 60 H -1.010029 1.853208 5.144340 0
M  V30 61 H -1.213178 0.188201 4.531402 0
M  V30 62 H -1.238695 2.725575 3.070910 0
M  V30 63 H -1.712200 1.036976 2.497257 0
M  V30 64 H 0.207365 1.204844 1.186279 0
M  V30 65 H 0.983842 2.398302 2.365767 0
M  V30 END ATOM
M  V30 BEGIN BOND
M  V30 1 1 1 2
M  V30 2 1 2 3
M  V30 3 1 2 4
M  V30 4 2 4 5
M  V30 5 1 4 6
M  V30 6 2 6 7
M  V30 7 1 7 8
M  V30 8 2 8 9
M  V30 9 1 9 10
M  V30 10 2 10 11
M  V30 11 1 11 12
M  V30 12 1 12 13
M  V30 13 2 13 14
M  V30 14 1 14 15
M  V30 15 2 15 16
M  V30 16 1 16 17
M  V30 17 2 17 18
M  V30 18 1 17 19
M  V30 19 1 19 20
M  V30 20 1 20 21
M  V30 21 1 21 22
M  V30 22 1 22 23
M  V30 23 1 22 24
M  V30 24 1 24 25
M  V30 25 1 16 26
M  V30 26 2 26 27
M  V30 27 1 11 28
M  V30 28 2 28 29
M  V30 29 1 29 30
M  V30 30 1 30 31
M  V30 31 1 31 32
M  V30 32 1 32 33
M  V30 33 1 33 34
M  V30 34 1 34 35
M  V30 35 1 30 6
M  V30 36 1 35 31
M  V30 37 1 29 8
M  V30 38 1 27 13
M  V30 39 1 25 19
M  V30 40 1 24 21
M  V30 41 1 1 36
M  V30 42 1 1 37
M  V30 43 1 1 38
M  V30 44 1 3 39
M  V30 45 1 3 40
M  V30 46 1 3 41
M  V30 47 1 7 42
M  V30 48 1 9 43
M  V30 49 1 12 44
M  V30 50 1 14 45
M  V30 51 1 15 46
M  V30 52 1 20 47
M  V30 53 1 20 48
M  V30 54 1 21 49 CFG=1
M  V30 55 1 22 50 CFG=1
M  V30 56 1 23 51
M  V30 57 1 23 52
M  V30 58 1 24 53 CFG=3
M  V30 59 1 25 54
M  V30 60 1 25 55
M  V30 61 1 26 56
M  V30 62 1 31 57
M  V30 63 1 32 58
M  V30 64 1 32 59
M  V30 65 1 33 60
M  V30 66 1 33 61
M  V30 67 1 34 62
M  V30 68 1 34 63
M  V30 69 1 35 64
M  V30 70 1 35 65
M  V30 END BOND
M  V30 END CTAB
M  END
>  <Dataset>  (453) 
ChEMBL_Kinases

>  <Ligand_Instance>  (453) 
nan

>  <PDB_ID>  (453) 
nan

>  <Standardized_SMILES>  (453) 
CN(C)C(=O)c1cc2cnc(Nc3ccc(C(=O)N4C[C@@H]5[C@@H](N)[C@@H]5C4)cn3)nc2n1C1CCCC1

>  <Name>  (453) 
nan

>  <Pocket>  (453) 
nan

>  <ATP_Site>  (453) 
nan

>  <Peripheral>  (453) 
nan

>  <Num_H_Atoms_ProtBoundConf>  (453) 
nan

>  <Num_Resolved_Atoms>  (453) 
nan

>  <Num_Not_Resolved_Atoms>  (453) 
nan

$$$$
CHEMBL3691584
     RDKit          3D

  0  0  0  0  0  0  0  0  0  0999 V3000
M  V30 BEGIN CTAB
M  V30 COUNTS 65 70 0 0 0
M  V30 BEGIN ATOM
M  V30 1 C 1.742021 -1.712170 5.578518 0
M  V30 2 N 2.619843 -1.506716 4.452292 0
M  V30 3 C 3.874266 -2.281532 4.451607 0
M  V30 4 C 2.407166 -0.684298 3.371236 0
M  V30 5 O 1.594880 -0.780898 4.316203 0
M  V30 6 C 2.542688 0.013385 2.139411 0
M  V30 7 C 3.717601 -0.080322 1.440588 0
M  V30 8 C 3.452964 0.575991 0.247613 0
M  V30 9 C 4.206339 0.760153 -0.901836 0
M  V30 10 N 3.635874 1.368498 -1.967175 0
M  V30 11 C 2.356849 1.777289 -1.887358 0
M  V30 12 N 1.857671 2.183469 -3.199916 0
M  V30 13 C 0.457640 1.756079 -3.113234 0
M  V30 14 C -0.330639 1.688607 -2.018926 0
M  V30 15 C -1.402648 0.758661 -1.964438 0
M  V30 16 C -1.499159 0.002105 -3.125109 0
M  V30 17 C -2.429980 -1.043200 -2.750023 0
M  V30 18 O -3.164307 -0.941294 -1.738549 0
M  V30 19 N -3.210165 -2.198842 -2.646896 0
M  V30 20 C -4.140959 -2.417890 -1.519732 0
M  V30 21 C -3.703917 -3.861632 -1.640588 0
M  V30 22 C -2.471780 -4.321304 -0.992903 0
M  V30 23 N -3.249497 -5.424541 -0.421658 0
M  V30 24 C -4.482965 -4.883677 -0.997041 0
M  V30 25 C -3.674028 -3.533121 -3.089223 0
M  V30 26 C -0.717981 0.061209 -4.275322 0
M  V30 27 N 0.313979 0.993759 -4.252352 0
M  V30 28 N 1.732919 1.564691 -0.749230 0
M  V30 29 C 2.165487 0.986725 0.369966 0
M  V30 30 N 1.556659 0.667015 1.527401 0
M  V30 31 C 0.225127 1.124623 1.734099 0
M  V30 32 C -0.390861 0.932731 3.063935 0
M  V30 33 C -1.612557 1.895415 2.937056 0
M  V30 34 C -1.108332 3.018265 2.056371 0
M  V30 35 C 0.328065 2.678195 1.734066 0
M  V30 36 H 0.784403 -2.180282 5.203774 0
M  V30 37 H 2.167323 -2.474416 6.273431 0
M  V30 38 H 1.474708 -0.826950 6.151708 0
M  V30 39 H 4.310334 -2.114581 5.467058 0
M  V30 40 H 3.636748 -3.378060 4.420135 0
M  V30 41 H 4.575249 -1.947430 3.680077 0
M  V30 42 H 4.645424 -0.549566 1.721949 0
M  V30 43 H 5.211164 0.394104 -0.864012 0
M  V30 44 H 2.440115 2.634273 -3.896774 0
M  V30 45 H -0.043857 2.450675 -1.315023 0
M  V30 46 H -1.892300 0.865793 -1.029734 0
M  V30 47 H -3.871317 -2.042326 -0.539427 0
M  V30 48 H -5.182047 -2.293161 -1.854342 0
M  V30 49 H -1.743166 -4.815348 -1.711123 0
M  V30 50 H -1.921994 -3.697284 -0.293131 0
M  V30 51 H -3.250718 -5.339545 0.618787 0
M  V30 52 H -4.967826 -5.684876 -1.573775 0
M  V30 53 H -5.150904 -4.474103 -0.165247 0
M  V30 54 H -2.990002 -4.086585 -3.723896 0
M  V30 55 H -4.673630 -3.411415 -3.539205 0
M  V30 56 H -1.051034 -0.647172 -5.016863 0
M  V30 57 H -0.470767 0.918370 0.906660 0
M  V30 58 H 0.205212 1.434334 3.860630 0
M  V30 59 H -0.784031 -0.052171 3.308729 0
M  V30 60 H -2.367092 1.319539 2.379997 0
M  V30 61 H -1.951994 2.245365 3.915109 0
M  V30 62 H -1.105501 3.998764 2.579956 0
M  V30 63 H -1.625887 3.074376 1.070435 0
M  V30 64 H 0.705775 3.059318 0.801131 0
M  V30 65 H 1.008283 2.877121 2.598925 0
M  V30 END ATOM
M  V30 BEGIN BOND
M  V30 1 1 1 2
M  V30 2 1 2 3
M  V30 3 1 2 4
M  V30 4 2 4 5
M  V30 5 1 4 6
M  V30 6 2 6 7
M  V30 7 1 7 8
M  V30 8 2 8 9
M  V30 9 1 9 10
M  V30 10 2 10 11
M  V30 11 1 11 12
M  V30 12 1 12 13
M  V30 13 2 13 14
M  V30 14 1 14 15
M  V30 15 2 15 16
M  V30 16 1 16 17
M  V30 17 2 17 18
M  V30 18 1 17 19
M  V30 19 1 19 20
M  V30 20 1 20 21
M  V30 21 1 21 22
M  V30 22 1 22 23
M  V30 23 1 23 24
M  V30 24 1 21 25
M  V30 25 1 16 26
M  V30 26 2 26 27
M  V30 27 1 11 28
M  V30 28 2 28 29
M  V30 29 1 29 30
M  V30 30 1 30 31
M  V30 31 1 31 32
M  V30 32 1 32 33
M  V30 33 1 33 34
M  V30 34 1 34 35
M  V30 35 1 30 6
M  V30 36 1 35 31
M  V30 37 1 29 8
M  V30 38 1 27 13
M  V30 39 1 25 19
M  V30 40 1 24 21
M  V30 41 1 1 36
M  V30 42 1 1 37
M  V30 43 1 1 38
M  V30 44 1 3 39
M  V30 45 1 3 40
M  V30 46 1 3 41
M  V30 47 1 7 42
M  V30 48 1 9 43
M  V30 49 1 12 44
M  V30 50 1 14 45
M  V30 51 1 15 46
M  V30 52 1 20 47
M  V30 53 1 20 48
M  V30 54 1 22 49
M  V30 55 1 22 50
M  V30 56 1 23 51
M  V30 57 1 24 52
M  V30 58 1 24 53
M  V30 59 1 25 54
M  V30 60 1 25 55
M  V30 61 1 26 56
M  V30 62 1 31 57
M  V30 63 1 32 58
M  V30 64 1 32 59
M  V30 65 1 33 60
M  V30 66 1 33 61
M  V30 67 1 34 62
M  V30 68 1 34 63
M  V30 69 1 35 64
M  V30 70 1 35 65
M  V30 END BOND
M  V30 END CTAB
M  END
>  <Dataset>  (454) 
ChEMBL_Kinases

>  <Ligand_Instance>  (454) 
nan

>  <PDB_ID>  (454) 
nan

>  <Standardized_SMILES>  (454) 
CN(C)C(=O)c1cc2cnc(Nc3ccc(C(=O)N4CC5(CNC5)C4)cn3)nc2n1C1CCCC1

>  <Name>  (454) 
nan

>  <Pocket>  (454) 
nan

>  <ATP_Site>  (454) 
nan

>  <Peripheral>  (454) 
nan

>  <Num_H_Atoms_ProtBoundConf>  (454) 
nan

>  <Num_Resolved_Atoms>  (454) 
nan

>  <Num_Not_Resolved_Atoms>  (454) 
nan

$$$$
CHEMBL3691583
     RDKit          3D

  0  0  0  0  0  0  0  0  0  0999 V3000
M  V30 BEGIN CTAB
M  V30 COUNTS 69 74 0 0 0
M  V30 BEGIN ATOM
M  V30 1 C 3.065686 -4.005309 4.073847 0
M  V30 2 N 3.011510 -2.558873 4.131748 0
M  V30 3 C 4.075429 -1.812958 4.812802 0
M  V30 4 C 1.910032 -1.987579 3.514893 0
M  V30 5 O 1.498753 -3.153534 3.208423 0
M  V30 6 C 1.252352 -0.742086 3.196585 0
M  V30 7 C 1.715486 0.521673 3.489229 0
M  V30 8 C 0.761273 1.387843 2.991689 0
M  V30 9 C 0.656118 2.760475 2.966310 0
M  V30 10 N -0.413263 3.337077 2.386531 0
M  V30 11 C -1.370391 2.557678 1.836167 0
M  V30 12 N -2.592985 2.823579 1.109449 0
M  V30 13 C -2.327917 2.634183 -0.301777 0
M  V30 14 C -3.352611 2.764791 -1.262486 0
M  V30 15 C -3.110523 2.561735 -2.594580 0
M  V30 16 C -1.863256 2.222682 -3.061854 0
M  V30 17 C -1.326405 1.919726 -4.380188 0
M  V30 18 O -1.208331 2.681698 -5.390518 0
M  V30 19 N -0.879730 0.537834 -4.491673 0
M  V30 20 C -0.923449 -0.522475 -3.480148 0 CFG=2
M  V30 21 C 0.476322 -1.076200 -3.364335 0
M  V30 22 N 1.456031 -0.261566 -4.042107 0
M  V30 23 C 1.207286 -0.036320 -5.431220 0
M  V30 24 C -0.271922 0.092495 -5.757723 0 CFG=1
M  V30 25 C -0.859491 -1.245708 -6.093422 0
M  V30 26 O -2.016396 -1.553567 -5.389663 0
M  V30 27 C -1.803877 -1.621491 -4.026880 0
M  V30 28 C -0.875836 2.103360 -2.117330 0
M  V30 29 N -1.107737 2.300646 -0.812491 0
M  V30 30 N -1.238690 1.233437 1.879070 0
M  V30 31 C -0.190821 0.567966 2.444960 0
M  V30 32 N 0.079479 -0.749398 2.553133 0
M  V30 33 C -0.707963 -1.865033 2.079592 0
M  V30 34 C -1.765253 -1.500080 1.101752 0
M  V30 35 C -3.071788 -1.436300 1.866185 0
M  V30 36 C -2.832077 -2.068414 3.208323 0
M  V30 37 C -1.394427 -2.534129 3.252931 0
M  V30 38 H 4.076757 -4.324348 4.451304 0
M  V30 39 H 2.329340 -4.399766 4.795100 0
M  V30 40 H 2.891585 -4.404366 3.045549 0
M  V30 41 H 4.446793 -2.389467 5.706067 0
M  V30 42 H 3.708300 -0.863226 5.214511 0
M  V30 43 H 4.890402 -1.611875 4.111433 0
M  V30 44 H 2.612186 0.841347 3.991656 0
M  V30 45 H 1.394531 3.407420 3.389113 0
M  V30 46 H -3.563417 3.104636 1.338454 0
M  V30 47 H -4.342951 3.026978 -0.950187 0
M  V30 48 H -3.828119 2.633054 -3.397506 0
M  V30 49 H -1.314532 -0.161654 -2.517009 0
M  V30 50 H 0.762933 -1.014323 -2.272403 0
M  V30 51 H 0.596472 -2.113013 -3.660368 0
M  V30 52 H 2.371010 -0.757040 -3.967883 0
M  V30 53 H 1.711634 -0.782945 -6.071487 0
M  V30 54 H 1.674540 0.945108 -5.680517 0
M  V30 55 H -0.454403 0.861478 -6.503493 0
M  V30 56 H -1.142715 -1.223965 -7.165065 0
M  V30 57 H -0.100041 -2.071537 -6.002195 0
M  V30 58 H -1.477357 -2.628414 -3.664256 0
M  V30 59 H -2.820107 -1.470494 -3.554096 0
M  V30 60 H 0.172418 1.853079 -2.214413 0
M  V30 61 H -0.056471 -2.628248 1.589504 0
M  V30 62 H -1.579206 -0.625160 0.471859 0
M  V30 63 H -1.897439 -2.345942 0.357204 0
M  V30 64 H -3.511233 -0.419822 1.912744 0
M  V30 65 H -3.875286 -2.056591 1.366338 0
M  V30 66 H -3.486761 -2.936568 3.429585 0
M  V30 67 H -3.065540 -1.317003 4.004979 0
M  V30 68 H -1.332114 -3.649839 3.189264 0
M  V30 69 H -0.922638 -2.210075 4.215942 0
M  V30 END ATOM
M  V30 BEGIN BOND
M  V30 1 1 1 2
M  V30 2 1 2 3
M  V30 3 1 2 4
M  V30 4 2 4 5
M  V30 5 1 4 6
M  V30 6 2 6 7
M  V30 7 1 7 8
M  V30 8 2 8 9
M  V30 9 1 9 10
M  V30 10 2 10 11
M  V30 11 1 11 12
M  V30 12 1 12 13
M  V30 13 2 13 14
M  V30 14 1 14 15
M  V30 15 2 15 16
M  V30 16 1 16 17
M  V30 17 2 17 18
M  V30 18 1 17 19
M  V30 19 1 19 20
M  V30 20 1 20 21
M  V30 21 1 21 22
M  V30 22 1 22 23
M  V30 23 1 23 24
M  V30 24 1 24 25
M  V30 25 1 25 26
M  V30 26 1 26 27
M  V30 27 1 16 28
M  V30 28 2 28 29
M  V30 29 1 11 30
M  V30 30 2 30 31
M  V30 31 1 31 32
M  V30 32 1 32 33
M  V30 33 1 33 34
M  V30 34 1 34 35
M  V30 35 1 35 36
M  V30 36 1 36 37
M  V30 37 1 32 6
M  V30 38 1 37 33
M  V30 39 1 31 8
M  V30 40 1 29 13
M  V30 41 1 24 19
M  V30 42 1 27 20
M  V30 43 1 1 38
M  V30 44 1 1 39
M  V30 45 1 1 40
M  V30 46 1 3 41
M  V30 47 1 3 42
M  V30 48 1 3 43
M  V30 49 1 7 44
M  V30 50 1 9 45
M  V30 51 1 12 46
M  V30 52 1 14 47
M  V30 53 1 15 48
M  V30 54 1 20 49 CFG=1
M  V30 55 1 21 50
M  V30 56 1 21 51
M  V30 57 1 22 52
M  V30 58 1 23 53
M  V30 59 1 23 54
M  V30 60 1 24 55 CFG=3
M  V30 61 1 25 56
M  V30 62 1 25 57
M  V30 63 1 27 58
M  V30 64 1 27 59
M  V30 65 1 28 60
M  V30 66 1 33 61
M  V30 67 1 34 62
M  V30 68 1 34 63
M  V30 69 1 35 64
M  V30 70 1 35 65
M  V30 71 1 36 66
M  V30 72 1 36 67
M  V30 73 1 37 68
M  V30 74 1 37 69
M  V30 END BOND
M  V30 END CTAB
M  END
>  <Dataset>  (455) 
ChEMBL_Kinases

>  <Ligand_Instance>  (455) 
nan

>  <PDB_ID>  (455) 
nan

>  <Standardized_SMILES>  (455) 
CN(C)C(=O)c1cc2cnc(Nc3ccc(C(=O)N4[C@@H]5CNC[C@H]4COC5)cn3)nc2n1C1CCCC1

>  <Name>  (455) 
nan

>  <Pocket>  (455) 
nan

>  <ATP_Site>  (455) 
nan

>  <Peripheral>  (455) 
nan

>  <Num_H_Atoms_ProtBoundConf>  (455) 
nan

>  <Num_Resolved_Atoms>  (455) 
nan

>  <Num_Not_Resolved_Atoms>  (455) 
nan

$$$$
CHEMBL3691582
     RDKit          3D

  0  0  0  0  0  0  0  0  0  0999 V3000
M  V30 BEGIN CTAB
M  V30 COUNTS 81 86 0 0 0
M  V30 BEGIN ATOM
M  V30 1 C 1.636044 -0.458676 3.485852 0
M  V30 2 N 3.031855 -0.815980 3.271527 0
M  V30 3 C 3.177561 -2.045683 2.584176 0
M  V30 4 C 4.580087 -2.307801 2.131886 0
M  V30 5 C 4.871834 -3.778440 2.277494 0
M  V30 6 C 4.789657 -1.961112 0.653324 0
M  V30 7 N 4.517963 -0.583548 0.432712 0
M  V30 8 C 3.570634 0.141295 -0.293678 0
M  V30 9 O 3.399867 -1.082922 -0.489984 0
M  V30 10 C 2.629185 0.935815 -1.012329 0
M  V30 11 C 1.356160 0.653230 -0.465171 0
M  V30 12 C 0.287618 1.363217 -1.029608 0
M  V30 13 C 0.571825 2.257201 -2.050532 0
M  V30 14 N -0.492085 3.026989 -2.681108 0
M  V30 15 C -1.709045 2.629774 -2.049154 0
M  V30 16 N -2.044567 3.324457 -0.921605 0
M  V30 17 C -3.102182 3.055088 -0.166452 0
M  V30 18 C -3.897022 2.009508 -0.556794 0
M  V30 19 C -5.016867 1.416402 -0.054988 0
M  V30 20 C -5.390054 0.370432 -0.846356 0
M  V30 21 C -6.530951 -0.497452 -0.552042 0
M  V30 22 O -7.747476 -0.556601 -0.899186 0
M  V30 23 N -6.033496 -1.502230 0.377068 0
M  V30 24 C -4.682456 -1.639902 0.919784 0
M  V30 25 C -6.824146 -2.575679 0.930626 0
M  V30 26 N -4.518085 0.285763 -1.859933 0
M  V30 27 C -4.539595 -0.654248 -2.936613 0
M  V30 28 C -3.203918 -0.901309 -3.586288 0
M  V30 29 C -3.235259 -2.309505 -4.110544 0
M  V30 30 C -4.659794 -2.763381 -3.889177 0
M  V30 31 C -5.004907 -2.027780 -2.584548 0
M  V30 32 C -3.607166 1.266295 -1.701055 0
M  V30 33 N -2.522648 1.605125 -2.405592 0
M  V30 34 N 1.843991 2.452526 -2.505429 0
M  V30 35 C 2.899661 1.808020 -2.009107 0
M  V30 36 C 5.546089 0.130528 1.174835 0
M  V30 37 C 5.261880 -0.049941 2.644910 0
M  V30 38 C 6.219370 0.855184 3.414005 0
M  V30 39 C 3.826685 0.291200 2.890980 0
M  V30 40 C 5.513058 -1.501178 2.992047 0
M  V30 41 O 6.835944 -1.848297 2.687079 0
M  V30 42 H 0.947975 -1.156359 2.959802 0
M  V30 43 H 1.441010 -0.568644 4.568896 0
M  V30 44 H 1.417806 0.595399 3.210708 0
M  V30 45 H 2.932185 -2.853701 3.349880 0
M  V30 46 H 2.419491 -2.220643 1.789623 0
M  V30 47 H 3.928075 -4.372040 2.092329 0
M  V30 48 H 5.248532 -3.991835 3.303754 0
M  V30 49 H 5.616525 -4.052715 1.535421 0
M  V30 50 H 4.122455 -2.608897 0.088614 0
M  V30 51 H 5.823296 -2.189275 0.342941 0
M  V30 52 H 1.078525 -0.024585 0.322874 0
M  V30 53 H -0.712271 1.186239 -0.645208 0
M  V30 54 H -0.225986 3.698567 -3.425854 0
M  V30 55 H -3.354950 3.602320 0.715148 0
M  V30 56 H -5.501511 1.766663 0.848081 0
M  V30 57 H -4.052807 -0.890496 0.384926 0
M  V30 58 H -4.300339 -2.617211 0.636724 0
M  V30 59 H -4.684604 -1.460417 1.991297 0
M  V30 60 H -7.881800 -2.402279 0.618572 0
M  V30 61 H -6.466492 -3.550066 0.507821 0
M  V30 62 H -6.706734 -2.637276 2.013338 0
M  V30 63 H -5.246784 -0.246339 -3.704113 0
M  V30 64 H -3.089612 -0.239462 -4.468810 0
M  V30 65 H -2.393066 -0.722725 -2.865881 0
M  V30 66 H -2.908857 -2.369575 -5.173944 0
M  V30 67 H -2.598435 -2.936195 -3.457948 0
M  V30 68 H -4.732972 -3.854062 -3.731336 0
M  V30 69 H -5.283258 -2.367027 -4.686194 0
M  V30 70 H -6.083225 -2.134096 -2.420001 0
M  V30 71 H -4.356389 -2.509039 -1.823135 0
M  V30 72 H 3.913019 1.925311 -2.329701 0
M  V30 73 H 6.569482 -0.223535 0.989526 0
M  V30 74 H 5.552113 1.206520 0.886951 0
M  V30 75 H 6.236838 0.677496 4.484834 0
M  V30 76 H 6.069962 1.914124 3.126106 0
M  V30 77 H 7.239132 0.576029 3.009092 0
M  V30 78 H 3.821824 0.999543 3.770342 0
M  V30 79 H 3.384140 0.908677 2.047398 0
M  V30 80 H 5.271114 -1.703536 4.048040 0
M  V30 81 H 7.101821 -2.598179 3.309236 0
M  V30 END ATOM
M  V30 BEGIN BOND
M  V30 1 1 1 2
M  V30 2 1 2 3
M  V30 3 1 3 4
M  V30 4 1 4 5
M  V30 5 1 4 6
M  V30 6 1 6 7
M  V30 7 1 7 8
M  V30 8 2 8 9
M  V30 9 1 8 10
M  V30 10 2 10 11
M  V30 11 1 11 12
M  V30 12 2 12 13
M  V30 13 1 13 14
M  V30 14 1 14 15
M  V30 15 2 15 16
M  V30 16 1 16 17
M  V30 17 2 17 18
M  V30 18 1 18 19
M  V30 19 2 19 20
M  V30 20 1 20 21
M  V30 21 2 21 22
M  V30 22 1 21 23
M  V30 23 1 23 24
M  V30 24 1 23 25
M  V30 25 1 20 26
M  V30 26 1 26 27
M  V30 27 1 27 28
M  V30 28 1 28 29
M  V30 29 1 29 30
M  V30 30 1 30 31
M  V30 31 1 26 32
M  V30 32 2 32 33
M  V30 33 1 13 34
M  V30 34 2 34 35
M  V30 35 1 7 36
M  V30 36 1 36 37
M  V30 37 1 37 38
M  V30 38 1 37 39
M  V30 39 1 37 40
M  V30 40 1 40 41
M  V30 41 1 39 2
M  V30 42 1 40 4
M  V30 43 1 35 10
M  V30 44 1 33 15
M  V30 45 1 32 18
M  V30 46 1 31 27
M  V30 47 1 1 42
M  V30 48 1 1 43
M  V30 49 1 1 44
M  V30 50 1 3 45
M  V30 51 1 3 46
M  V30 52 1 5 47
M  V30 53 1 5 48
M  V30 54 1 5 49
M  V30 55 1 6 50
M  V30 56 1 6 51
M  V30 57 1 11 52
M  V30 58 1 12 53
M  V30 59 1 14 54
M  V30 60 1 17 55
M  V30 61 1 19 56
M  V30 62 1 24 57
M  V30 63 1 24 58
M  V30 64 1 24 59
M  V30 65 1 25 60
M  V30 66 1 25 61
M  V30 67 1 25 62
M  V30 68 1 27 63
M  V30 69 1 28 64
M  V30 70 1 28 65
M  V30 71 1 29 66
M  V30 72 1 29 67
M  V30 73 1 30 68
M  V30 74 1 30 69
M  V30 75 1 31 70
M  V30 76 1 31 71
M  V30 77 1 35 72
M  V30 78 1 36 73
M  V30 79 1 36 74
M  V30 80 1 38 75
M  V30 81 1 38 76
M  V30 82 1 38 77
M  V30 83 1 39 78
M  V30 84 1 39 79
M  V30 85 1 40 80
M  V30 86 1 41 81
M  V30 END BOND
M  V30 END CTAB
M  END
>  <Dataset>  (456) 
ChEMBL_Kinases

>  <Ligand_Instance>  (456) 
nan

>  <PDB_ID>  (456) 
nan

>  <Standardized_SMILES>  (456) 
CN1CC2(C)CN(C(=O)c3ccc(Nc4ncc5cc(C(=O)N(C)C)n(C6CCCC6)c5n4)nc3)CC(C)(C1)C2O

>  <Name>  (456) 
nan

>  <Pocket>  (456) 
nan

>  <ATP_Site>  (456) 
nan

>  <Peripheral>  (456) 
nan

>  <Num_H_Atoms_ProtBoundConf>  (456) 
nan

>  <Num_Resolved_Atoms>  (456) 
nan

>  <Num_Not_Resolved_Atoms>  (456) 
nan

$$$$
CHEMBL3691581
     RDKit          3D

  0  0  0  0  0  0  0  0  0  0999 V3000
M  V30 BEGIN CTAB
M  V30 COUNTS 67 72 0 0 0
M  V30 BEGIN ATOM
M  V30 1 C 6.700871 -1.696949 2.708346 0
M  V30 2 N 5.909311 -1.697734 1.501464 0
M  V30 3 C 5.932249 -2.783056 0.512899 0
M  V30 4 C 5.086376 -0.591921 1.285955 0
M  V30 5 O 5.488757 -0.062226 2.381797 0
M  V30 6 C 4.118486 0.143016 0.508283 0
M  V30 7 C 4.169798 0.474830 -0.828542 0
M  V30 8 C 2.992742 1.156117 -1.012046 0
M  V30 9 C 2.416827 1.756107 -2.120705 0
M  V30 10 N 1.204626 2.374566 -2.029612 0
M  V30 11 C 0.547261 2.411302 -0.853890 0
M  V30 12 N -0.719196 2.941446 -0.441719 0
M  V30 13 C -1.708296 1.931511 -0.192722 0
M  V30 14 C -2.992772 2.222416 0.204688 0
M  V30 15 C -3.973405 1.294687 0.473811 0
M  V30 16 C -3.629042 -0.030227 0.329725 0
M  V30 17 C -4.450157 -1.208913 0.546839 0
M  V30 18 O -5.213040 -1.230412 1.569288 0
M  V30 19 N -4.433717 -2.348383 -0.346725 0
M  V30 20 C -3.573011 -2.326061 -1.513548 0
M  V30 21 C -3.910809 -3.555808 -2.332644 0
M  V30 22 C -5.363074 -3.513484 -2.678188 0
M  V30 23 C -5.902545 -4.775131 -1.979612 0
M  V30 24 C -4.986837 -4.718651 -0.743409 0
M  V30 25 C -5.298654 -3.462613 -0.010487 0
M  V30 26 N -3.698256 -4.679658 -1.414915 0
M  V30 27 N -2.370178 -0.334524 -0.060935 0
M  V30 28 N -1.476186 0.602019 -0.303619 0
M  V30 29 N 1.126293 1.825757 0.192801 0
M  V30 30 C 2.301830 1.205913 0.176021 0
M  V30 31 N 3.020686 0.563778 1.132901 0
M  V30 32 C 2.568340 0.435877 2.490624 0
M  V30 33 C 1.096688 0.402815 2.676926 0
M  V30 34 C 0.636254 1.642797 3.362649 0
M  V30 35 C 1.881124 2.300296 3.865271 0
M  V30 36 C 3.073988 1.519467 3.389129 0
M  V30 37 H 6.952309 -2.763540 2.943010 0
M  V30 38 H 6.160276 -1.327620 3.603205 0
M  V30 39 H 7.668469 -1.174398 2.599780 0
M  V30 40 H 6.885064 -3.344510 0.682827 0
M  V30 41 H 5.077325 -3.451800 0.649065 0
M  V30 42 H 5.919602 -2.373961 -0.529885 0
M  V30 43 H 4.926081 0.265374 -1.560570 0
M  V30 44 H 2.881577 1.766248 -3.090456 0
M  V30 45 H -1.047513 3.916710 -0.289218 0
M  V30 46 H -3.284399 3.273313 0.329127 0
M  V30 47 H -4.980941 1.470096 0.782760 0
M  V30 48 H -3.743451 -1.455441 -2.178590 0
M  V30 49 H -2.497228 -2.396450 -1.207234 0
M  V30 50 H -3.270360 -3.641970 -3.235318 0
M  V30 51 H -5.925095 -2.667455 -2.209935 0
M  V30 52 H -5.587422 -3.511583 -3.758023 0
M  V30 53 H -6.960377 -4.693261 -1.730050 0
M  V30 54 H -5.607885 -5.628762 -2.593678 0
M  V30 55 H -5.100849 -5.588042 -0.092417 0
M  V30 56 H -5.321788 -3.597154 1.090091 0
M  V30 57 H -6.340604 -3.149047 -0.276224 0
M  V30 58 H -2.905628 -4.484480 -0.761179 0
M  V30 59 H 3.011883 -0.539110 2.855383 0
M  V30 60 H 0.561086 0.174580 1.739957 0
M  V30 61 H 0.833405 -0.470407 3.348534 0
M  V30 62 H 0.080770 2.355864 2.718402 0
M  V30 63 H -0.047188 1.394084 4.210631 0
M  V30 64 H 1.915659 3.367630 3.533439 0
M  V30 65 H 1.835759 2.337299 4.991022 0
M  V30 66 H 3.589149 1.093251 4.295052 0
M  V30 67 H 3.759746 2.155360 2.799167 0
M  V30 END ATOM
M  V30 BEGIN BOND
M  V30 1 1 1 2
M  V30 2 1 2 3
M  V30 3 1 2 4
M  V30 4 2 4 5
M  V30 5 1 4 6
M  V30 6 2 6 7
M  V30 7 1 7 8
M  V30 8 2 8 9
M  V30 9 1 9 10
M  V30 10 2 10 11
M  V30 11 1 11 12
M  V30 12 1 12 13
M  V30 13 2 13 14
M  V30 14 1 14 15
M  V30 15 2 15 16
M  V30 16 1 16 17
M  V30 17 2 17 18
M  V30 18 1 17 19
M  V30 19 1 19 20
M  V30 20 1 20 21
M  V30 21 1 21 22
M  V30 22 1 22 23
M  V30 23 1 23 24
M  V30 24 1 24 25
M  V30 25 1 24 26
M  V30 26 1 16 27
M  V30 27 2 27 28
M  V30 28 1 11 29
M  V30 29 2 29 30
M  V30 30 1 30 31
M  V30 31 1 31 32
M  V30 32 1 32 33
M  V30 33 1 33 34
M  V30 34 1 34 35
M  V30 35 1 35 36
M  V30 36 1 31 6
M  V30 37 1 36 32
M  V30 38 1 30 8
M  V30 39 1 28 13
M  V30 40 1 25 19
M  V30 41 1 26 21
M  V30 42 1 1 37
M  V30 43 1 1 38
M  V30 44 1 1 39
M  V30 45 1 3 40
M  V30 46 1 3 41
M  V30 47 1 3 42
M  V30 48 1 7 43
M  V30 49 1 9 44
M  V30 50 1 12 45
M  V30 51 1 14 46
M  V30 52 1 15 47
M  V30 53 1 20 48
M  V30 54 1 20 49
M  V30 55 1 21 50
M  V30 56 1 22 51
M  V30 57 1 22 52
M  V30 58 1 23 53
M  V30 59 1 23 54
M  V30 60 1 24 55
M  V30 61 1 25 56
M  V30 62 1 25 57
M  V30 63 1 26 58
M  V30 64 1 32 59
M  V30 65 1 33 60
M  V30 66 1 33 61
M  V30 67 1 34 62
M  V30 68 1 34 63
M  V30 69 1 35 64
M  V30 70 1 35 65
M  V30 71 1 36 66
M  V30 72 1 36 67
M  V30 END BOND
M  V30 END CTAB
M  END
>  <Dataset>  (457) 
ChEMBL_Kinases

>  <Ligand_Instance>  (457) 
nan

>  <PDB_ID>  (457) 
nan

>  <Standardized_SMILES>  (457) 
CN(C)C(=O)c1cc2cnc(Nc3ccc(C(=O)N4CC5CCC(C4)N5)nn3)nc2n1C1CCCC1

>  <Name>  (457) 
nan

>  <Pocket>  (457) 
nan

>  <ATP_Site>  (457) 
nan

>  <Peripheral>  (457) 
nan

>  <Num_H_Atoms_ProtBoundConf>  (457) 
nan

>  <Num_Resolved_Atoms>  (457) 
nan

>  <Num_Not_Resolved_Atoms>  (457) 
nan

$$$$
CHEMBL3691579
     RDKit          3D

  0  0  0  0  0  0  0  0  0  0999 V3000
M  V30 BEGIN CTAB
M  V30 COUNTS 72 78 0 0 0
M  V30 BEGIN ATOM
M  V30 1 C 3.873826 -2.093013 -0.509126 0
M  V30 2 N 4.259795 -1.163320 -1.553841 0
M  V30 3 C 4.796153 -1.864045 -2.694386 0
M  V30 4 C 4.142869 0.276801 -1.512240 0
M  V30 5 O 4.546712 0.903239 -2.551154 0
M  V30 6 C 3.573645 0.773847 -0.272769 0
M  V30 7 C 4.273315 1.025202 0.884415 0
M  V30 8 C 3.335180 1.464411 1.795018 0
M  V30 9 C 3.310435 1.873681 3.111302 0
M  V30 10 N 2.186594 2.255723 3.768422 0
M  V30 11 C 1.011973 2.243354 3.119628 0
M  V30 12 N -0.375789 2.504711 3.428502 0
M  V30 13 C -1.112985 1.262003 3.481362 0
M  V30 14 C -2.461762 1.265686 3.747638 0
M  V30 15 C -3.218267 0.123080 3.789213 0
M  V30 16 C -2.643700 -1.097727 3.561670 0
M  V30 17 C -2.945938 -2.519247 3.468481 0
M  V30 18 O -2.686942 -3.303796 4.391394 0
M  V30 19 N -3.545570 -2.729615 2.162869 0
M  V30 20 C -3.934644 -1.895728 1.013568 0
M  V30 21 C -3.588772 -2.614536 -0.252618 0
M  V30 22 C -4.619278 -3.623322 -0.686970 0
M  V30 23 C -3.949773 -4.991284 -0.455332 0
M  V30 24 C -3.000619 -4.582196 0.669603 0
M  V30 25 C -3.798060 -4.136075 1.880027 0
M  V30 26 N -2.384705 -3.408686 0.020535 0
M  V30 27 C -1.261789 -1.111100 3.288371 0
M  V30 28 N -0.570052 0.059325 3.261562 0
M  V30 29 N 1.062851 1.842408 1.842135 0
M  V30 30 C 2.152437 1.455599 1.153072 0
M  V30 31 N 2.243366 1.026955 -0.156138 0
M  V30 32 C 1.124647 0.937949 -1.014281 0 CFG=2
M  V30 33 C 0.989639 -0.234438 -1.923748 0
M  V30 34 C -0.020464 0.388682 -2.925137 0 CFG=1
M  V30 35 C -1.128552 1.111281 -2.260259 0
M  V30 36 C -0.603749 2.480940 -1.840210 0
M  V30 37 C 0.895198 2.162438 -1.888502 0 CFG=2
M  V30 38 C 0.918014 1.560408 -3.286783 0
M  V30 39 H 3.308253 -2.959596 -0.913337 0
M  V30 40 H 3.243243 -1.577061 0.263623 0
M  V30 41 H 4.793903 -2.414145 0.014670 0
M  V30 42 H 5.607399 -2.525260 -2.335613 0
M  V30 43 H 5.132256 -1.192205 -3.510643 0
M  V30 44 H 3.977619 -2.563002 -3.034816 0
M  V30 45 H 5.313970 0.925947 1.110342 0
M  V30 46 H 4.227511 1.901755 3.676713 0
M  V30 47 H -0.880570 3.392518 3.601805 0
M  V30 48 H -3.018041 2.161488 3.941034 0
M  V30 49 H -4.250108 -0.072149 3.974187 0
M  V30 50 H -3.483349 -0.900128 1.076362 0
M  V30 51 H -5.040338 -1.811671 1.065598 0
M  V30 52 H -3.332088 -1.961276 -1.104848 0
M  V30 53 H -5.546454 -3.585405 -0.081977 0
M  V30 54 H -4.899990 -3.495766 -1.749710 0
M  V30 55 H -3.319665 -5.294764 -1.311405 0
M  V30 56 H -4.668036 -5.752902 -0.170740 0
M  V30 57 H -2.268668 -5.376565 0.873516 0
M  V30 58 H -4.883686 -4.259245 1.714859 0
M  V30 59 H -3.522448 -4.793295 2.739385 0
M  V30 60 H -1.919463 -3.695458 -0.845679 0
M  V30 61 H -0.489884 -1.867653 3.068091 0
M  V30 62 H 0.197489 0.859309 -0.359209 0
M  V30 63 H 0.513881 -1.118378 -1.447899 0
M  V30 64 H 1.820267 -0.444850 -2.595944 0
M  V30 65 H -0.259307 -0.251940 -3.755707 0
M  V30 66 H -1.961095 1.210777 -2.984042 0
M  V30 67 H -1.509310 0.574489 -1.346835 0
M  V30 68 H -0.849451 3.233098 -2.592963 0
M  V30 69 H -0.921808 2.732596 -0.807636 0
M  V30 70 H 1.544467 2.990883 -1.733101 0
M  V30 71 H 1.904149 1.164655 -3.565044 0
M  V30 72 H 0.476381 2.217472 -4.057699 0
M  V30 END ATOM
M  V30 BEGIN BOND
M  V30 1 1 1 2
M  V30 2 1 2 3
M  V30 3 1 2 4
M  V30 4 2 4 5
M  V30 5 1 4 6
M  V30 6 2 6 7
M  V30 7 1 7 8
M  V30 8 2 8 9
M  V30 9 1 9 10
M  V30 10 2 10 11
M  V30 11 1 11 12
M  V30 12 1 12 13
M  V30 13 2 13 14
M  V30 14 1 14 15
M  V30 15 2 15 16
M  V30 16 1 16 17
M  V30 17 2 17 18
M  V30 18 1 17 19
M  V30 19 1 19 20
M  V30 20 1 20 21
M  V30 21 1 21 22
M  V30 22 1 22 23
M  V30 23 1 23 24
M  V30 24 1 24 25
M  V30 25 1 24 26
M  V30 26 1 16 27
M  V30 27 2 27 28
M  V30 28 1 11 29
M  V30 29 2 29 30
M  V30 30 1 30 31
M  V30 31 1 31 32
M  V30 32 1 32 33
M  V30 33 1 33 34
M  V30 34 1 34 35
M  V30 35 1 35 36
M  V30 36 1 36 37
M  V30 37 1 37 38
M  V30 38 1 31 6
M  V30 39 1 37 32
M  V30 40 1 30 8
M  V30 41 1 38 34
M  V30 42 1 28 13
M  V30 43 1 25 19
M  V30 44 1 26 21
M  V30 45 1 1 39
M  V30 46 1 1 40
M  V30 47 1 1 41
M  V30 48 1 3 42
M  V30 49 1 3 43
M  V30 50 1 3 44
M  V30 51 1 7 45
M  V30 52 1 9 46
M  V30 53 1 12 47
M  V30 54 1 14 48
M  V30 55 1 15 49
M  V30 56 1 20 50
M  V30 57 1 20 51
M  V30 58 1 21 52
M  V30 59 1 22 53
M  V30 60 1 22 54
M  V30 61 1 23 55
M  V30 62 1 23 56
M  V30 63 1 24 57
M  V30 64 1 25 58
M  V30 65 1 25 59
M  V30 66 1 26 60
M  V30 67 1 27 61
M  V30 68 1 32 62 CFG=1
M  V30 69 1 33 63
M  V30 70 1 33 64
M  V30 71 1 34 65 CFG=3
M  V30 72 1 35 66
M  V30 73 1 35 67
M  V30 74 1 36 68
M  V30 75 1 36 69
M  V30 76 1 37 70 CFG=3
M  V30 77 1 38 71
M  V30 78 1 38 72
M  V30 END BOND
M  V30 END CTAB
M  END
>  <Dataset>  (458) 
ChEMBL_Kinases

>  <Ligand_Instance>  (458) 
nan

>  <PDB_ID>  (458) 
nan

>  <Standardized_SMILES>  (458) 
CN(C)C(=O)c1cc2cnc(Nc3ccc(C(=O)N4CC5CCC(C4)N5)cn3)nc2n1[C@@H]1C[C@H]2CC[C@@H]1C2

>  <Name>  (458) 
nan

>  <Pocket>  (458) 
nan

>  <ATP_Site>  (458) 
nan

>  <Peripheral>  (458) 
nan

>  <Num_H_Atoms_ProtBoundConf>  (458) 
nan

>  <Num_Resolved_Atoms>  (458) 
nan

>  <Num_Not_Resolved_Atoms>  (458) 
nan

$$$$
CHEMBL3691578
     RDKit          3D

  0  0  0  0  0  0  0  0  0  0999 V3000
M  V30 BEGIN CTAB
M  V30 COUNTS 78 83 0 0 0
M  V30 BEGIN ATOM
M  V30 1 C 7.201143 1.203273 3.909026 0
M  V30 2 C 7.008867 0.065260 2.921067 0
M  V30 3 C 6.393799 -1.086713 3.719104 0
M  V30 4 O 5.198133 -0.600571 4.238176 0
M  V30 5 N 6.063353 0.415301 1.884483 0
M  V30 6 C 6.479060 1.611176 1.166252 0
M  V30 7 C 7.636522 1.231424 0.291130 0
M  V30 8 C 7.502754 -0.273081 0.177311 0
M  V30 9 C 6.150241 -0.564806 0.802151 0
M  V30 10 C 5.034855 -0.221149 -0.187096 0
M  V30 11 N 4.326272 0.958672 0.245951 0
M  V30 12 C 2.999467 1.277115 0.642487 0
M  V30 13 O 2.639317 2.452060 0.984002 0
M  V30 14 C 1.909572 0.314605 0.707657 0
M  V30 15 C 0.641341 0.358962 0.173947 0
M  V30 16 C -0.221648 -0.685170 0.377519 0
M  V30 17 C 0.099127 -1.810038 1.099695 0
M  V30 18 N -0.759917 -2.907050 1.345638 0
M  V30 19 C -2.098228 -3.087583 0.920326 0
M  V30 20 N -2.737068 -4.211568 1.306137 0
M  V30 21 C -4.000233 -4.507825 0.978055 0
M  V30 22 C -4.716884 -3.628622 0.199196 0
M  V30 23 C -6.012321 -3.643466 -0.296905 0
M  V30 24 C -6.124436 -2.459489 -1.006382 0
M  V30 25 C -7.404978 -2.200453 -1.644962 0
M  V30 26 O -7.957121 -2.661285 -2.676407 0
M  V30 27 N -8.281471 -1.249139 -1.054722 0
M  V30 28 C -9.582042 -0.880674 -1.559648 0
M  V30 29 C -7.909524 -0.542137 0.165270 0
M  V30 30 N -4.973457 -1.776814 -0.945401 0
M  V30 31 C -4.716806 -0.517461 -1.559809 0
M  V30 32 C -5.557179 -0.356818 -2.807674 0
M  V30 33 C -4.749104 0.538472 -3.747226 0
M  V30 34 C -3.357181 -0.017090 -3.521359 0
M  V30 35 C -3.292929 -0.381165 -2.056423 0
M  V30 36 C -4.071508 -2.478298 -0.199143 0
M  V30 37 N -2.804613 -2.243450 0.165337 0
M  V30 38 N 1.344363 -1.808078 1.599507 0
M  V30 39 C 2.236259 -0.816388 1.434755 0
M  V30 40 C 5.314874 2.006004 0.246652 0
M  V30 41 H 8.015676 1.874116 3.566888 0
M  V30 42 H 6.240218 1.730412 3.989241 0
M  V30 43 H 7.425665 0.761729 4.894145 0
M  V30 44 H 7.985379 -0.271830 2.536803 0
M  V30 45 H 7.035872 -1.319668 4.612408 0
M  V30 46 H 6.311834 -2.010486 3.153848 0
M  V30 47 H 4.427773 -1.160349 4.007853 0
M  V30 48 H 6.677416 2.442525 1.840397 0
M  V30 49 H 7.512142 1.699990 -0.724151 0
M  V30 50 H 8.606116 1.571007 0.654965 0
M  V30 51 H 7.404324 -0.562163 -0.889330 0
M  V30 52 H 8.324924 -0.839906 0.607906 0
M  V30 53 H 6.052127 -1.566006 1.204021 0
M  V30 54 H 4.397896 -1.119946 -0.253930 0
M  V30 55 H 5.518633 -0.107200 -1.180098 0
M  V30 56 H 0.447345 1.262078 -0.376756 0
M  V30 57 H -1.180740 -0.589609 -0.055353 0
M  V30 58 H -0.330340 -3.690996 1.927802 0
M  V30 59 H -4.447989 -5.437701 1.323212 0
M  V30 60 H -6.702214 -4.465937 -0.103039 0
M  V30 61 H -9.975150 -1.520810 -2.351375 0
M  V30 62 H -10.283830 -0.930879 -0.685954 0
M  V30 63 H -9.599674 0.206109 -1.843182 0
M  V30 64 H -7.247502 -1.213764 0.732431 0
M  V30 65 H -7.401463 0.399795 -0.181431 0
M  V30 66 H -8.768078 -0.235287 0.773124 0
M  V30 67 H -4.984250 0.334607 -0.884114 0
M  V30 68 H -5.654717 -1.347616 -3.334724 0
M  V30 69 H -6.508617 0.154926 -2.651900 0
M  V30 70 H -5.129162 0.407516 -4.764040 0
M  V30 71 H -4.846707 1.558933 -3.327108 0
M  V30 72 H -2.555057 0.673297 -3.849031 0
M  V30 73 H -3.307613 -0.948063 -4.158552 0
M  V30 74 H -2.705026 -1.315259 -2.004659 0
M  V30 75 H -2.814426 0.466730 -1.519105 0
M  V30 76 H 3.186218 -0.997291 1.907728 0
M  V30 77 H 4.892464 2.978476 0.583526 0
M  V30 78 H 5.664713 2.162110 -0.794222 0
M  V30 END ATOM
M  V30 BEGIN BOND
M  V30 1 1 1 2
M  V30 2 1 2 3
M  V30 3 1 3 4
M  V30 4 1 2 5
M  V30 5 1 5 6
M  V30 6 1 6 7
M  V30 7 1 7 8
M  V30 8 1 8 9
M  V30 9 1 9 10
M  V30 10 1 10 11
M  V30 11 1 11 12
M  V30 12 2 12 13
M  V30 13 1 12 14
M  V30 14 2 14 15
M  V30 15 1 15 16
M  V30 16 2 16 17
M  V30 17 1 17 18
M  V30 18 1 18 19
M  V30 19 2 19 20
M  V30 20 1 20 21
M  V30 21 2 21 22
M  V30 22 1 22 23
M  V30 23 2 23 24
M  V30 24 1 24 25
M  V30 25 2 25 26
M  V30 26 1 25 27
M  V30 27 1 27 28
M  V30 28 1 27 29
M  V30 29 1 24 30
M  V30 30 1 30 31
M  V30 31 1 31 32
M  V30 32 1 32 33
M  V30 33 1 33 34
M  V30 34 1 34 35
M  V30 35 1 30 36
M  V30 36 2 36 37
M  V30 37 1 17 38
M  V30 38 2 38 39
M  V30 39 1 11 40
M  V30 40 1 9 5
M  V30 41 1 39 14
M  V30 42 1 40 6
M  V30 43 1 37 19
M  V30 44 1 36 22
M  V30 45 1 35 31
M  V30 46 1 1 41
M  V30 47 1 1 42
M  V30 48 1 1 43
M  V30 49 1 2 44
M  V30 50 1 3 45
M  V30 51 1 3 46
M  V30 52 1 4 47
M  V30 53 1 6 48
M  V30 54 1 7 49
M  V30 55 1 7 50
M  V30 56 1 8 51
M  V30 57 1 8 52
M  V30 58 1 9 53
M  V30 59 1 10 54
M  V30 60 1 10 55
M  V30 61 1 15 56
M  V30 62 1 16 57
M  V30 63 1 18 58
M  V30 64 1 21 59
M  V30 65 1 23 60
M  V30 66 1 28 61
M  V30 67 1 28 62
M  V30 68 1 28 63
M  V30 69 1 29 64
M  V30 70 1 29 65
M  V30 71 1 29 66
M  V30 72 1 31 67
M  V30 73 1 32 68
M  V30 74 1 32 69
M  V30 75 1 33 70
M  V30 76 1 33 71
M  V30 77 1 34 72
M  V30 78 1 34 73
M  V30 79 1 35 74
M  V30 80 1 35 75
M  V30 81 1 39 76
M  V30 82 1 40 77
M  V30 83 1 40 78
M  V30 END BOND
M  V30 END CTAB
M  END
>  <Dataset>  (459) 
ChEMBL_Kinases

>  <Ligand_Instance>  (459) 
nan

>  <PDB_ID>  (459) 
nan

>  <Standardized_SMILES>  (459) 
CC(CO)N1C2CCC1CN(C(=O)c1ccc(Nc3ncc4cc(C(=O)N(C)C)n(C5CCCC5)c4n3)nc1)C2

>  <Name>  (459) 
nan

>  <Pocket>  (459) 
nan

>  <ATP_Site>  (459) 
nan

>  <Peripheral>  (459) 
nan

>  <Num_H_Atoms_ProtBoundConf>  (459) 
nan

>  <Num_Resolved_Atoms>  (459) 
nan

>  <Num_Not_Resolved_Atoms>  (459) 
nan

$$$$
CHEMBL3691577
     RDKit          3D

  0  0  0  0  0  0  0  0  0  0999 V3000
M  V30 BEGIN CTAB
M  V30 COUNTS 77 82 0 0 0
M  V30 BEGIN ATOM
M  V30 1 C 4.829342 3.048903 5.823868 0
M  V30 2 N 3.698819 3.225620 4.936859 0
M  V30 3 C 2.616134 4.101096 5.376221 0
M  V30 4 C 3.717757 2.533339 3.697822 0
M  V30 5 O 4.822797 1.979648 3.877165 0
M  V30 6 C 2.725620 2.544301 2.651626 0
M  V30 7 C 1.401137 2.527616 3.030722 0
M  V30 8 C 0.655327 2.534600 1.867010 0
M  V30 9 C -0.662553 2.524376 1.509874 0
M  V30 10 N -1.050144 2.532104 0.221826 0
M  V30 11 C -0.132709 2.550899 -0.785832 0
M  V30 12 N -0.756197 2.547656 -2.061850 0
M  V30 13 C -1.118662 1.220680 -2.499964 0
M  V30 14 C -0.868198 0.112970 -1.703110 0
M  V30 15 C -1.202641 -1.186190 -2.072409 0
M  V30 16 C -1.812457 -1.404455 -3.283351 0
M  V30 17 C -2.138873 -2.766664 -3.616953 0
M  V30 18 O -1.283874 -3.169621 -4.477597 0
M  V30 19 N -3.228587 -3.521278 -3.075026 0
M  V30 20 C -4.100792 -2.893562 -2.104431 0
M  V30 21 C -4.453642 -3.836772 -0.978249 0
M  V30 22 C -5.808887 -4.424373 -1.256426 0
M  V30 23 C -5.555468 -5.438679 -2.322707 0
M  V30 24 C -4.038389 -5.658844 -2.364768 0
M  V30 25 C -3.433669 -4.872675 -3.499513 0
M  V30 26 C -3.540111 -5.039706 -1.079103 0
M  V30 27 N -3.642024 -5.937062 0.041732 0
M  V30 28 C -3.287550 -5.257369 1.250035 0
M  V30 29 C -2.698000 -7.015541 -0.182493 0
M  V30 30 C -2.047208 -0.289877 -4.049414 0
M  V30 31 N -1.723591 0.968650 -3.692822 0
M  V30 32 N 1.169992 2.562185 -0.451124 0
M  V30 33 C 1.588729 2.555223 0.826510 0
M  V30 34 N 2.850804 2.561523 1.316467 0
M  V30 35 C 4.097168 2.587147 0.603691 0
M  V30 36 C 4.770000 1.254044 0.496024 0
M  V30 37 C 6.234868 1.453204 0.814902 0
M  V30 38 C 6.435386 2.887413 1.215225 0
M  V30 39 C 5.096820 3.578457 1.140434 0
M  V30 40 H 5.593186 3.825012 5.686537 0
M  V30 41 H 5.220908 2.015747 5.752417 0
M  V30 42 H 4.442867 3.141253 6.882935 0
M  V30 43 H 2.119335 4.616290 4.552521 0
M  V30 44 H 3.038524 4.868332 6.075972 0
M  V30 45 H 1.826182 3.502319 5.914645 0
M  V30 46 H 0.853521 2.513058 3.955795 0
M  V30 47 H -1.409648 2.511771 2.313709 0
M  V30 48 H -0.986837 3.318043 -2.713359 0
M  V30 49 H -0.390354 0.206915 -0.731515 0
M  V30 50 H -0.980762 -2.020268 -1.404559 0
M  V30 51 H -3.644367 -1.970672 -1.729443 0
M  V30 52 H -5.042583 -2.634217 -2.626180 0
M  V30 53 H -4.362779 -3.306581 -0.026530 0
M  V30 54 H -6.318413 -4.820107 -0.351648 0
M  V30 55 H -6.433226 -3.576119 -1.667475 0
M  V30 56 H -6.067152 -6.382530 -2.021319 0
M  V30 57 H -5.944526 -5.065898 -3.282691 0
M  V30 58 H -3.804691 -6.740196 -2.427219 0
M  V30 59 H -4.049116 -4.924583 -4.422454 0
M  V30 60 H -2.411947 -5.323185 -3.658322 0
M  V30 61 H -2.508999 -4.664844 -1.152565 0
M  V30 62 H -2.685501 -5.956973 1.892841 0
M  V30 63 H -2.573901 -4.405019 1.047669 0
M  V30 64 H -4.153833 -4.943265 1.856798 0
M  V30 65 H -3.221561 -7.996120 -0.283353 0
M  V30 66 H -1.919777 -7.053796 0.622065 0
M  V30 67 H -2.132593 -6.894754 -1.144826 0
M  V30 68 H -2.531352 -0.461377 -5.013816 0
M  V30 69 H 3.838449 2.908518 -0.446409 0
M  V30 70 H 4.662931 0.809256 -0.537872 0
M  V30 71 H 4.290900 0.533700 1.193211 0
M  V30 72 H 6.836924 1.231448 -0.088586 0
M  V30 73 H 6.521842 0.740978 1.598910 0
M  V30 74 H 6.836368 2.943914 2.256362 0
M  V30 75 H 7.203042 3.365611 0.584299 0
M  V30 76 H 4.790561 4.057443 2.085507 0
M  V30 77 H 5.233643 4.438918 0.422752 0
M  V30 END ATOM
M  V30 BEGIN BOND
M  V30 1 1 1 2
M  V30 2 1 2 3
M  V30 3 1 2 4
M  V30 4 2 4 5
M  V30 5 1 4 6
M  V30 6 2 6 7
M  V30 7 1 7 8
M  V30 8 2 8 9
M  V30 9 1 9 10
M  V30 10 2 10 11
M  V30 11 1 11 12
M  V30 12 1 12 13
M  V30 13 2 13 14
M  V30 14 1 14 15
M  V30 15 2 15 16
M  V30 16 1 16 17
M  V30 17 2 17 18
M  V30 18 1 17 19
M  V30 19 1 19 20
M  V30 20 1 20 21
M  V30 21 1 21 22
M  V30 22 1 22 23
M  V30 23 1 23 24
M  V30 24 1 24 25
M  V30 25 1 24 26
M  V30 26 1 26 27
M  V30 27 1 27 28
M  V30 28 1 27 29
M  V30 29 1 16 30
M  V30 30 2 30 31
M  V30 31 1 11 32
M  V30 32 2 32 33
M  V30 33 1 33 34
M  V30 34 1 34 35
M  V30 35 1 35 36
M  V30 36 1 36 37
M  V30 37 1 37 38
M  V30 38 1 38 39
M  V30 39 1 34 6
M  V30 40 1 39 35
M  V30 41 1 33 8
M  V30 42 1 31 13
M  V30 43 1 25 19
M  V30 44 1 26 21
M  V30 45 1 1 40
M  V30 46 1 1 41
M  V30 47 1 1 42
M  V30 48 1 3 43
M  V30 49 1 3 44
M  V30 50 1 3 45
M  V30 51 1 7 46
M  V30 52 1 9 47
M  V30 53 1 12 48
M  V30 54 1 14 49
M  V30 55 1 15 50
M  V30 56 1 20 51
M  V30 57 1 20 52
M  V30 58 1 21 53
M  V30 59 1 22 54
M  V30 60 1 22 55
M  V30 61 1 23 56
M  V30 62 1 23 57
M  V30 63 1 24 58
M  V30 64 1 25 59
M  V30 65 1 25 60
M  V30 66 1 26 61
M  V30 67 1 28 62
M  V30 68 1 28 63
M  V30 69 1 28 64
M  V30 70 1 29 65
M  V30 71 1 29 66
M  V30 72 1 29 67
M  V30 73 1 30 68
M  V30 74 1 35 69
M  V30 75 1 36 70
M  V30 76 1 36 71
M  V30 77 1 37 72
M  V30 78 1 37 73
M  V30 79 1 38 74
M  V30 80 1 38 75
M  V30 81 1 39 76
M  V30 82 1 39 77
M  V30 END BOND
M  V30 END CTAB
M  END
>  <Dataset>  (460) 
ChEMBL_Kinases

>  <Ligand_Instance>  (460) 
nan

>  <PDB_ID>  (460) 
nan

>  <Standardized_SMILES>  (460) 
CN(C)C(=O)c1cc2cnc(Nc3ccc(C(=O)N4CC5CCC(C4)C5N(C)C)cn3)nc2n1C1CCCC1

>  <Name>  (460) 
nan

>  <Pocket>  (460) 
nan

>  <ATP_Site>  (460) 
nan

>  <Peripheral>  (460) 
nan

>  <Num_H_Atoms_ProtBoundConf>  (460) 
nan

>  <Num_Resolved_Atoms>  (460) 
nan

>  <Num_Not_Resolved_Atoms>  (460) 
nan

$$$$
CHEMBL3691576
     RDKit          3D

  0  0  0  0  0  0  0  0  0  0999 V3000
M  V30 BEGIN CTAB
M  V30 COUNTS 70 75 0 0 0
M  V30 BEGIN ATOM
M  V30 1 C 4.729759 -0.679647 0.816567 0
M  V30 2 N 5.616142 0.376641 0.331810 0
M  V30 3 C 6.978342 0.159511 0.846020 0
M  V30 4 C 5.304405 1.501118 -0.520231 0
M  V30 5 O 6.280257 2.283655 -0.796087 0
M  V30 6 C 3.900486 1.480635 -0.879987 0
M  V30 7 C 3.555873 0.942095 -2.120295 0
M  V30 8 C 2.164328 1.056049 -2.171637 0
M  V30 9 C 1.268804 0.686377 -3.154457 0
M  V30 10 N -0.059981 0.890169 -2.986051 0
M  V30 11 C -0.480979 1.468661 -1.822736 0
M  V30 12 N -1.791635 1.790693 -1.366866 0
M  V30 13 C -2.424519 0.810664 -0.542375 0
M  V30 14 C -3.699842 1.006582 -0.040333 0
M  V30 15 C -4.337576 0.086053 0.764998 0
M  V30 16 C -3.679685 -1.088444 1.090156 0
M  V30 17 C -4.112404 -2.211580 1.912520 0
M  V30 18 O -3.719220 -2.078174 3.119571 0
M  V30 19 N -4.872919 -3.313868 1.435463 0
M  V30 20 C -5.415161 -3.662761 0.141716 0
M  V30 21 C -5.004100 -5.056655 -0.285571 0
M  V30 22 C -3.500632 -5.173523 -0.174801 0
M  V30 23 C -3.258075 -5.421148 1.276293 0
M  V30 24 C -4.604458 -5.646788 1.927381 0
M  V30 25 C -5.198544 -4.345366 2.431905 0
M  V30 26 C -5.467698 -6.077297 0.741232 0
M  V30 27 O -5.054022 -7.323622 0.244075 0
M  V30 28 C -2.389895 -1.290960 0.584090 0
M  V30 29 N -1.832387 -0.346846 -0.195745 0
M  V30 30 N 0.411415 1.808338 -0.906662 0
M  V30 31 C 1.751876 1.643480 -0.988177 0
M  V30 32 N 2.822550 1.900352 -0.202591 0
M  V30 33 C 2.776120 2.499593 1.096726 0
M  V30 34 C 3.982527 3.316757 1.470571 0
M  V30 35 C 3.897064 4.460978 0.495912 0
M  V30 36 C 2.421855 4.561017 0.088015 0
M  V30 37 C 1.752075 3.643426 1.088145 0
M  V30 38 H 5.218055 -1.677809 0.714654 0
M  V30 39 H 4.583110 -0.503949 1.899926 0
M  V30 40 H 3.738681 -0.654821 0.323385 0
M  V30 41 H 7.649538 0.826655 0.285849 0
M  V30 42 H 6.949148 0.561112 1.887275 0
M  V30 43 H 7.272777 -0.895182 0.827904 0
M  V30 44 H 4.153725 0.517862 -2.908844 0
M  V30 45 H 1.545712 0.226254 -4.091126 0
M  V30 46 H -2.313161 2.655594 -1.578489 0
M  V30 47 H -4.250047 1.906546 -0.267880 0
M  V30 48 H -5.304321 0.142304 1.194742 0
M  V30 49 H -5.124141 -2.938857 -0.616598 0
M  V30 50 H -6.528639 -3.731125 0.306401 0
M  V30 51 H -5.365301 -5.289773 -1.299104 0
M  V30 52 H -3.090532 -5.956367 -0.849553 0
M  V30 53 H -3.069541 -4.182681 -0.486426 0
M  V30 54 H -2.733140 -4.572700 1.743919 0
M  V30 55 H -2.600163 -6.319582 1.353845 0
M  V30 56 H -4.526074 -6.421357 2.685772 0
M  V30 57 H -6.296709 -4.492531 2.496187 0
M  V30 58 H -4.781259 -4.133115 3.421857 0
M  V30 59 H -6.537874 -6.043808 0.949128 0
M  V30 60 H -4.092208 -7.459782 0.341307 0
M  V30 61 H -1.726228 -2.136608 0.727245 0
M  V30 62 H 2.504881 1.765682 1.893962 0
M  V30 63 H 3.764058 3.682941 2.520257 0
M  V30 64 H 4.927072 2.800974 1.525216 0
M  V30 65 H 4.099720 5.395949 1.091637 0
M  V30 66 H 4.561875 4.373495 -0.366420 0
M  V30 67 H 2.044664 5.601613 0.152495 0
M  V30 68 H 2.334051 4.140297 -0.932996 0
M  V30 69 H 0.744166 3.341324 0.848995 0
M  V30 70 H 1.819729 4.180958 2.075425 0
M  V30 END ATOM
M  V30 BEGIN BOND
M  V30 1 1 1 2
M  V30 2 1 2 3
M  V30 3 1 2 4
M  V30 4 2 4 5
M  V30 5 1 4 6
M  V30 6 2 6 7
M  V30 7 1 7 8
M  V30 8 2 8 9
M  V30 9 1 9 10
M  V30 10 2 10 11
M  V30 11 1 11 12
M  V30 12 1 12 13
M  V30 13 2 13 14
M  V30 14 1 14 15
M  V30 15 2 15 16
M  V30 16 1 16 17
M  V30 17 2 17 18
M  V30 18 1 17 19
M  V30 19 1 19 20
M  V30 20 1 20 21
M  V30 21 1 21 22
M  V30 22 1 22 23
M  V30 23 1 23 24
M  V30 24 1 24 25
M  V30 25 1 24 26
M  V30 26 1 26 27
M  V30 27 1 16 28
M  V30 28 2 28 29
M  V30 29 1 11 30
M  V30 30 2 30 31
M  V30 31 1 31 32
M  V30 32 1 32 33
M  V30 33 1 33 34
M  V30 34 1 34 35
M  V30 35 1 35 36
M  V30 36 1 36 37
M  V30 37 1 32 6
M  V30 38 1 37 33
M  V30 39 1 31 8
M  V30 40 1 29 13
M  V30 41 1 25 19
M  V30 42 1 26 21
M  V30 43 1 1 38
M  V30 44 1 1 39
M  V30 45 1 1 40
M  V30 46 1 3 41
M  V30 47 1 3 42
M  V30 48 1 3 43
M  V30 49 1 7 44
M  V30 50 1 9 45
M  V30 51 1 12 46
M  V30 52 1 14 47
M  V30 53 1 15 48
M  V30 54 1 20 49
M  V30 55 1 20 50
M  V30 56 1 21 51
M  V30 57 1 22 52
M  V30 58 1 22 53
M  V30 59 1 23 54
M  V30 60 1 23 55
M  V30 61 1 24 56
M  V30 62 1 25 57
M  V30 63 1 25 58
M  V30 64 1 26 59
M  V30 65 1 27 60
M  V30 66 1 28 61
M  V30 67 1 33 62
M  V30 68 1 34 63
M  V30 69 1 34 64
M  V30 70 1 35 65
M  V30 71 1 35 66
M  V30 72 1 36 67
M  V30 73 1 36 68
M  V30 74 1 37 69
M  V30 75 1 37 70
M  V30 END BOND
M  V30 END CTAB
M  END
>  <Dataset>  (461) 
ChEMBL_Kinases

>  <Ligand_Instance>  (461) 
nan

>  <PDB_ID>  (461) 
nan

>  <Standardized_SMILES>  (461) 
CN(C)C(=O)c1cc2cnc(Nc3ccc(C(=O)N4CC5CCC(C4)C5O)cn3)nc2n1C1CCCC1

>  <Name>  (461) 
nan

>  <Pocket>  (461) 
nan

>  <ATP_Site>  (461) 
nan

>  <Peripheral>  (461) 
nan

>  <Num_H_Atoms_ProtBoundConf>  (461) 
nan

>  <Num_Resolved_Atoms>  (461) 
nan

>  <Num_Not_Resolved_Atoms>  (461) 
nan

$$$$
CHEMBL3691575
     RDKit          3D

  0  0  0  0  0  0  0  0  0  0999 V3000
M  V30 BEGIN CTAB
M  V30 COUNTS 68 73 0 0 0
M  V30 BEGIN ATOM
M  V30 1 C 0.369833 -1.408229 4.795365 0
M  V30 2 N 1.574982 -2.259053 4.813686 0
M  V30 3 C 1.452253 -3.234952 5.856572 0
M  V30 4 C 2.675497 -2.057666 3.883582 0
M  V30 5 O 3.563140 -2.917235 4.079211 0
M  V30 6 C 2.452059 -0.929532 2.992907 0
M  V30 7 C 2.477065 0.317922 3.641240 0
M  V30 8 C 2.224348 1.287761 2.658020 0
M  V30 9 C 2.132551 2.671834 2.810175 0
M  V30 10 N 1.857611 3.392387 1.710918 0
M  V30 11 C 1.681530 2.748870 0.508809 0
M  V30 12 N 1.326983 3.546287 -0.644334 0
M  V30 13 C 0.175330 2.918750 -1.256215 0
M  V30 14 C -0.416677 3.473868 -2.357660 0
M  V30 15 C -1.500461 2.976637 -3.046632 0
M  V30 16 C -2.060718 1.803218 -2.599193 0
M  V30 17 C -3.090610 0.783199 -2.810532 0
M  V30 18 O -3.993235 0.192306 -2.180853 0
M  V30 19 N -3.186101 0.195913 -4.108761 0
M  V30 20 C -4.116001 -0.880754 -4.446540 0
M  V30 21 C -4.277039 -0.871655 -5.955897 0
M  V30 22 C -5.729306 -0.662232 -6.303873 0
M  V30 23 N -6.014879 0.662744 -5.853895 0
M  V30 24 C -4.756062 1.379212 -5.704123 0
M  V30 25 C -3.683332 0.497159 -6.301508 0
M  V30 26 C -2.487275 0.488750 -5.362817 0
M  V30 27 C -1.454943 1.217803 -1.454981 0
M  V30 28 N -0.410649 1.801324 -0.882779 0
M  V30 29 N 1.790419 1.431305 0.471890 0
M  V30 30 C 2.058570 0.590328 1.467634 0
M  V30 31 N 2.201921 -0.719337 1.707306 0
M  V30 32 C 2.100541 -1.665602 0.652010 0
M  V30 33 C 2.530874 -3.054550 0.918988 0
M  V30 34 C 4.017383 -3.053910 0.727063 0
M  V30 35 C 4.206943 -2.139427 -0.494270 0
M  V30 36 C 3.012976 -1.222735 -0.471331 0
M  V30 37 H 0.540829 -0.638729 5.573100 0
M  V30 38 H 0.401253 -0.936254 3.768463 0
M  V30 39 H -0.547952 -1.976677 4.921869 0
M  V30 40 H 2.220818 -4.042513 5.786958 0
M  V30 41 H 0.440253 -3.659812 5.943724 0
M  V30 42 H 1.635640 -2.707710 6.838161 0
M  V30 43 H 2.651571 0.575000 4.691387 0
M  V30 44 H 2.279462 3.137935 3.769984 0
M  V30 45 H 1.745207 4.406721 -1.041402 0
M  V30 46 H -0.094897 4.396290 -2.845588 0
M  V30 47 H -2.099664 3.236685 -3.880200 0
M  V30 48 H -3.620359 -1.862193 -4.227019 0
M  V30 49 H -5.073671 -0.832558 -3.921274 0
M  V30 50 H -3.801467 -1.705729 -6.466804 0
M  V30 51 H -5.853660 -0.833509 -7.369735 0
M  V30 52 H -6.282237 -1.441096 -5.714291 0
M  V30 53 H -6.524930 0.565842 -4.927479 0
M  V30 54 H -4.609868 1.537277 -4.616773 0
M  V30 55 H -4.762799 2.362622 -6.187005 0
M  V30 56 H -3.458243 0.649367 -7.336897 0
M  V30 57 H -1.987409 1.439190 -5.407717 0
M  V30 58 H -1.806206 -0.359214 -5.587936 0
M  V30 59 H -1.619835 0.321137 -0.827139 0
M  V30 60 H 1.050799 -1.634947 0.206033 0
M  V30 61 H 2.174471 -3.501715 1.847922 0
M  V30 62 H 2.030249 -3.689907 0.112933 0
M  V30 63 H 4.508053 -2.618664 1.609201 0
M  V30 64 H 4.360795 -4.068868 0.489146 0
M  V30 65 H 4.290309 -2.728144 -1.430782 0
M  V30 66 H 5.175825 -1.609123 -0.379152 0
M  V30 67 H 3.422519 -0.199235 -0.271845 0
M  V30 68 H 2.488695 -1.207321 -1.444177 0
M  V30 END ATOM
M  V30 BEGIN BOND
M  V30 1 1 1 2
M  V30 2 1 2 3
M  V30 3 1 2 4
M  V30 4 2 4 5
M  V30 5 1 4 6
M  V30 6 2 6 7
M  V30 7 1 7 8
M  V30 8 2 8 9
M  V30 9 1 9 10
M  V30 10 2 10 11
M  V30 11 1 11 12
M  V30 12 1 12 13
M  V30 13 2 13 14
M  V30 14 1 14 15
M  V30 15 2 15 16
M  V30 16 1 16 17
M  V30 17 2 17 18
M  V30 18 1 17 19
M  V30 19 1 19 20
M  V30 20 1 20 21
M  V30 21 1 21 22
M  V30 22 1 22 23
M  V30 23 1 23 24
M  V30 24 1 24 25
M  V30 25 1 25 26
M  V30 26 1 16 27
M  V30 27 2 27 28
M  V30 28 1 11 29
M  V30 29 2 29 30
M  V30 30 1 30 31
M  V30 31 1 31 32
M  V30 32 1 32 33
M  V30 33 1 33 34
M  V30 34 1 34 35
M  V30 35 1 35 36
M  V30 36 1 31 6
M  V30 37 1 36 32
M  V30 38 1 30 8
M  V30 39 1 28 13
M  V30 40 1 26 19
M  V30 41 1 25 21
M  V30 42 1 1 37
M  V30 43 1 1 38
M  V30 44 1 1 39
M  V30 45 1 3 40
M  V30 46 1 3 41
M  V30 47 1 3 42
M  V30 48 1 7 43
M  V30 49 1 9 44
M  V30 50 1 12 45
M  V30 51 1 14 46
M  V30 52 1 15 47
M  V30 53 1 20 48
M  V30 54 1 20 49
M  V30 55 1 21 50
M  V30 56 1 22 51
M  V30 57 1 22 52
M  V30 58 1 23 53
M  V30 59 1 24 54
M  V30 60 1 24 55
M  V30 61 1 25 56
M  V30 62 1 26 57
M  V30 63 1 26 58
M  V30 64 1 27 59
M  V30 65 1 32 60
M  V30 66 1 33 61
M  V30 67 1 33 62
M  V30 68 1 34 63
M  V30 69 1 34 64
M  V30 70 1 35 65
M  V30 71 1 35 66
M  V30 72 1 36 67
M  V30 73 1 36 68
M  V30 END BOND
M  V30 END CTAB
M  END
>  <Dataset>  (462) 
ChEMBL_Kinases

>  <Ligand_Instance>  (462) 
nan

>  <PDB_ID>  (462) 
nan

>  <Standardized_SMILES>  (462) 
CN(C)C(=O)c1cc2cnc(Nc3ccc(C(=O)N4CC5CNCC5C4)cn3)nc2n1C1CCCC1

>  <Name>  (462) 
nan

>  <Pocket>  (462) 
nan

>  <ATP_Site>  (462) 
nan

>  <Peripheral>  (462) 
nan

>  <Num_H_Atoms_ProtBoundConf>  (462) 
nan

>  <Num_Resolved_Atoms>  (462) 
nan

>  <Num_Not_Resolved_Atoms>  (462) 
nan

$$$$
CHEMBL3691574
     RDKit          3D

  0  0  0  0  0  0  0  0  0  0999 V3000
M  V30 BEGIN CTAB
M  V30 COUNTS 67 72 0 0 0
M  V30 BEGIN ATOM
M  V30 1 C -0.149621 2.117736 4.173224 0
M  V30 2 N 0.860761 1.720503 5.170718 0
M  V30 3 C 0.641779 2.512824 6.382106 0
M  V30 4 C 1.917761 0.738923 5.065619 0
M  V30 5 O 2.636004 0.607417 6.089291 0
M  V30 6 C 1.853072 0.143848 3.733443 0
M  V30 7 C 1.316037 -1.135866 3.711515 0
M  V30 8 C 1.302190 -1.567562 2.400653 0
M  V30 9 C 0.885386 -2.733225 1.764129 0
M  V30 10 N 1.025476 -2.796981 0.407103 0
M  V30 11 C 1.554717 -1.755119 -0.290418 0
M  V30 12 N 1.572949 -2.092443 -1.668930 0
M  V30 13 C 0.339644 -1.834505 -2.322946 0
M  V30 14 C -0.745964 -1.290603 -1.648365 0
M  V30 15 C -1.990667 -1.035586 -2.252670 0
M  V30 16 C -2.167375 -1.333646 -3.589134 0
M  V30 17 C -3.442064 -1.088495 -4.241382 0
M  V30 18 O -4.351445 -1.042600 -3.334195 0
M  V30 19 N -3.752020 -0.911626 -5.641131 0
M  V30 20 C -3.016624 -0.908015 -6.908606 0
M  V30 21 C -4.110036 -0.742330 -7.920428 0 CFG=2
M  V30 22 C -5.021099 0.224813 -7.192996 0
M  V30 23 C -5.163517 -0.653219 -5.965634 0 CFG=1
M  V30 24 C -5.706838 -1.912018 -6.543499 0
M  V30 25 C -4.966672 -1.990619 -7.878164 0 CFG=1
M  V30 26 O -5.837530 -2.097886 -8.938554 0
M  V30 27 C -1.066599 -1.866591 -4.205591 0
M  V30 28 N 0.129493 -2.114919 -3.637834 0
M  V30 29 N 1.941027 -0.658115 0.360079 0
M  V30 30 C 1.836699 -0.516753 1.693664 0
M  V30 31 N 2.169343 0.511164 2.490380 0
M  V30 32 C 2.756537 1.795155 2.210398 0
M  V30 33 C 3.476646 1.905071 0.920028 0
M  V30 34 C 4.907982 1.504986 1.197380 0
M  V30 35 C 5.123977 2.294370 2.506965 0
M  V30 36 C 3.823745 2.053506 3.261570 0
M  V30 37 H 0.026015 1.584843 3.207332 0
M  V30 38 H -0.167843 3.207905 4.014826 0
M  V30 39 H -1.164143 1.802175 4.518386 0
M  V30 40 H -0.424119 2.627740 6.639259 0
M  V30 41 H 1.060732 3.511672 6.178208 0
M  V30 42 H 1.185085 2.089272 7.252908 0
M  V30 43 H 0.928290 -1.819029 4.486827 0
M  V30 44 H 0.471586 -3.539541 2.353986 0
M  V30 45 H 2.328836 -2.482760 -2.238732 0
M  V30 46 H -0.670304 -1.030144 -0.585185 0
M  V30 47 H -2.769649 -0.607755 -1.632104 0
M  V30 48 H -2.332188 -0.036668 -6.976745 0
M  V30 49 H -2.456764 -1.852081 -7.081131 0
M  V30 50 H -3.801105 -0.437021 -8.911073 0
M  V30 51 H -5.997950 0.318772 -7.699629 0
M  V30 52 H -4.517011 1.192968 -6.985234 0
M  V30 53 H -5.738250 -0.200332 -5.165556 0
M  V30 54 H -5.475733 -2.784822 -5.898440 0
M  V30 55 H -6.790217 -1.784745 -6.705612 0
M  V30 56 H -4.262562 -2.843139 -7.792209 0
M  V30 57 H -6.766804 -2.059224 -8.558337 0
M  V30 58 H -1.070628 -2.146201 -5.240204 0
M  V30 59 H 1.981697 2.613011 2.294299 0
M  V30 60 H 3.523965 2.986841 0.642741 0
M  V30 61 H 3.043240 1.396793 0.064537 0
M  V30 62 H 5.565477 1.935761 0.424237 0
M  V30 63 H 5.032369 0.437334 1.392327 0
M  V30 64 H 6.001433 1.900116 3.017402 0
M  V30 65 H 5.239033 3.371416 2.304215 0
M  V30 66 H 3.571042 2.824588 3.983519 0
M  V30 67 H 4.030195 1.104181 3.840100 0
M  V30 END ATOM
M  V30 BEGIN BOND
M  V30 1 1 1 2
M  V30 2 1 2 3
M  V30 3 1 2 4
M  V30 4 2 4 5
M  V30 5 1 4 6
M  V30 6 2 6 7
M  V30 7 1 7 8
M  V30 8 2 8 9
M  V30 9 1 9 10
M  V30 10 2 10 11
M  V30 11 1 11 12
M  V30 12 1 12 13
M  V30 13 2 13 14
M  V30 14 1 14 15
M  V30 15 2 15 16
M  V30 16 1 16 17
M  V30 17 2 17 18
M  V30 18 1 17 19
M  V30 19 1 19 20
M  V30 20 1 20 21
M  V30 21 1 21 22
M  V30 22 1 22 23
M  V30 23 1 23 24
M  V30 24 1 24 25
M  V30 25 1 25 26
M  V30 26 1 16 27
M  V30 27 2 27 28
M  V30 28 1 11 29
M  V30 29 2 29 30
M  V30 30 1 30 31
M  V30 31 1 31 32
M  V30 32 1 32 33
M  V30 33 1 33 34
M  V30 34 1 34 35
M  V30 35 1 35 36
M  V30 36 1 31 6
M  V30 37 1 36 32
M  V30 38 1 30 8
M  V30 39 1 28 13
M  V30 40 1 23 19
M  V30 41 1 25 21
M  V30 42 1 1 37
M  V30 43 1 1 38
M  V30 44 1 1 39
M  V30 45 1 3 40
M  V30 46 1 3 41
M  V30 47 1 3 42
M  V30 48 1 7 43
M  V30 49 1 9 44
M  V30 50 1 12 45
M  V30 51 1 14 46
M  V30 52 1 15 47
M  V30 53 1 20 48
M  V30 54 1 20 49
M  V30 55 1 21 50 CFG=3
M  V30 56 1 22 51
M  V30 57 1 22 52
M  V30 58 1 23 53 CFG=1
M  V30 59 1 24 54
M  V30 60 1 24 55
M  V30 61 1 25 56 CFG=1
M  V30 62 1 26 57
M  V30 63 1 27 58
M  V30 64 1 32 59
M  V30 65 1 33 60
M  V30 66 1 33 61
M  V30 67 1 34 62
M  V30 68 1 34 63
M  V30 69 1 35 64
M  V30 70 1 35 65
M  V30 71 1 36 66
M  V30 72 1 36 67
M  V30 END BOND
M  V30 END CTAB
M  END
>  <Dataset>  (463) 
ChEMBL_Kinases

>  <Ligand_Instance>  (463) 
nan

>  <PDB_ID>  (463) 
nan

>  <Standardized_SMILES>  (463) 
CN(C)C(=O)c1cc2cnc(Nc3ccc(C(=O)N4C[C@@H]5C[C@H]4C[C@H]5O)cn3)nc2n1C1CCCC1

>  <Name>  (463) 
nan

>  <Pocket>  (463) 
nan

>  <ATP_Site>  (463) 
nan

>  <Peripheral>  (463) 
nan

>  <Num_H_Atoms_ProtBoundConf>  (463) 
nan

>  <Num_Resolved_Atoms>  (463) 
nan

>  <Num_Not_Resolved_Atoms>  (463) 
nan

$$$$
CHEMBL3691573
     RDKit          3D

  0  0  0  0  0  0  0  0  0  0999 V3000
M  V30 BEGIN CTAB
M  V30 COUNTS 67 72 0 0 0
M  V30 BEGIN ATOM
M  V30 1 C 5.894248 -2.572662 0.830536 0
M  V30 2 N 4.829776 -1.749315 0.264573 0
M  V30 3 C 3.572835 -2.407021 -0.099737 0
M  V30 4 C 5.190674 -0.386432 0.132937 0
M  V30 5 O 6.374321 -0.143569 0.515814 0
M  V30 6 C 4.061400 0.379850 -0.422501 0
M  V30 7 C 3.839184 0.733006 -1.736600 0
M  V30 8 C 2.634607 1.404903 -1.762158 0
M  V30 9 C 1.950958 1.945678 -2.859700 0
M  V30 10 N 0.780713 2.513497 -2.532430 0
M  V30 11 C 0.302414 2.564083 -1.288544 0
M  V30 12 N -0.940662 3.086666 -0.781717 0
M  V30 13 C -1.800362 2.056605 -0.287365 0
M  V30 14 C -1.423584 0.698815 -0.359719 0
M  V30 15 C -2.285246 -0.274782 0.202040 0
M  V30 16 C -3.505396 0.086113 0.827215 0
M  V30 17 C -4.040696 -1.191000 1.270469 0
M  V30 18 O -3.698782 -1.115496 2.492590 0
M  V30 19 N -4.723521 -2.213868 0.572962 0
M  V30 20 C -5.203474 -2.391760 -0.812394 0
M  V30 21 C -5.369814 -3.908059 -0.867248 0 CFG=2
M  V30 22 C -6.065864 -4.086124 0.479947 0
M  V30 23 C -4.970704 -3.432606 1.306994 0 CFG=1
M  V30 24 C -3.830063 -4.368166 0.877298 0
M  V30 25 C -4.026058 -4.491158 -0.628512 0 CFG=2
M  V30 26 O -3.045584 -3.733155 -1.316980 0
M  V30 27 C -3.768554 1.414931 0.838145 0
M  V30 28 N -2.954764 2.337272 0.307733 0
M  V30 29 N 1.021591 2.015656 -0.255910 0
M  V30 30 C 2.195641 1.426666 -0.465545 0
M  V30 31 N 3.053385 0.804852 0.371573 0
M  V30 32 C 2.933687 0.611239 1.791127 0
M  V30 33 C 1.503068 0.564402 2.263742 0
M  V30 34 C 1.281370 1.839578 3.041852 0
M  V30 35 C 2.620909 1.939953 3.780026 0
M  V30 36 C 3.578084 1.668630 2.635533 0
M  V30 37 H 5.631245 -3.655040 0.807494 0
M  V30 38 H 6.820167 -2.369007 0.280422 0
M  V30 39 H 6.021250 -2.309209 1.893369 0
M  V30 40 H 3.697746 -3.503737 -0.043408 0
M  V30 41 H 2.752344 -2.118451 0.564091 0
M  V30 42 H 3.273338 -2.131578 -1.137541 0
M  V30 43 H 4.517340 0.501476 -2.565231 0
M  V30 44 H 2.306114 1.923091 -3.874862 0
M  V30 45 H -1.266682 4.070539 -0.731494 0
M  V30 46 H -0.484607 0.406775 -0.855235 0
M  V30 47 H -1.816287 -1.261462 0.047658 0
M  V30 48 H -6.124651 -1.843938 -0.998264 0
M  V30 49 H -4.371856 -2.126708 -1.478449 0
M  V30 50 H -5.936274 -4.248617 -1.722914 0
M  V30 51 H -6.120679 -5.177061 0.718392 0
M  V30 52 H -7.032207 -3.570380 0.537457 0
M  V30 53 H -5.133227 -3.366698 2.355142 0
M  V30 54 H -3.935370 -5.340356 1.347054 0
M  V30 55 H -2.885414 -3.858694 1.132571 0
M  V30 56 H -3.944721 -5.539796 -0.967326 0
M  V30 57 H -2.226092 -4.261804 -1.351101 0
M  V30 58 H -4.720077 1.524385 1.338702 0
M  V30 59 H 3.424551 -0.391553 2.001401 0
M  V30 60 H 0.765142 0.336827 1.504937 0
M  V30 61 H 1.439940 -0.276132 3.014577 0
M  V30 62 H 0.447208 1.782707 3.742000 0
M  V30 63 H 1.229146 2.732459 2.424754 0
M  V30 64 H 2.763652 2.906787 4.264677 0
M  V30 65 H 2.697056 1.073856 4.489385 0
M  V30 66 H 4.578891 1.376205 3.010238 0
M  V30 67 H 3.678038 2.587672 2.030233 0
M  V30 END ATOM
M  V30 BEGIN BOND
M  V30 1 1 1 2
M  V30 2 1 2 3
M  V30 3 1 2 4
M  V30 4 2 4 5
M  V30 5 1 4 6
M  V30 6 2 6 7
M  V30 7 1 7 8
M  V30 8 2 8 9
M  V30 9 1 9 10
M  V30 10 2 10 11
M  V30 11 1 11 12
M  V30 12 1 12 13
M  V30 13 2 13 14
M  V30 14 1 14 15
M  V30 15 2 15 16
M  V30 16 1 16 17
M  V30 17 2 17 18
M  V30 18 1 17 19
M  V30 19 1 19 20
M  V30 20 1 20 21
M  V30 21 1 21 22
M  V30 22 1 22 23
M  V30 23 1 23 24
M  V30 24 1 24 25
M  V30 25 1 25 26
M  V30 26 1 16 27
M  V30 27 2 27 28
M  V30 28 1 11 29
M  V30 29 2 29 30
M  V30 30 1 30 31
M  V30 31 1 31 32
M  V30 32 1 32 33
M  V30 33 1 33 34
M  V30 34 1 34 35
M  V30 35 1 35 36
M  V30 36 1 31 6
M  V30 37 1 36 32
M  V30 38 1 30 8
M  V30 39 1 28 13
M  V30 40 1 23 19
M  V30 41 1 25 21
M  V30 42 1 1 37
M  V30 43 1 1 38
M  V30 44 1 1 39
M  V30 45 1 3 40
M  V30 46 1 3 41
M  V30 47 1 3 42
M  V30 48 1 7 43
M  V30 49 1 9 44
M  V30 50 1 12 45
M  V30 51 1 14 46
M  V30 52 1 15 47
M  V30 53 1 20 48
M  V30 54 1 20 49
M  V30 55 1 21 50 CFG=3
M  V30 56 1 22 51
M  V30 57 1 22 52
M  V30 58 1 23 53 CFG=1
M  V30 59 1 24 54
M  V30 60 1 24 55
M  V30 61 1 25 56 CFG=3
M  V30 62 1 26 57
M  V30 63 1 27 58
M  V30 64 1 32 59
M  V30 65 1 33 60
M  V30 66 1 33 61
M  V30 67 1 34 62
M  V30 68 1 34 63
M  V30 69 1 35 64
M  V30 70 1 35 65
M  V30 71 1 36 66
M  V30 72 1 36 67
M  V30 END BOND
M  V30 END CTAB
M  END
>  <Dataset>  (464) 
ChEMBL_Kinases

>  <Ligand_Instance>  (464) 
nan

>  <PDB_ID>  (464) 
nan

>  <Standardized_SMILES>  (464) 
CN(C)C(=O)c1cc2cnc(Nc3ccc(C(=O)N4C[C@@H]5C[C@H]4C[C@@H]5O)cn3)nc2n1C1CCCC1

>  <Name>  (464) 
nan

>  <Pocket>  (464) 
nan

>  <ATP_Site>  (464) 
nan

>  <Peripheral>  (464) 
nan

>  <Num_H_Atoms_ProtBoundConf>  (464) 
nan

>  <Num_Resolved_Atoms>  (464) 
nan

>  <Num_Not_Resolved_Atoms>  (464) 
nan

$$$$
CHEMBL3691572
     RDKit          3D

  0  0  0  0  0  0  0  0  0  0999 V3000
M  V30 BEGIN CTAB
M  V30 COUNTS 77 82 0 0 0
M  V30 BEGIN ATOM
M  V30 1 C 7.493267 -1.214555 2.130397 0
M  V30 2 C 6.190881 -1.921366 1.836554 0
M  V30 3 C 5.407225 -2.067822 3.122557 0
M  V30 4 N 5.478828 -1.220712 0.818684 0
M  V30 5 C 6.249244 -1.200118 -0.401488 0
M  V30 6 C 6.099102 -2.610318 -0.960063 0
M  V30 7 C 4.737665 -3.005347 -0.486726 0
M  V30 8 C 4.281117 -1.891117 0.390882 0
M  V30 9 C 3.447462 -0.891105 -0.382915 0
M  V30 10 N 4.287281 0.148481 -0.951417 0
M  V30 11 C 3.888016 1.534024 -1.086716 0
M  V30 12 O 4.567998 2.492078 -1.587783 0
M  V30 13 C 2.554640 1.833679 -0.584531 0
M  V30 14 C 1.359079 1.200645 -0.851560 0
M  V30 15 C 0.233941 1.676368 -0.226750 0
M  V30 16 C 0.163824 2.730897 0.650490 0
M  V30 17 N -1.022047 3.163573 1.295643 0
M  V30 18 C -2.317840 2.549080 1.268380 0
M  V30 19 N -3.364915 3.329575 1.660207 0
M  V30 20 C -4.601433 2.812182 1.692618 0
M  V30 21 C -4.838333 1.506899 1.337703 0
M  V30 22 C -5.891756 0.622256 1.237529 0
M  V30 23 C -5.474557 -0.627605 0.806382 0
M  V30 24 C -6.439042 -1.702718 0.627888 0
M  V30 25 O -5.971735 -2.844718 0.978869 0
M  V30 26 N -7.765743 -1.609563 0.134050 0
M  V30 27 C -8.428563 -0.372547 -0.304674 0
M  V30 28 C -8.574503 -2.816976 0.041619 0
M  V30 29 N -4.146908 -0.558480 0.626297 0
M  V30 30 C -3.447576 -1.713875 0.201373 0
M  V30 31 C -3.920857 -2.231504 -1.163701 0
M  V30 32 C -2.965700 -1.566757 -2.163544 0
M  V30 33 C -1.646113 -1.679859 -1.433185 0
M  V30 34 C -1.989755 -1.640239 0.028028 0
M  V30 35 C -3.759227 0.706694 0.937351 0
M  V30 36 N -2.536278 1.267159 0.918595 0
M  V30 37 N 1.342520 3.328167 0.889919 0
M  V30 38 C 2.480322 2.899558 0.300881 0
M  V30 39 C 5.596673 -0.280044 -1.381552 0
M  V30 40 H 7.602167 -0.256229 1.608703 0
M  V30 41 H 7.598293 -1.045160 3.236041 0
M  V30 42 H 8.392450 -1.850155 1.883470 0
M  V30 43 H 6.471084 -2.924499 1.428549 0
M  V30 44 H 4.701660 -1.261900 3.318202 0
M  V30 45 H 6.146182 -2.058084 3.979556 0
M  V30 46 H 4.921214 -3.074075 3.176220 0
M  V30 47 H 7.318774 -0.958548 -0.265625 0
M  V30 48 H 6.883745 -3.302698 -0.589839 0
M  V30 49 H 6.135197 -2.648472 -2.063693 0
M  V30 50 H 4.817471 -3.961332 0.087646 0
M  V30 51 H 4.040880 -3.205318 -1.338267 0
M  V30 52 H 3.663457 -2.244652 1.252644 0
M  V30 53 H 2.719474 -0.447866 0.316748 0
M  V30 54 H 2.930591 -1.413254 -1.202607 0
M  V30 55 H 1.412188 0.383627 -1.538680 0
M  V30 56 H -0.663319 1.142721 -0.493111 0
M  V30 57 H -0.923296 4.056790 1.867564 0
M  V30 58 H -5.460254 3.390948 1.994034 0
M  V30 59 H -6.905454 0.954726 1.487730 0
M  V30 60 H -7.711432 0.349578 -0.739798 0
M  V30 61 H -9.170754 -0.621638 -1.077021 0
M  V30 62 H -8.965169 0.110004 0.559592 0
M  V30 63 H -9.574984 -2.666044 0.489358 0
M  V30 64 H -8.672586 -3.084817 -1.043693 0
M  V30 65 H -8.015288 -3.642525 0.517049 0
M  V30 66 H -3.687490 -2.519917 0.968719 0
M  V30 67 H -3.775113 -3.320262 -1.196069 0
M  V30 68 H -4.922493 -1.867437 -1.406043 0
M  V30 69 H -2.979443 -2.107132 -3.120974 0
M  V30 70 H -3.263154 -0.503123 -2.227058 0
M  V30 71 H -1.210530 -2.662512 -1.729717 0
M  V30 72 H -0.976539 -0.866974 -1.761842 0
M  V30 73 H -1.527873 -2.571185 0.488934 0
M  V30 74 H -1.469561 -0.819637 0.501688 0
M  V30 75 H 3.378215 3.473434 0.581788 0
M  V30 76 H 6.232514 0.659778 -1.385783 0
M  V30 77 H 5.614713 -0.663123 -2.425032 0
M  V30 END ATOM
M  V30 BEGIN BOND
M  V30 1 1 1 2
M  V30 2 1 2 3
M  V30 3 1 2 4
M  V30 4 1 4 5
M  V30 5 1 5 6
M  V30 6 1 6 7
M  V30 7 1 7 8
M  V30 8 1 8 9
M  V30 9 1 9 10
M  V30 10 1 10 11
M  V30 11 2 11 12
M  V30 12 1 11 13
M  V30 13 2 13 14
M  V30 14 1 14 15
M  V30 15 2 15 16
M  V30 16 1 16 17
M  V30 17 1 17 18
M  V30 18 2 18 19
M  V30 19 1 19 20
M  V30 20 2 20 21
M  V30 21 1 21 22
M  V30 22 2 22 23
M  V30 23 1 23 24
M  V30 24 2 24 25
M  V30 25 1 24 26
M  V30 26 1 26 27
M  V30 27 1 26 28
M  V30 28 1 23 29
M  V30 29 1 29 30
M  V30 30 1 30 31
M  V30 31 1 31 32
M  V30 32 1 32 33
M  V30 33 1 33 34
M  V30 34 1 29 35
M  V30 35 2 35 36
M  V30 36 1 16 37
M  V30 37 2 37 38
M  V30 38 1 10 39
M  V30 39 1 8 4
M  V30 40 1 38 13
M  V30 41 1 39 5
M  V30 42 1 36 18
M  V30 43 1 35 21
M  V30 44 1 34 30
M  V30 45 1 1 40
M  V30 46 1 1 41
M  V30 47 1 1 42
M  V30 48 1 2 43
M  V30 49 1 3 44
M  V30 50 1 3 45
M  V30 51 1 3 46
M  V30 52 1 5 47
M  V30 53 1 6 48
M  V30 54 1 6 49
M  V30 55 1 7 50
M  V30 56 1 7 51
M  V30 57 1 8 52
M  V30 58 1 9 53
M  V30 59 1 9 54
M  V30 60 1 14 55
M  V30 61 1 15 56
M  V30 62 1 17 57
M  V30 63 1 20 58
M  V30 64 1 22 59
M  V30 65 1 27 60
M  V30 66 1 27 61
M  V30 67 1 27 62
M  V30 68 1 28 63
M  V30 69 1 28 64
M  V30 70 1 28 65
M  V30 71 1 30 66
M  V30 72 1 31 67
M  V30 73 1 31 68
M  V30 74 1 32 69
M  V30 75 1 32 70
M  V30 76 1 33 71
M  V30 77 1 33 72
M  V30 78 1 34 73
M  V30 79 1 34 74
M  V30 80 1 38 75
M  V30 81 1 39 76
M  V30 82 1 39 77
M  V30 END BOND
M  V30 END CTAB
M  END
>  <Dataset>  (465) 
ChEMBL_Kinases

>  <Ligand_Instance>  (465) 
nan

>  <PDB_ID>  (465) 
nan

>  <Standardized_SMILES>  (465) 
CC(C)N1C2CCC1CN(C(=O)c1ccc(Nc3ncc4cc(C(=O)N(C)C)n(C5CCCC5)c4n3)nc1)C2

>  <Name>  (465) 
nan

>  <Pocket>  (465) 
nan

>  <ATP_Site>  (465) 
nan

>  <Peripheral>  (465) 
nan

>  <Num_H_Atoms_ProtBoundConf>  (465) 
nan

>  <Num_Resolved_Atoms>  (465) 
nan

>  <Num_Not_Resolved_Atoms>  (465) 
nan

$$$$
CHEMBL3691588
     RDKit          3D

  0  0  0  0  0  0  0  0  0  0999 V3000
M  V30 BEGIN CTAB
M  V30 COUNTS 82 88 0 0 0
M  V30 BEGIN ATOM
M  V30 1 C 4.698723 -2.026710 5.406905 0
M  V30 2 N 4.509208 -1.736601 3.978378 0
M  V30 3 C 3.417729 -2.594595 3.501218 0
M  V30 4 C 5.280811 -0.784374 3.246347 0
M  V30 5 O 6.116952 -0.261874 4.012111 0
M  V30 6 C 4.893795 -0.687983 1.862031 0
M  V30 7 C 5.002845 -1.728005 0.966671 0
M  V30 8 C 4.550843 -1.319894 -0.261109 0
M  V30 9 C 4.430181 -1.947055 -1.487930 0
M  V30 10 N 3.912630 -1.188897 -2.490023 0
M  V30 11 C 3.535265 0.099091 -2.314283 0
M  V30 12 N 2.986997 0.646339 -3.510150 0
M  V30 13 C 1.543921 0.630371 -3.538510 0
M  V30 14 C 0.957064 0.128777 -2.397297 0
M  V30 15 C -0.456626 0.116898 -2.440193 0
M  V30 16 C -1.277827 0.550981 -3.494459 0
M  V30 17 C -2.713251 0.473199 -3.355119 0
M  V30 18 O -2.691142 -0.770172 -3.185866 0
M  V30 19 N -3.735254 -0.477114 -3.122590 0
M  V30 20 C -3.886114 -1.919671 -2.953336 0
M  V30 21 C -4.286177 -2.113064 -1.501207 0
M  V30 22 C -5.660218 -2.718143 -1.375174 0
M  V30 23 N -6.532976 -1.950135 -0.552036 0
M  V30 24 C -6.553270 -2.193449 0.826095 0
M  V30 25 C -5.343661 -1.973941 1.611169 0
M  V30 26 C -4.949991 -0.853663 2.315675 0
M  V30 27 C -3.728006 -0.830902 3.006547 0
M  V30 28 C -2.878231 -1.927181 3.005542 0
M  V30 29 C -3.254605 -3.071751 2.299473 0
M  V30 30 C -4.473593 -3.071836 1.619968 0
M  V30 31 C -6.603444 -0.608827 -1.026333 0
M  V30 32 C -5.279293 -0.015011 -1.395473 0
M  V30 33 C -5.075945 0.141749 -2.903892 0
M  V30 34 O -4.312260 -0.886494 -0.838022 0
M  V30 35 C -0.555881 1.022674 -4.561299 0
M  V30 36 N 0.777064 1.062389 -4.585538 0
M  V30 37 N 3.662510 0.695696 -1.104483 0
M  V30 38 C 4.175292 -0.010361 -0.054267 0
M  V30 39 N 4.378780 0.373272 1.215414 0
M  V30 40 C 4.140680 1.629738 1.888903 0
M  V30 41 C 5.455855 2.403209 2.012592 0
M  V30 42 C 5.589390 3.166960 0.737970 0
M  V30 43 C 4.169608 3.566239 0.447904 0
M  V30 44 C 3.260080 2.578264 1.146702 0
M  V30 45 H 4.996210 -3.090492 5.543555 0
M  V30 46 H 3.746607 -1.870082 5.955486 0
M  V30 47 H 5.477023 -1.420091 5.867644 0
M  V30 48 H 2.553156 -2.602513 4.201626 0
M  V30 49 H 3.121604 -2.346918 2.481536 0
M  V30 50 H 3.795463 -3.648855 3.487769 0
M  V30 51 H 5.390316 -2.736398 1.176345 0
M  V30 52 H 4.750717 -2.975048 -1.556836 0
M  V30 53 H 3.395362 1.050091 -4.358232 0
M  V30 54 H 1.382237 -0.248721 -1.494759 0
M  V30 55 H -0.995818 -0.270909 -1.558529 0
M  V30 56 H -4.776421 -2.245326 -3.576914 0
M  V30 57 H -3.043464 -2.529077 -3.259240 0
M  V30 58 H -3.500602 -2.724350 -1.052721 0
M  V30 59 H -5.615808 -3.786625 -1.172374 0
M  V30 60 H -6.103120 -2.652267 -2.418497 0
M  V30 61 H -6.930389 -3.248522 0.986396 0
M  V30 62 H -7.391747 -1.576072 1.265774 0
M  V30 63 H -5.652789 -0.044599 2.279255 0
M  V30 64 H -3.472289 0.070020 3.541023 0
M  V30 65 H -1.932378 -1.926481 3.528896 0
M  V30 66 H -2.587463 -3.909173 2.301921 0
M  V30 67 H -4.669744 -4.019657 1.098483 0
M  V30 68 H -7.214223 -0.612338 -1.980990 0
M  V30 69 H -7.109461 0.028879 -0.280939 0
M  V30 70 H -5.098790 0.968027 -0.932945 0
M  V30 71 H -5.808299 -0.433909 -3.497025 0
M  V30 72 H -5.075585 1.177116 -3.234351 0
M  V30 73 H -1.124487 1.375471 -5.408712 0
M  V30 74 H 3.753586 1.420562 2.925693 0
M  V30 75 H 5.462833 3.090046 2.867948 0
M  V30 76 H 6.306798 1.661705 2.067282 0
M  V30 77 H 6.224581 4.075673 0.923143 0
M  V30 78 H 6.076777 2.611131 -0.070373 0
M  V30 79 H 4.045162 4.583973 0.923924 0
M  V30 80 H 3.938121 3.720929 -0.610480 0
M  V30 81 H 2.633678 3.126478 1.886956 0
M  V30 82 H 2.547807 2.081020 0.467957 0
M  V30 END ATOM
M  V30 BEGIN BOND
M  V30 1 1 1 2
M  V30 2 1 2 3
M  V30 3 1 2 4
M  V30 4 2 4 5
M  V30 5 1 4 6
M  V30 6 2 6 7
M  V30 7 1 7 8
M  V30 8 2 8 9
M  V30 9 1 9 10
M  V30 10 2 10 11
M  V30 11 1 11 12
M  V30 12 1 12 13
M  V30 13 2 13 14
M  V30 14 1 14 15
M  V30 15 2 15 16
M  V30 16 1 16 17
M  V30 17 2 17 18
M  V30 18 1 17 19
M  V30 19 1 19 20
M  V30 20 1 20 21
M  V30 21 1 21 22
M  V30 22 1 22 23
M  V30 23 1 23 24
M  V30 24 1 24 25
M  V30 25 2 25 26
M  V30 26 1 26 27
M  V30 27 2 27 28
M  V30 28 1 28 29
M  V30 29 2 29 30
M  V30 30 1 23 31
M  V30 31 1 31 32
M  V30 32 1 32 33
M  V30 33 1 32 34
M  V30 34 1 16 35
M  V30 35 2 35 36
M  V30 36 1 11 37
M  V30 37 2 37 38
M  V30 38 1 38 39
M  V30 39 1 39 40
M  V30 40 1 40 41
M  V30 41 1 41 42
M  V30 42 1 42 43
M  V30 43 1 43 44
M  V30 44 1 39 6
M  V30 45 1 44 40
M  V30 46 1 38 8
M  V30 47 1 36 13
M  V30 48 1 33 19
M  V30 49 1 34 21
M  V30 50 1 30 25
M  V30 51 1 1 45
M  V30 52 1 1 46
M  V30 53 1 1 47
M  V30 54 1 3 48
M  V30 55 1 3 49
M  V30 56 1 3 50
M  V30 57 1 7 51
M  V30 58 1 9 52
M  V30 59 1 12 53
M  V30 60 1 14 54
M  V30 61 1 15 55
M  V30 62 1 20 56
M  V30 63 1 20 57
M  V30 64 1 21 58
M  V30 65 1 22 59
M  V30 66 1 22 60
M  V30 67 1 24 61
M  V30 68 1 24 62
M  V30 69 1 26 63
M  V30 70 1 27 64
M  V30 71 1 28 65
M  V30 72 1 29 66
M  V30 73 1 30 67
M  V30 74 1 31 68
M  V30 75 1 31 69
M  V30 76 1 32 70
M  V30 77 1 33 71
M  V30 78 1 33 72
M  V30 79 1 35 73
M  V30 80 1 40 74
M  V30 81 1 41 75
M  V30 82 1 41 76
M  V30 83 1 42 77
M  V30 84 1 42 78
M  V30 85 1 43 79
M  V30 86 1 43 80
M  V30 87 1 44 81
M  V30 88 1 44 82
M  V30 END BOND
M  V30 END CTAB
M  END
>  <Dataset>  (466) 
ChEMBL_Kinases

>  <Ligand_Instance>  (466) 
nan

>  <PDB_ID>  (466) 
nan

>  <Standardized_SMILES>  (466) 
CN(C)C(=O)c1cc2cnc(Nc3ccc(C(=O)N4CC5CN(Cc6ccccc6)CC(C4)O5)cn3)nc2n1C1CCCC1

>  <Name>  (466) 
nan

>  <Pocket>  (466) 
nan

>  <ATP_Site>  (466) 
nan

>  <Peripheral>  (466) 
nan

>  <Num_H_Atoms_ProtBoundConf>  (466) 
nan

>  <Num_Resolved_Atoms>  (466) 
nan

>  <Num_Not_Resolved_Atoms>  (466) 
nan

$$$$
CHEMBL3691643
     RDKit          3D

  0  0  0  0  0  0  0  0  0  0999 V3000
M  V30 BEGIN CTAB
M  V30 COUNTS 72 77 0 0 0
M  V30 BEGIN ATOM
M  V30 1 C 3.586744 -2.774054 1.177697 0
M  V30 2 N 4.601269 -1.755589 1.400737 0
M  V30 3 C 5.499070 -2.258729 2.459794 0
M  V30 4 C 4.933902 -0.452493 0.861402 0
M  V30 5 O 5.914690 0.225738 1.288683 0
M  V30 6 C 4.036223 -0.015235 -0.206676 0
M  V30 7 C 4.176315 -0.471442 -1.513637 0
M  V30 8 C 3.183087 0.127229 -2.211726 0
M  V30 9 C 2.681432 0.159640 -3.519877 0
M  V30 10 N 1.596176 0.885458 -3.935030 0
M  V30 11 C 0.973735 1.611790 -3.027096 0
M  V30 12 N -0.220086 2.442855 -3.004987 0
M  V30 13 C -1.287806 1.830982 -2.225776 0
M  V30 14 C -2.563023 2.377722 -2.025347 0
M  V30 15 C -3.456128 1.687378 -1.237271 0
M  V30 16 C -3.175483 0.500441 -0.634712 0
M  V30 17 N -4.008336 -0.297646 0.194283 0
M  V30 18 C -3.666753 -1.503590 0.924062 0
M  V30 19 C -4.912657 -2.320845 0.695618 0 CFG=1
M  V30 20 C -5.218084 -2.614530 -0.732824 0
M  V30 21 C -4.086596 -3.203303 -1.518489 0
M  V30 22 C -3.689208 -4.509514 -0.870212 0
M  V30 23 N -2.883911 -4.266034 0.276842 0
M  V30 24 C -3.584317 -4.274227 1.521033 0
M  V30 25 C -4.934110 -3.590927 1.479480 0
M  V30 26 O -5.879365 -1.353903 1.129266 0
M  V30 27 C -5.396914 -0.142699 0.574323 0
M  V30 28 O -5.981290 0.972117 0.384471 0
M  V30 29 C -1.913783 -0.027413 -0.842609 0
M  V30 30 N -1.070900 0.663650 -1.611129 0
M  V30 31 N 1.444362 1.589974 -1.779423 0
M  V30 32 C 2.497864 0.902807 -1.317997 0
M  V30 33 N 3.028544 0.820150 -0.051992 0
M  V30 34 C 2.497614 1.534650 1.046236 0
M  V30 35 C 3.358066 2.582287 1.668490 0
M  V30 36 C 2.426050 3.050311 2.791583 0
M  V30 37 C 1.579135 1.846661 3.150230 0
M  V30 38 C 2.082975 0.706491 2.242833 0
M  V30 39 H 3.085803 -2.925176 2.180650 0
M  V30 40 H 4.057145 -3.753633 0.964793 0
M  V30 41 H 2.834284 -2.470128 0.440119 0
M  V30 42 H 6.310204 -1.560390 2.693950 0
M  V30 43 H 5.993375 -3.201367 2.089217 0
M  V30 44 H 4.911027 -2.541716 3.343994 0
M  V30 45 H 4.888677 -1.147566 -1.956017 0
M  V30 46 H 3.190739 -0.436863 -4.257251 0
M  V30 47 H -0.358795 3.366624 -3.467187 0
M  V30 48 H -2.753121 3.305464 -2.506781 0
M  V30 49 H -4.445492 2.079696 -1.063031 0
M  V30 50 H -2.741150 -1.948446 0.599285 0
M  V30 51 H -3.683397 -1.236006 2.010996 0
M  V30 52 H -6.022610 -3.412608 -0.712637 0
M  V30 53 H -5.711924 -1.746106 -1.230902 0
M  V30 54 H -4.482300 -3.446188 -2.524868 0
M  V30 55 H -3.220021 -2.560045 -1.666230 0
M  V30 56 H -4.587140 -5.106611 -0.612029 0
M  V30 57 H -3.076386 -5.052474 -1.629663 0
M  V30 58 H -2.030518 -4.815157 0.364305 0
M  V30 59 H -2.923089 -3.863870 2.306603 0
M  V30 60 H -3.761333 -5.350226 1.778063 0
M  V30 61 H -5.648621 -4.316447 1.064051 0
M  V30 62 H -5.198199 -3.331408 2.539599 0
M  V30 63 H -1.447879 -0.936814 -0.494405 0
M  V30 64 H 1.543921 2.080588 0.757591 0
M  V30 65 H 4.240297 2.178971 2.195777 0
M  V30 66 H 3.584778 3.426349 0.980522 0
M  V30 67 H 1.796624 3.861302 2.345915 0
M  V30 68 H 3.015071 3.411880 3.658064 0
M  V30 69 H 0.530417 2.022648 2.789450 0
M  V30 70 H 1.617998 1.564045 4.201475 0
M  V30 71 H 1.257154 0.026263 1.982726 0
M  V30 72 H 2.948226 0.231126 2.704235 0
M  V30 END ATOM
M  V30 BEGIN BOND
M  V30 1 1 1 2
M  V30 2 1 2 3
M  V30 3 1 2 4
M  V30 4 2 4 5
M  V30 5 1 4 6
M  V30 6 2 6 7
M  V30 7 1 7 8
M  V30 8 2 8 9
M  V30 9 1 9 10
M  V30 10 2 10 11
M  V30 11 1 11 12
M  V30 12 1 12 13
M  V30 13 2 13 14
M  V30 14 1 14 15
M  V30 15 2 15 16
M  V30 16 1 16 17
M  V30 17 1 17 18
M  V30 18 1 18 19
M  V30 19 1 19 20
M  V30 20 1 20 21
M  V30 21 1 21 22
M  V30 22 1 22 23
M  V30 23 1 23 24
M  V30 24 1 24 25
M  V30 25 1 19 26 CFG=1
M  V30 26 1 26 27
M  V30 27 2 27 28
M  V30 28 1 16 29
M  V30 29 2 29 30
M  V30 30 1 11 31
M  V30 31 2 31 32
M  V30 32 1 32 33
M  V30 33 1 33 34
M  V30 34 1 34 35
M  V30 35 1 35 36
M  V30 36 1 36 37
M  V30 37 1 37 38
M  V30 38 1 33 6
M  V30 39 1 38 34
M  V30 40 1 32 8
M  V30 41 1 30 13
M  V30 42 1 27 17
M  V30 43 1 25 19
M  V30 44 1 1 39
M  V30 45 1 1 40
M  V30 46 1 1 41
M  V30 47 1 3 42
M  V30 48 1 3 43
M  V30 49 1 3 44
M  V30 50 1 7 45
M  V30 51 1 9 46
M  V30 52 1 12 47
M  V30 53 1 14 48
M  V30 54 1 15 49
M  V30 55 1 18 50
M  V30 56 1 18 51
M  V30 57 1 20 52
M  V30 58 1 20 53
M  V30 59 1 21 54
M  V30 60 1 21 55
M  V30 61 1 22 56
M  V30 62 1 22 57
M  V30 63 1 23 58
M  V30 64 1 24 59
M  V30 65 1 24 60
M  V30 66 1 25 61
M  V30 67 1 25 62
M  V30 68 1 29 63
M  V30 69 1 34 64
M  V30 70 1 35 65
M  V30 71 1 35 66
M  V30 72 1 36 67
M  V30 73 1 36 68
M  V30 74 1 37 69
M  V30 75 1 37 70
M  V30 76 1 38 71
M  V30 77 1 38 72
M  V30 END BOND
M  V30 END CTAB
M  END
>  <Dataset>  (467) 
ChEMBL_Kinases

>  <Ligand_Instance>  (467) 
nan

>  <PDB_ID>  (467) 
nan

>  <Standardized_SMILES>  (467) 
CN(C)C(=O)c1cc2cnc(Nc3ccc(N4C[C@]5(CCCNCC5)OC4=O)cn3)nc2n1C1CCCC1

>  <Name>  (467) 
nan

>  <Pocket>  (467) 
nan

>  <ATP_Site>  (467) 
nan

>  <Peripheral>  (467) 
nan

>  <Num_H_Atoms_ProtBoundConf>  (467) 
nan

>  <Num_Resolved_Atoms>  (467) 
nan

>  <Num_Not_Resolved_Atoms>  (467) 
nan

$$$$
CHEMBL3691642
     RDKit          3D

  0  0  0  0  0  0  0  0  0  0999 V3000
M  V30 BEGIN CTAB
M  V30 COUNTS 72 77 0 0 0
M  V30 BEGIN ATOM
M  V30 1 C 7.731491 0.505533 -0.326888 0
M  V30 2 N 7.201685 -0.539337 0.519274 0
M  V30 3 C 8.172349 -1.277057 1.290704 0
M  V30 4 C 5.849107 -0.920615 0.678271 0
M  V30 5 O 5.429498 -1.857012 1.443674 0
M  V30 6 C 4.691423 -0.332157 0.013698 0
M  V30 7 C 4.519117 -0.304522 -1.356138 0
M  V30 8 C 3.318532 0.325862 -1.611364 0
M  V30 9 C 2.579485 0.668713 -2.726472 0
M  V30 10 N 1.393689 1.306101 -2.664263 0
M  V30 11 C 0.898783 1.627575 -1.461806 0
M  V30 12 N -0.332196 2.300973 -1.149479 0
M  V30 13 C -1.532846 1.561094 -0.942894 0
M  V30 14 C -2.738264 2.180480 -0.639688 0
M  V30 15 C -3.922817 1.491255 -0.433196 0
M  V30 16 C -3.822858 0.113115 -0.551832 0
M  V30 17 N -5.024044 -0.662750 -0.347828 0
M  V30 18 C -6.176079 -1.228368 -1.033867 0
M  V30 19 C -6.335674 -2.547110 -0.279124 0 CFG=2
M  V30 20 C -5.496108 -3.547059 -1.003589 0
M  V30 21 C -4.632287 -4.385498 -0.101848 0
M  V30 22 C -5.536540 -5.455960 0.489956 0
M  V30 23 N -6.617263 -4.740467 1.135251 0
M  V30 24 C -7.727114 -4.459105 0.262280 0
M  V30 25 C -7.759764 -3.018201 -0.221756 0
M  V30 26 O -5.948095 -2.296247 1.051937 0
M  V30 27 C -5.244980 -1.074808 1.020612 0
M  V30 28 O -4.941345 -0.571232 2.156072 0
M  V30 29 C -2.631135 -0.528726 -0.853663 0
M  V30 30 N -1.504906 0.204418 -1.044507 0
M  V30 31 N 1.572252 1.320248 -0.337517 0
M  V30 32 C 2.757983 0.683816 -0.380455 0
M  V30 33 N 3.624780 0.265052 0.574850 0
M  V30 34 C 3.502528 0.397472 1.991490 0
M  V30 35 C 4.651096 1.149250 2.642903 0
M  V30 36 C 4.459941 2.505717 1.952517 0
M  V30 37 C 2.955770 2.686016 2.200421 0
M  V30 38 C 2.396156 1.330729 2.429867 0
M  V30 39 H 8.684807 0.140849 -0.771250 0
M  V30 40 H 8.043721 1.404849 0.271703 0
M  V30 41 H 7.056783 0.824647 -1.121323 0
M  V30 42 H 8.417491 -0.656754 2.199357 0
M  V30 43 H 9.078461 -1.423990 0.664025 0
M  V30 44 H 7.800639 -2.273715 1.568211 0
M  V30 45 H 5.161513 -0.686106 -2.159005 0
M  V30 46 H 2.969418 0.414077 -3.702280 0
M  V30 47 H -0.361489 3.336227 -1.070404 0
M  V30 48 H -2.776510 3.262930 -0.555193 0
M  V30 49 H -4.838487 1.983822 -0.201273 0
M  V30 50 H -6.036254 -1.381358 -2.104538 0
M  V30 51 H -7.069969 -0.617015 -0.875086 0
M  V30 52 H -6.161820 -4.242589 -1.566742 0
M  V30 53 H -4.827718 -3.103311 -1.765877 0
M  V30 54 H -3.871284 -4.881919 -0.731009 0
M  V30 55 H -4.191561 -3.766200 0.690967 0
M  V30 56 H -4.948736 -6.012452 1.232393 0
M  V30 57 H -5.892582 -6.109127 -0.331671 0
M  V30 58 H -6.883584 -5.134397 2.051254 0
M  V30 59 H -8.650205 -4.697505 0.852861 0
M  V30 60 H -7.684605 -5.172030 -0.575116 0
M  V30 61 H -8.252242 -2.977902 -1.219546 0
M  V30 62 H -8.298255 -2.428626 0.531082 0
M  V30 63 H -2.569771 -1.615657 -0.943457 0
M  V30 64 H 3.363597 -0.590097 2.509374 0
M  V30 65 H 4.351740 1.311773 3.700707 0
M  V30 66 H 5.629415 0.719110 2.505095 0
M  V30 67 H 4.626080 2.362008 0.862090 0
M  V30 68 H 5.067992 3.285445 2.410412 0
M  V30 69 H 2.493316 3.293085 1.422686 0
M  V30 70 H 2.927769 3.326005 3.130782 0
M  V30 71 H 1.419952 1.116420 2.028633 0
M  V30 72 H 2.323298 1.194182 3.547166 0
M  V30 END ATOM
M  V30 BEGIN BOND
M  V30 1 1 1 2
M  V30 2 1 2 3
M  V30 3 1 2 4
M  V30 4 2 4 5
M  V30 5 1 4 6
M  V30 6 2 6 7
M  V30 7 1 7 8
M  V30 8 2 8 9
M  V30 9 1 9 10
M  V30 10 2 10 11
M  V30 11 1 11 12
M  V30 12 1 12 13
M  V30 13 2 13 14
M  V30 14 1 14 15
M  V30 15 2 15 16
M  V30 16 1 16 17
M  V30 17 1 17 18
M  V30 18 1 18 19
M  V30 19 1 19 20
M  V30 20 1 20 21
M  V30 21 1 21 22
M  V30 22 1 22 23
M  V30 23 1 23 24
M  V30 24 1 24 25
M  V30 25 1 19 26 CFG=1
M  V30 26 1 26 27
M  V30 27 2 27 28
M  V30 28 1 16 29
M  V30 29 2 29 30
M  V30 30 1 11 31
M  V30 31 2 31 32
M  V30 32 1 32 33
M  V30 33 1 33 34
M  V30 34 1 34 35
M  V30 35 1 35 36
M  V30 36 1 36 37
M  V30 37 1 37 38
M  V30 38 1 33 6
M  V30 39 1 38 34
M  V30 40 1 32 8
M  V30 41 1 30 13
M  V30 42 1 27 17
M  V30 43 1 25 19
M  V30 44 1 1 39
M  V30 45 1 1 40
M  V30 46 1 1 41
M  V30 47 1 3 42
M  V30 48 1 3 43
M  V30 49 1 3 44
M  V30 50 1 7 45
M  V30 51 1 9 46
M  V30 52 1 12 47
M  V30 53 1 14 48
M  V30 54 1 15 49
M  V30 55 1 18 50
M  V30 56 1 18 51
M  V30 57 1 20 52
M  V30 58 1 20 53
M  V30 59 1 21 54
M  V30 60 1 21 55
M  V30 61 1 22 56
M  V30 62 1 22 57
M  V30 63 1 23 58
M  V30 64 1 24 59
M  V30 65 1 24 60
M  V30 66 1 25 61
M  V30 67 1 25 62
M  V30 68 1 29 63
M  V30 69 1 34 64
M  V30 70 1 35 65
M  V30 71 1 35 66
M  V30 72 1 36 67
M  V30 73 1 36 68
M  V30 74 1 37 69
M  V30 75 1 37 70
M  V30 76 1 38 71
M  V30 77 1 38 72
M  V30 END BOND
M  V30 END CTAB
M  END
>  <Dataset>  (468) 
ChEMBL_Kinases

>  <Ligand_Instance>  (468) 
nan

>  <PDB_ID>  (468) 
nan

>  <Standardized_SMILES>  (468) 
CN(C)C(=O)c1cc2cnc(Nc3ccc(N4C[C@@]5(CCCNCC5)OC4=O)cn3)nc2n1C1CCCC1

>  <Name>  (468) 
nan

>  <Pocket>  (468) 
nan

>  <ATP_Site>  (468) 
nan

>  <Peripheral>  (468) 
nan

>  <Num_H_Atoms_ProtBoundConf>  (468) 
nan

>  <Num_Resolved_Atoms>  (468) 
nan

>  <Num_Not_Resolved_Atoms>  (468) 
nan

$$$$
CHEMBL3691641
     RDKit          3D

  0  0  0  0  0  0  0  0  0  0999 V3000
M  V30 BEGIN CTAB
M  V30 COUNTS 75 80 0 0 0
M  V30 BEGIN ATOM
M  V30 1 C 4.848491 -4.151033 5.980689 0
M  V30 2 N 3.671705 -4.233150 5.195494 0
M  V30 3 C 2.720912 -3.185249 5.349693 0
M  V30 4 C 1.718994 -3.106494 4.232195 0
M  V30 5 C 2.244231 -2.334308 3.061927 0
M  V30 6 C 3.700256 -2.544342 2.771784 0
M  V30 7 C 4.174419 -3.943765 2.781826 0
M  V30 8 C 3.764089 -4.808915 3.911715 0
M  V30 9 C 3.906271 -2.001089 1.340666 0
M  V30 10 N 3.837226 -0.555521 1.508910 0
M  V30 11 C 3.314917 0.433710 0.630670 0
M  V30 12 C 1.975098 0.679355 0.844521 0
M  V30 13 C 1.344724 1.632357 0.033697 0
M  V30 14 C 1.985344 2.344573 -0.971857 0
M  V30 15 N 1.287185 3.308903 -1.788931 0
M  V30 16 C -0.072639 3.380300 -1.384134 0
M  V30 17 N -0.784761 4.235125 -0.596375 0
M  V30 18 C -2.094856 3.995370 -0.355492 0
M  V30 19 C -2.683710 2.879801 -0.919468 0
M  V30 20 C -3.987651 2.431759 -0.803755 0
M  V30 21 C -3.990748 1.282898 -1.561913 0
M  V30 22 C -5.198215 0.489655 -1.699636 0
M  V30 23 O -5.321068 -0.684510 -1.268163 0
M  V30 24 N -6.510035 0.564379 -2.230456 0
M  V30 25 C -7.126828 -0.723584 -1.977634 0
M  V30 26 C -7.219331 1.644956 -2.907520 0
M  V30 27 N -2.828602 1.000036 -2.116602 0
M  V30 28 C -2.284097 0.004233 -2.953305 0
M  V30 29 C -3.202498 -0.861147 -3.726351 0
M  V30 30 C -2.136326 -1.681201 -4.505536 0
M  V30 31 C -1.264781 -2.122882 -3.321886 0
M  V30 32 C -1.415364 -1.029683 -2.263253 0
M  V30 33 C -2.008506 2.015037 -1.703963 0
M  V30 34 N -0.720556 2.328979 -1.889033 0
M  V30 35 N 3.292033 2.048119 -1.117742 0
M  V30 36 C 3.945568 1.144390 -0.368413 0
M  V30 37 C 4.427868 -0.388905 2.802079 0
M  V30 38 O 4.818339 0.708191 3.298103 0
M  V30 39 O 4.523419 -1.617536 3.466424 0
M  V30 40 H 4.845421 -4.981570 6.745112 0
M  V30 41 H 4.812545 -3.172530 6.539722 0
M  V30 42 H 5.749133 -4.297716 5.387962 0
M  V30 43 H 3.213622 -2.195454 5.434731 0
M  V30 44 H 2.160859 -3.325902 6.293160 0
M  V30 45 H 1.287476 -4.057155 3.917231 0
M  V30 46 H 0.850535 -2.510122 4.640821 0
M  V30 47 H 2.151630 -1.236134 3.318854 0
M  V30 48 H 1.621792 -2.472834 2.155985 0
M  V30 49 H 3.822247 -4.411605 1.814666 0
M  V30 50 H 5.289445 -3.920463 2.693217 0
M  V30 51 H 2.815811 -5.380710 3.674781 0
M  V30 52 H 4.533670 -5.636443 3.978528 0
M  V30 53 H 3.069967 -2.296282 0.678243 0
M  V30 54 H 4.859320 -2.329723 0.906999 0
M  V30 55 H 1.370583 0.189896 1.595117 0
M  V30 56 H 0.274684 1.791732 0.244893 0
M  V30 57 H 1.903046 3.768724 -2.521354 0
M  V30 58 H -2.607661 4.700639 0.270488 0
M  V30 59 H -4.805341 2.891237 -0.242606 0
M  V30 60 H -6.515982 -1.511873 -2.489531 0
M  V30 61 H -7.191928 -0.861229 -0.883456 0
M  V30 62 H -8.163615 -0.749691 -2.395888 0
M  V30 63 H -6.540397 2.307776 -3.460747 0
M  V30 64 H -7.682360 2.276060 -2.093726 0
M  V30 65 H -8.047886 1.255672 -3.501148 0
M  V30 66 H -1.584331 0.468326 -3.723033 0
M  V30 67 H -3.813858 -0.380534 -4.492543 0
M  V30 68 H -3.710155 -1.669580 -3.151550 0
M  V30 69 H -2.585300 -2.533222 -5.012722 0
M  V30 70 H -1.571529 -0.980845 -5.130314 0
M  V30 71 H -0.210250 -2.250552 -3.638968 0
M  V30 72 H -1.721269 -3.041924 -2.905657 0
M  V30 73 H -1.948637 -1.388496 -1.360482 0
M  V30 74 H -0.416725 -0.618929 -2.083631 0
M  V30 75 H 4.991039 0.901528 -0.481284 0
M  V30 END ATOM
M  V30 BEGIN BOND
M  V30 1 1 1 2
M  V30 2 1 2 3
M  V30 3 1 3 4
M  V30 4 1 4 5
M  V30 5 1 5 6
M  V30 6 1 6 7
M  V30 7 1 7 8
M  V30 8 1 6 9
M  V30 9 1 9 10
M  V30 10 1 10 11
M  V30 11 2 11 12
M  V30 12 1 12 13
M  V30 13 2 13 14
M  V30 14 1 14 15
M  V30 15 1 15 16
M  V30 16 2 16 17
M  V30 17 1 17 18
M  V30 18 2 18 19
M  V30 19 1 19 20
M  V30 20 2 20 21
M  V30 21 1 21 22
M  V30 22 2 22 23
M  V30 23 1 22 24
M  V30 24 1 24 25
M  V30 25 1 24 26
M  V30 26 1 21 27
M  V30 27 1 27 28
M  V30 28 1 28 29
M  V30 29 1 29 30
M  V30 30 1 30 31
M  V30 31 1 31 32
M  V30 32 1 27 33
M  V30 33 2 33 34
M  V30 34 1 14 35
M  V30 35 2 35 36
M  V30 36 1 10 37
M  V30 37 2 37 38
M  V30 38 1 37 39
M  V30 39 1 8 2
M  V30 40 1 36 11
M  V30 41 1 39 6
M  V30 42 1 34 16
M  V30 43 1 33 19
M  V30 44 1 32 28
M  V30 45 1 1 40
M  V30 46 1 1 41
M  V30 47 1 1 42
M  V30 48 1 3 43
M  V30 49 1 3 44
M  V30 50 1 4 45
M  V30 51 1 4 46
M  V30 52 1 5 47
M  V30 53 1 5 48
M  V30 54 1 7 49
M  V30 55 1 7 50
M  V30 56 1 8 51
M  V30 57 1 8 52
M  V30 58 1 9 53
M  V30 59 1 9 54
M  V30 60 1 12 55
M  V30 61 1 13 56
M  V30 62 1 15 57
M  V30 63 1 18 58
M  V30 64 1 20 59
M  V30 65 1 25 60
M  V30 66 1 25 61
M  V30 67 1 25 62
M  V30 68 1 26 63
M  V30 69 1 26 64
M  V30 70 1 26 65
M  V30 71 1 28 66
M  V30 72 1 29 67
M  V30 73 1 29 68
M  V30 74 1 30 69
M  V30 75 1 30 70
M  V30 76 1 31 71
M  V30 77 1 31 72
M  V30 78 1 32 73
M  V30 79 1 32 74
M  V30 80 1 36 75
M  V30 END BOND
M  V30 END CTAB
M  END
>  <Dataset>  (469) 
ChEMBL_Kinases

>  <Ligand_Instance>  (469) 
nan

>  <PDB_ID>  (469) 
nan

>  <Standardized_SMILES>  (469) 
CN1CCCC2(CC1)CN(c1ccc(Nc3ncc4cc(C(=O)N(C)C)n(C5CCCC5)c4n3)nc1)C(=O)O2

>  <Name>  (469) 
nan

>  <Pocket>  (469) 
nan

>  <ATP_Site>  (469) 
nan

>  <Peripheral>  (469) 
nan

>  <Num_H_Atoms_ProtBoundConf>  (469) 
nan

>  <Num_Resolved_Atoms>  (469) 
nan

>  <Num_Not_Resolved_Atoms>  (469) 
nan

$$$$
CHEMBL3691640
     RDKit          3D

  0  0  0  0  0  0  0  0  0  0999 V3000
M  V30 BEGIN CTAB
M  V30 COUNTS 72 77 0 0 0
M  V30 BEGIN ATOM
M  V30 1 C 7.891371 0.242689 -0.398672 0
M  V30 2 N 7.235509 -0.574735 0.629267 0
M  V30 3 C 8.274103 -1.105891 1.489845 0
M  V30 4 C 5.888748 -0.899313 0.899825 0
M  V30 5 O 5.492631 -1.635007 1.845305 0
M  V30 6 C 4.757833 -0.423615 0.113202 0
M  V30 7 C 4.576294 -0.609232 -1.258474 0
M  V30 8 C 3.377208 -0.000424 -1.587055 0
M  V30 9 C 2.691878 0.140993 -2.762883 0
M  V30 10 N 1.505183 0.800007 -2.819953 0
M  V30 11 C 0.986691 1.329556 -1.692180 0
M  V30 12 N -0.210555 2.059457 -1.464220 0
M  V30 13 C -1.462737 1.422763 -1.171456 0
M  V30 14 C -2.633619 2.114984 -0.932164 0
M  V30 15 C -3.782758 1.392055 -0.665744 0
M  V30 16 C -3.759818 0.009942 -0.639503 0
M  V30 17 N -4.979364 -0.709828 -0.355054 0
M  V30 18 C -6.133721 -1.278437 -1.069362 0
M  V30 19 C -6.349160 -2.537460 -0.261615 0
M  V30 20 C -5.587678 -3.673325 -0.904258 0
M  V30 21 C -4.755679 -4.395242 0.134458 0
M  V30 22 C -5.705346 -5.393022 0.790026 0
M  V30 23 N -6.787140 -4.626474 1.348201 0
M  V30 24 C -7.843898 -4.363666 0.408851 0
M  V30 25 C -7.793433 -2.952422 -0.163493 0
M  V30 26 O -5.932156 -2.261315 1.065464 0
M  V30 27 C -5.257492 -1.023377 1.028137 0
M  V30 28 O -4.944318 -0.303427 2.038138 0
M  V30 29 C -2.564950 -0.648733 -0.884652 0
M  V30 30 N -1.451929 0.065883 -1.143055 0
M  V30 31 N 1.666924 1.186086 -0.541664 0
M  V30 32 C 2.841862 0.545853 -0.426831 0
M  V30 33 N 3.701962 0.269689 0.572677 0
M  V30 34 C 3.551354 0.642367 1.945352 0
M  V30 35 C 4.673671 1.558010 2.398134 0
M  V30 36 C 4.184569 2.951393 2.051722 0
M  V30 37 C 2.680924 2.901065 2.048638 0
M  V30 38 C 2.340966 1.455749 2.258769 0
M  V30 39 H 8.663296 -0.366301 -0.928528 0
M  V30 40 H 8.456707 1.055097 0.131776 0
M  V30 41 H 7.190047 0.607664 -1.157988 0
M  V30 42 H 8.887626 -0.271293 1.895408 0
M  V30 43 H 8.900356 -1.880769 0.979152 0
M  V30 44 H 7.818130 -1.636961 2.350968 0
M  V30 45 H 5.234735 -1.125891 -1.949865 0
M  V30 46 H 3.047039 -0.256100 -3.704193 0
M  V30 47 H -0.102779 3.095174 -1.527277 0
M  V30 48 H -2.578526 3.195071 -0.969890 0
M  V30 49 H -4.660026 1.980913 -0.487723 0
M  V30 50 H -5.938691 -1.460673 -2.126508 0
M  V30 51 H -6.999817 -0.619534 -0.847023 0
M  V30 52 H -6.254589 -4.436735 -1.364252 0
M  V30 53 H -4.937407 -3.323448 -1.735465 0
M  V30 54 H -3.925922 -4.892332 -0.391537 0
M  V30 55 H -4.415631 -3.627234 0.856862 0
M  V30 56 H -5.121250 -5.935452 1.551818 0
M  V30 57 H -6.108446 -6.040591 -0.019083 0
M  V30 58 H -7.118857 -4.980316 2.270889 0
M  V30 59 H -8.796864 -4.408930 1.015450 0
M  V30 60 H -7.873254 -5.148772 -0.361544 0
M  V30 61 H -8.254743 -2.999947 -1.176553 0
M  V30 62 H -8.376711 -2.236225 0.449642 0
M  V30 63 H -2.571692 -1.737810 -0.858402 0
M  V30 64 H 3.601990 -0.262449 2.619944 0
M  V30 65 H 4.799994 1.502772 3.509961 0
M  V30 66 H 5.635286 1.338211 1.887296 0
M  V30 67 H 4.601231 3.227107 1.075684 0
M  V30 68 H 4.524013 3.707656 2.797619 0
M  V30 69 H 2.341623 3.339583 1.110516 0
M  V30 70 H 2.240625 3.541806 2.857198 0
M  V30 71 H 2.189871 1.344843 3.375431 0
M  V30 72 H 1.400980 1.120142 1.817127 0
M  V30 END ATOM
M  V30 BEGIN BOND
M  V30 1 1 1 2
M  V30 2 1 2 3
M  V30 3 1 2 4
M  V30 4 2 4 5
M  V30 5 1 4 6
M  V30 6 2 6 7
M  V30 7 1 7 8
M  V30 8 2 8 9
M  V30 9 1 9 10
M  V30 10 2 10 11
M  V30 11 1 11 12
M  V30 12 1 12 13
M  V30 13 2 13 14
M  V30 14 1 14 15
M  V30 15 2 15 16
M  V30 16 1 16 17
M  V30 17 1 17 18
M  V30 18 1 18 19
M  V30 19 1 19 20
M  V30 20 1 20 21
M  V30 21 1 21 22
M  V30 22 1 22 23
M  V30 23 1 23 24
M  V30 24 1 24 25
M  V30 25 1 19 26
M  V30 26 1 26 27
M  V30 27 2 27 28
M  V30 28 1 16 29
M  V30 29 2 29 30
M  V30 30 1 11 31
M  V30 31 2 31 32
M  V30 32 1 32 33
M  V30 33 1 33 34
M  V30 34 1 34 35
M  V30 35 1 35 36
M  V30 36 1 36 37
M  V30 37 1 37 38
M  V30 38 1 33 6
M  V30 39 1 38 34
M  V30 40 1 32 8
M  V30 41 1 30 13
M  V30 42 1 27 17
M  V30 43 1 25 19
M  V30 44 1 1 39
M  V30 45 1 1 40
M  V30 46 1 1 41
M  V30 47 1 3 42
M  V30 48 1 3 43
M  V30 49 1 3 44
M  V30 50 1 7 45
M  V30 51 1 9 46
M  V30 52 1 12 47
M  V30 53 1 14 48
M  V30 54 1 15 49
M  V30 55 1 18 50
M  V30 56 1 18 51
M  V30 57 1 20 52
M  V30 58 1 20 53
M  V30 59 1 21 54
M  V30 60 1 21 55
M  V30 61 1 22 56
M  V30 62 1 22 57
M  V30 63 1 23 58
M  V30 64 1 24 59
M  V30 65 1 24 60
M  V30 66 1 25 61
M  V30 67 1 25 62
M  V30 68 1 29 63
M  V30 69 1 34 64
M  V30 70 1 35 65
M  V30 71 1 35 66
M  V30 72 1 36 67
M  V30 73 1 36 68
M  V30 74 1 37 69
M  V30 75 1 37 70
M  V30 76 1 38 71
M  V30 77 1 38 72
M  V30 END BOND
M  V30 END CTAB
M  END
>  <Dataset>  (470) 
ChEMBL_Kinases

>  <Ligand_Instance>  (470) 
nan

>  <PDB_ID>  (470) 
nan

>  <Standardized_SMILES>  (470) 
CN(C)C(=O)c1cc2cnc(Nc3ccc(N4CC5(CCCNCC5)OC4=O)cn3)nc2n1C1CCCC1

>  <Name>  (470) 
nan

>  <Pocket>  (470) 
nan

>  <ATP_Site>  (470) 
nan

>  <Peripheral>  (470) 
nan

>  <Num_H_Atoms_ProtBoundConf>  (470) 
nan

>  <Num_Resolved_Atoms>  (470) 
nan

>  <Num_Not_Resolved_Atoms>  (470) 
nan

$$$$
CHEMBL3691639
     RDKit          3D

  0  0  0  0  0  0  0  0  0  0999 V3000
M  V30 BEGIN CTAB
M  V30 COUNTS 76 82 0 0 0
M  V30 BEGIN ATOM
M  V30 1 C 8.507913 -0.561452 -0.440779 0
M  V30 2 N 7.834860 -0.817850 0.840996 0
M  V30 3 C 8.698155 -1.249368 1.925311 0
M  V30 4 C 6.461965 -0.705691 1.190727 0
M  V30 5 O 5.985054 -0.959389 2.352427 0
M  V30 6 C 5.273821 -0.310367 0.440304 0
M  V30 7 C 4.896591 -1.287247 -0.491472 0
M  V30 8 C 3.762564 -0.802468 -1.139167 0
M  V30 9 C 2.888375 -1.247668 -2.140597 0
M  V30 10 N 1.854522 -0.450138 -2.496290 0
M  V30 11 C 1.621775 0.767064 -1.926326 0
M  V30 12 N 0.451175 1.204275 -2.595272 0
M  V30 13 C -0.762851 0.869480 -1.871171 0
M  V30 14 C -0.700434 0.278764 -0.597641 0
M  V30 15 C -1.921216 -0.033360 -0.033535 0
M  V30 16 C -3.135930 0.197579 -0.635557 0
M  V30 17 N -4.308255 -0.158497 0.039944 0
M  V30 18 C -5.716373 -0.270332 -0.403848 0
M  V30 19 C -6.209694 -1.473771 0.359328 0
M  V30 20 C -5.724149 -2.787486 -0.162651 0
M  V30 21 C -5.993958 -3.838628 0.903382 0
M  V30 22 C -7.039043 -4.814477 0.365717 0
M  V30 23 C -8.316468 -4.017032 0.541559 0
M  V30 24 C -7.953019 -2.810317 1.373178 0
M  V30 25 C -7.702720 -1.567587 0.510481 0
M  V30 26 N -6.695857 -3.240462 2.002615 0
M  V30 27 C -6.956488 -4.113556 3.096945 0
M  V30 28 O -5.665292 -1.249286 1.673918 0
M  V30 29 C -4.449833 -0.581834 1.397553 0
M  V30 30 O -3.611041 -0.419400 2.349018 0
M  V30 31 C -3.150622 0.779619 -1.885641 0
M  V30 32 N -1.962588 1.080630 -2.429273 0
M  V30 33 N 2.460087 1.194601 -0.967533 0
M  V30 34 C 3.513262 0.433510 -0.572671 0
M  V30 35 N 4.417600 0.728377 0.372590 0
M  V30 36 C 4.624514 1.830944 1.253058 0
M  V30 37 C 4.022847 3.088177 0.661558 0
M  V30 38 C 4.978106 3.355650 -0.500884 0
M  V30 39 C 6.255462 2.631258 -0.169043 0
M  V30 40 C 6.085405 2.317184 1.281205 0
M  V30 41 H 7.735059 -0.232156 -1.154541 0
M  V30 42 H 9.242567 0.261160 -0.231226 0
M  V30 43 H 9.037866 -1.442576 -0.824683 0
M  V30 44 H 9.635590 -0.622676 1.956642 0
M  V30 45 H 8.237278 -1.104957 2.933571 0
M  V30 46 H 9.026199 -2.291899 1.836245 0
M  V30 47 H 5.259774 -2.273540 -0.802507 0
M  V30 48 H 3.134232 -2.228600 -2.555384 0
M  V30 49 H 0.337616 1.706644 -3.497406 0
M  V30 50 H 0.257761 0.102169 -0.136738 0
M  V30 51 H -1.770520 -0.487693 0.960218 0
M  V30 52 H -6.281731 0.635860 -0.197575 0
M  V30 53 H -5.668852 -0.455097 -1.495358 0
M  V30 54 H -6.282953 -3.036912 -1.087498 0
M  V30 55 H -4.652761 -2.802505 -0.427755 0
M  V30 56 H -5.084135 -4.384595 1.175389 0
M  V30 57 H -6.829920 -5.086989 -0.670352 0
M  V30 58 H -7.044230 -5.755171 0.970783 0
M  V30 59 H -9.092222 -4.639640 1.027802 0
M  V30 60 H -8.762341 -3.725302 -0.438680 0
M  V30 61 H -8.674231 -2.615893 2.173640 0
M  V30 62 H -8.129758 -0.655017 0.939917 0
M  V30 63 H -8.136924 -1.799553 -0.501171 0
M  V30 64 H -7.614891 -4.969990 2.844326 0
M  V30 65 H -7.521915 -3.512619 3.869249 0
M  V30 66 H -6.029064 -4.412673 3.602023 0
M  V30 67 H -4.081739 0.983770 -2.406690 0
M  V30 68 H 4.237894 1.685191 2.287827 0
M  V30 69 H 4.209398 3.964285 1.360911 0
M  V30 70 H 2.978055 3.022339 0.378854 0
M  V30 71 H 5.197602 4.441231 -0.612291 0
M  V30 72 H 4.547986 3.012010 -1.448236 0
M  V30 73 H 7.175771 3.159118 -0.416056 0
M  V30 74 H 6.213522 1.660290 -0.748588 0
M  V30 75 H 6.031136 3.305846 1.820766 0
M  V30 76 H 6.777262 1.626863 1.729563 0
M  V30 END ATOM
M  V30 BEGIN BOND
M  V30 1 1 1 2
M  V30 2 1 2 3
M  V30 3 1 2 4
M  V30 4 2 4 5
M  V30 5 1 4 6
M  V30 6 2 6 7
M  V30 7 1 7 8
M  V30 8 2 8 9
M  V30 9 1 9 10
M  V30 10 2 10 11
M  V30 11 1 11 12
M  V30 12 1 12 13
M  V30 13 2 13 14
M  V30 14 1 14 15
M  V30 15 2 15 16
M  V30 16 1 16 17
M  V30 17 1 17 18
M  V30 18 1 18 19
M  V30 19 1 19 20
M  V30 20 1 20 21
M  V30 21 1 21 22
M  V30 22 1 22 23
M  V30 23 1 23 24
M  V30 24 1 24 25
M  V30 25 1 24 26
M  V30 26 1 26 27
M  V30 27 1 19 28
M  V30 28 1 28 29
M  V30 29 2 29 30
M  V30 30 1 16 31
M  V30 31 2 31 32
M  V30 32 1 11 33
M  V30 33 2 33 34
M  V30 34 1 34 35
M  V30 35 1 35 36
M  V30 36 1 36 37
M  V30 37 1 37 38
M  V30 38 1 38 39
M  V30 39 1 39 40
M  V30 40 1 35 6
M  V30 41 1 40 36
M  V30 42 1 34 8
M  V30 43 1 32 13
M  V30 44 1 29 17
M  V30 45 1 25 19
M  V30 46 1 26 21
M  V30 47 1 1 41
M  V30 48 1 1 42
M  V30 49 1 1 43
M  V30 50 1 3 44
M  V30 51 1 3 45
M  V30 52 1 3 46
M  V30 53 1 7 47
M  V30 54 1 9 48
M  V30 55 1 12 49
M  V30 56 1 14 50
M  V30 57 1 15 51
M  V30 58 1 18 52
M  V30 59 1 18 53
M  V30 60 1 20 54
M  V30 61 1 20 55
M  V30 62 1 21 56
M  V30 63 1 22 57
M  V30 64 1 22 58
M  V30 65 1 23 59
M  V30 66 1 23 60
M  V30 67 1 24 61
M  V30 68 1 25 62
M  V30 69 1 25 63
M  V30 70 1 27 64
M  V30 71 1 27 65
M  V30 72 1 27 66
M  V30 73 1 31 67
M  V30 74 1 36 68
M  V30 75 1 37 69
M  V30 76 1 37 70
M  V30 77 1 38 71
M  V30 78 1 38 72
M  V30 79 1 39 73
M  V30 80 1 39 74
M  V30 81 1 40 75
M  V30 82 1 40 76
M  V30 END BOND
M  V30 END CTAB
M  END
>  <Dataset>  (471) 
ChEMBL_Kinases

>  <Ligand_Instance>  (471) 
nan

>  <PDB_ID>  (471) 
nan

>  <Standardized_SMILES>  (471) 
CN(C)C(=O)c1cc2cnc(Nc3ccc(N4CC5(CC6CCC(C5)N6C)OC4=O)cn3)nc2n1C1CCCC1

>  <Name>  (471) 
nan

>  <Pocket>  (471) 
nan

>  <ATP_Site>  (471) 
nan

>  <Peripheral>  (471) 
nan

>  <Num_H_Atoms_ProtBoundConf>  (471) 
nan

>  <Num_Resolved_Atoms>  (471) 
nan

>  <Num_Not_Resolved_Atoms>  (471) 
nan

$$$$
CHEMBL3691638
     RDKit          3D

  0  0  0  0  0  0  0  0  0  0999 V3000
M  V30 BEGIN CTAB
M  V30 COUNTS 73 79 0 0 0
M  V30 BEGIN ATOM
M  V30 1 C 6.435947 -3.241606 2.677764 0
M  V30 2 N 5.708990 -2.108186 2.168595 0
M  V30 3 C 5.253743 -1.242490 3.238086 0
M  V30 4 C 5.516908 -1.954858 0.746889 0
M  V30 5 O 6.105254 -2.975609 0.318440 0
M  V30 6 C 4.789417 -0.813428 0.213111 0
M  V30 7 C 5.540913 0.161965 -0.455420 0
M  V30 8 C 4.670093 1.144185 -0.877047 0
M  V30 9 C 4.670861 2.340376 -1.559453 0
M  V30 10 N 3.523689 3.030476 -1.779601 0
M  V30 11 C 2.340249 2.605865 -1.357611 0
M  V30 12 N 1.056582 3.200100 -1.599573 0
M  V30 13 C -0.176423 2.877798 -1.021834 0
M  V30 14 C -0.301561 2.040794 0.066039 0
M  V30 15 C -1.545351 1.638493 0.505801 0
M  V30 16 C -2.641701 2.108063 -0.186812 0
M  V30 17 N -3.896365 1.591864 0.312517 0
M  V30 18 C -4.118195 0.274750 -0.310209 0
M  V30 19 C -5.268876 -0.370116 0.430637 0
M  V30 20 C -6.340694 -0.663976 -0.559143 0
M  V30 21 C -6.351300 -2.036130 -1.136738 0
M  V30 22 C -5.073724 -2.450112 -1.820502 0
M  V30 23 C -4.236790 -3.057355 -0.727568 0
M  V30 24 C -5.082189 -2.872277 0.497510 0
M  V30 25 C -4.832279 -1.575660 1.225899 0
M  V30 26 N -6.424658 -2.978189 -0.003638 0
M  V30 27 O -5.700052 0.618345 1.333443 0
M  V30 28 C -4.999862 1.794717 1.154984 0
M  V30 29 O -5.056333 3.008992 1.523743 0
M  V30 30 C -2.493049 2.955162 -1.277614 0
M  V30 31 N -1.263136 3.324710 -1.674504 0
M  V30 32 N 2.368898 1.445242 -0.697837 0
M  V30 33 C 3.443003 0.699716 -0.435887 0
M  V30 34 N 3.470686 -0.467418 0.220495 0
M  V30 35 C 2.570702 -1.382850 0.873503 0
M  V30 36 C 2.844102 -2.822080 0.503139 0
M  V30 37 C 1.524408 -3.452238 0.188673 0
M  V30 38 C 0.458000 -2.420304 0.218536 0
M  V30 39 C 1.153331 -1.100227 0.467620 0
M  V30 40 H 7.117654 -2.981503 3.514879 0
M  V30 41 H 7.029051 -3.671671 1.845493 0
M  V30 42 H 5.688741 -4.004023 2.980309 0
M  V30 43 H 4.872968 -0.298144 2.765296 0
M  V30 44 H 4.423758 -1.756290 3.802889 0
M  V30 45 H 6.083530 -0.950778 3.901501 0
M  V30 46 H 6.610522 0.230242 -0.663273 0
M  V30 47 H 5.618051 2.700021 -1.909459 0
M  V30 48 H 1.155139 3.967048 -2.319642 0
M  V30 49 H 0.550042 1.699703 0.620892 0
M  V30 50 H -1.618070 0.979456 1.363525 0
M  V30 51 H -4.372941 0.480689 -1.367077 0
M  V30 52 H -3.188917 -0.327718 -0.178765 0
M  V30 53 H -6.321633 0.136510 -1.340671 0
M  V30 54 H -7.334767 -0.533554 -0.043617 0
M  V30 55 H -7.216537 -2.131797 -1.808774 0
M  V30 56 H -5.269127 -3.259893 -2.581827 0
M  V30 57 H -4.552989 -1.662672 -2.355724 0
M  V30 58 H -3.232196 -2.613891 -0.639991 0
M  V30 59 H -4.136021 -4.175746 -0.871318 0
M  V30 60 H -4.891308 -3.693098 1.247504 0
M  V30 61 H -3.735046 -1.494261 1.372663 0
M  V30 62 H -5.301416 -1.640075 2.230510 0
M  V30 63 H -6.513538 -3.917413 -0.436175 0
M  V30 64 H -3.410529 3.275414 -1.756332 0
M  V30 65 H 2.637390 -1.235700 1.988266 0
M  V30 66 H 3.473142 -2.927719 -0.408374 0
M  V30 67 H 3.295154 -3.349266 1.359408 0
M  V30 68 H 1.539565 -4.018789 -0.789070 0
M  V30 69 H 1.247706 -4.238966 0.950560 0
M  V30 70 H -0.085094 -2.368329 -0.767047 0
M  V30 71 H -0.278403 -2.576718 1.043276 0
M  V30 72 H 0.617367 -0.519277 1.265612 0
M  V30 73 H 1.096248 -0.503922 -0.456750 0
M  V30 END ATOM
M  V30 BEGIN BOND
M  V30 1 1 1 2
M  V30 2 1 2 3
M  V30 3 1 2 4
M  V30 4 2 4 5
M  V30 5 1 4 6
M  V30 6 2 6 7
M  V30 7 1 7 8
M  V30 8 2 8 9
M  V30 9 1 9 10
M  V30 10 2 10 11
M  V30 11 1 11 12
M  V30 12 1 12 13
M  V30 13 2 13 14
M  V30 14 1 14 15
M  V30 15 2 15 16
M  V30 16 1 16 17
M  V30 17 1 17 18
M  V30 18 1 18 19
M  V30 19 1 19 20
M  V30 20 1 20 21
M  V30 21 1 21 22
M  V30 22 1 22 23
M  V30 23 1 23 24
M  V30 24 1 24 25
M  V30 25 1 24 26
M  V30 26 1 19 27
M  V30 27 1 27 28
M  V30 28 2 28 29
M  V30 29 1 16 30
M  V30 30 2 30 31
M  V30 31 1 11 32
M  V30 32 2 32 33
M  V30 33 1 33 34
M  V30 34 1 34 35
M  V30 35 1 35 36
M  V30 36 1 36 37
M  V30 37 1 37 38
M  V30 38 1 38 39
M  V30 39 1 34 6
M  V30 40 1 39 35
M  V30 41 1 33 8
M  V30 42 1 31 13
M  V30 43 1 28 17
M  V30 44 1 25 19
M  V30 45 1 26 21
M  V30 46 1 1 40
M  V30 47 1 1 41
M  V30 48 1 1 42
M  V30 49 1 3 43
M  V30 50 1 3 44
M  V30 51 1 3 45
M  V30 52 1 7 46
M  V30 53 1 9 47
M  V30 54 1 12 48
M  V30 55 1 14 49
M  V30 56 1 15 50
M  V30 57 1 18 51
M  V30 58 1 18 52
M  V30 59 1 20 53
M  V30 60 1 20 54
M  V30 61 1 21 55
M  V30 62 1 22 56
M  V30 63 1 22 57
M  V30 64 1 23 58
M  V30 65 1 23 59
M  V30 66 1 24 60
M  V30 67 1 25 61
M  V30 68 1 25 62
M  V30 69 1 26 63
M  V30 70 1 30 64
M  V30 71 1 35 65
M  V30 72 1 36 66
M  V30 73 1 36 67
M  V30 74 1 37 68
M  V30 75 1 37 69
M  V30 76 1 38 70
M  V30 77 1 38 71
M  V30 78 1 39 72
M  V30 79 1 39 73
M  V30 END BOND
M  V30 END CTAB
M  END
>  <Dataset>  (472) 
ChEMBL_Kinases

>  <Ligand_Instance>  (472) 
nan

>  <PDB_ID>  (472) 
nan

>  <Standardized_SMILES>  (472) 
CN(C)C(=O)c1cc2cnc(Nc3ccc(N4CC5(CC6CCC(C5)N6)OC4=O)cn3)nc2n1C1CCCC1

>  <Name>  (472) 
nan

>  <Pocket>  (472) 
nan

>  <ATP_Site>  (472) 
nan

>  <Peripheral>  (472) 
nan

>  <Num_H_Atoms_ProtBoundConf>  (472) 
nan

>  <Num_Resolved_Atoms>  (472) 
nan

>  <Num_Not_Resolved_Atoms>  (472) 
nan

$$$$
CHEMBL3691637
     RDKit          3D

  0  0  0  0  0  0  0  0  0  0999 V3000
M  V30 BEGIN CTAB
M  V30 COUNTS 74 79 0 0 0
M  V30 BEGIN ATOM
M  V30 1 C 3.920978 -2.885192 1.215147 0
M  V30 2 N 5.193555 -2.701666 0.505176 0
M  V30 3 C 6.275230 -3.490690 1.072778 0
M  V30 4 C 5.428320 -1.856435 -0.643082 0
M  V30 5 O 6.592738 -1.800360 -1.144601 0
M  V30 6 C 4.176151 -1.173690 -1.039800 0
M  V30 7 C 3.571889 -1.759820 -2.130114 0
M  V30 8 C 2.403401 -1.051037 -2.405119 0
M  V30 9 C 1.408391 -1.198606 -3.367113 0
M  V30 10 N 0.391860 -0.288785 -3.293318 0
M  V30 11 C 0.369868 0.683300 -2.343455 0
M  V30 12 N -0.827317 1.427192 -2.535606 0
M  V30 13 C -1.914324 1.089657 -1.654982 0
M  V30 14 C -3.177382 1.667993 -1.731322 0
M  V30 15 C -4.155597 1.291428 -0.823532 0
M  V30 16 C -3.983828 0.365572 0.180493 0
M  V30 17 N -4.993069 -0.011242 1.066259 0
M  V30 18 C -6.398931 0.331368 1.029086 0
M  V30 19 C -7.314310 -0.849776 1.056516 0
M  V30 20 N -6.740880 -2.058678 1.581025 0
M  V30 21 C -6.057994 -2.870689 0.604370 0
M  V30 22 C -5.749332 -4.212350 1.256201 0
M  V30 23 C -4.709920 -3.927780 2.339590 0
M  V30 24 C -5.320058 -2.963216 3.333150 0
M  V30 25 C -5.854846 -1.723677 2.649893 0
M  V30 26 C -4.715823 -0.856976 2.173430 0
M  V30 27 O -3.622677 -0.932394 2.768801 0
M  V30 28 C -2.719464 -0.161576 0.195234 0
M  V30 29 N -1.765360 0.191929 -0.674263 0
M  V30 30 N 1.348105 0.798011 -1.429942 0
M  V30 31 C 2.382128 -0.062191 -1.439096 0
M  V30 32 N 3.442968 -0.128968 -0.615745 0
M  V30 33 C 3.850346 0.641956 0.506847 0
M  V30 34 C 3.213775 1.999978 0.624688 0
M  V30 35 C 4.045813 3.080766 -0.041138 0
M  V30 36 C 4.762142 2.580882 -1.251876 0
M  V30 37 C 5.751581 1.514128 -0.857871 0
M  V30 38 C 5.357864 0.908942 0.468855 0
M  V30 39 H 3.665325 -3.970273 1.214009 0
M  V30 40 H 3.088492 -2.394216 0.654936 0
M  V30 41 H 3.977662 -2.587425 2.273107 0
M  V30 42 H 6.601576 -3.079786 2.048785 0
M  V30 43 H 5.856140 -4.510811 1.328590 0
M  V30 44 H 7.094179 -3.618141 0.338442 0
M  V30 45 H 3.814712 -2.604659 -2.767079 0
M  V30 46 H 1.469020 -1.990844 -4.105656 0
M  V30 47 H -0.986676 2.179871 -3.241319 0
M  V30 48 H -3.348614 2.397249 -2.505421 0
M  V30 49 H -5.096806 1.805071 -0.976908 0
M  V30 50 H -6.686753 1.016756 1.855292 0
M  V30 51 H -6.546875 0.858823 0.042721 0
M  V30 52 H -8.193009 -0.624212 1.719015 0
M  V30 53 H -7.757811 -0.979966 0.052285 0
M  V30 54 H -6.650383 -3.085664 -0.295072 0
M  V30 55 H -5.081756 -2.360585 0.400299 0
M  V30 56 H -6.655858 -4.637283 1.740308 0
M  V30 57 H -5.273394 -4.907514 0.532349 0
M  V30 58 H -3.866948 -3.410461 1.803933 0
M  V30 59 H -4.408360 -4.829277 2.884579 0
M  V30 60 H -6.169807 -3.482334 3.815631 0
M  V30 61 H -4.559023 -2.648452 4.057325 0
M  V30 62 H -6.383619 -1.120143 3.410584 0
M  V30 63 H -2.383153 -0.903710 0.895045 0
M  V30 64 H 3.646475 0.069324 1.439206 0
M  V30 65 H 2.151392 2.048455 0.388722 0
M  V30 66 H 3.269431 2.259435 1.729668 0
M  V30 67 H 3.399786 3.951497 -0.289704 0
M  V30 68 H 4.812063 3.489163 0.654804 0
M  V30 69 H 4.073931 2.257059 -2.063593 0
M  V30 70 H 5.331157 3.452768 -1.688918 0
M  V30 71 H 5.871147 0.799355 -1.673056 0
M  V30 72 H 6.766012 1.988130 -0.715713 0
M  V30 73 H 5.962523 0.056513 0.764834 0
M  V30 74 H 5.568042 1.693770 1.263871 0
M  V30 END ATOM
M  V30 BEGIN BOND
M  V30 1 1 1 2
M  V30 2 1 2 3
M  V30 3 1 2 4
M  V30 4 2 4 5
M  V30 5 1 4 6
M  V30 6 2 6 7
M  V30 7 1 7 8
M  V30 8 2 8 9
M  V30 9 1 9 10
M  V30 10 2 10 11
M  V30 11 1 11 12
M  V30 12 1 12 13
M  V30 13 2 13 14
M  V30 14 1 14 15
M  V30 15 2 15 16
M  V30 16 1 16 17
M  V30 17 1 17 18
M  V30 18 1 18 19
M  V30 19 1 19 20
M  V30 20 1 20 21
M  V30 21 1 21 22
M  V30 22 1 22 23
M  V30 23 1 23 24
M  V30 24 1 24 25
M  V30 25 1 25 26
M  V30 26 2 26 27
M  V30 27 1 16 28
M  V30 28 2 28 29
M  V30 29 1 11 30
M  V30 30 2 30 31
M  V30 31 1 31 32
M  V30 32 1 32 33
M  V30 33 1 33 34
M  V30 34 1 34 35
M  V30 35 1 35 36
M  V30 36 1 36 37
M  V30 37 1 37 38
M  V30 38 1 32 6
M  V30 39 1 38 33
M  V30 40 1 31 8
M  V30 41 1 29 13
M  V30 42 1 26 17
M  V30 43 1 25 20
M  V30 44 1 1 39
M  V30 45 1 1 40
M  V30 46 1 1 41
M  V30 47 1 3 42
M  V30 48 1 3 43
M  V30 49 1 3 44
M  V30 50 1 7 45
M  V30 51 1 9 46
M  V30 52 1 12 47
M  V30 53 1 14 48
M  V30 54 1 15 49
M  V30 55 1 18 50
M  V30 56 1 18 51
M  V30 57 1 19 52
M  V30 58 1 19 53
M  V30 59 1 21 54
M  V30 60 1 21 55
M  V30 61 1 22 56
M  V30 62 1 22 57
M  V30 63 1 23 58
M  V30 64 1 23 59
M  V30 65 1 24 60
M  V30 66 1 24 61
M  V30 67 1 25 62
M  V30 68 1 28 63
M  V30 69 1 33 64
M  V30 70 1 34 65
M  V30 71 1 34 66
M  V30 72 1 35 67
M  V30 73 1 35 68
M  V30 74 1 36 69
M  V30 75 1 36 70
M  V30 76 1 37 71
M  V30 77 1 37 72
M  V30 78 1 38 73
M  V30 79 1 38 74
M  V30 END BOND
M  V30 END CTAB
M  END
>  <Dataset>  (473) 
ChEMBL_Kinases

>  <Ligand_Instance>  (473) 
nan

>  <PDB_ID>  (473) 
nan

>  <Standardized_SMILES>  (473) 
CN(C)C(=O)c1cc2cnc(Nc3ccc(N4CCN5CCCCC5C4=O)cn3)nc2n1C1CCCCC1

>  <Name>  (473) 
nan

>  <Pocket>  (473) 
nan

>  <ATP_Site>  (473) 
nan

>  <Peripheral>  (473) 
nan

>  <Num_H_Atoms_ProtBoundConf>  (473) 
nan

>  <Num_Resolved_Atoms>  (473) 
nan

>  <Num_Not_Resolved_Atoms>  (473) 
nan

$$$$
CHEMBL3691636
     RDKit          3D

  0  0  0  0  0  0  0  0  0  0999 V3000
M  V30 BEGIN CTAB
M  V30 COUNTS 71 76 0 0 0
M  V30 BEGIN ATOM
M  V30 1 C 4.756938 -1.460574 1.213756 0
M  V30 2 N 5.916532 -1.242886 0.349035 0
M  V30 3 C 7.137950 -1.597814 1.038869 0
M  V30 4 C 5.982711 -0.750865 -1.010840 0
M  V30 5 O 7.087741 -0.617363 -1.642641 0
M  V30 6 C 4.604379 -0.465322 -1.461883 0
M  V30 7 C 4.042761 -1.340640 -2.378729 0
M  V30 8 C 2.772836 -0.841116 -2.594802 0
M  V30 9 C 1.809891 -1.379976 -3.433799 0
M  V30 10 N 0.631506 -0.686337 -3.446308 0
M  V30 11 C 0.470769 0.414191 -2.694753 0
M  V30 12 N -0.816705 1.066722 -2.767003 0
M  V30 13 C -1.783140 0.589735 -1.821626 0
M  V30 14 C -3.084658 1.107335 -1.758799 0
M  V30 15 C -3.988626 0.613904 -0.822957 0
M  V30 16 C -3.681943 -0.382595 0.077307 0
M  V30 17 N -4.633438 -0.858181 0.994672 0
M  V30 18 C -6.023052 -0.469590 1.076922 0
M  V30 19 C -6.934274 -1.634228 1.351629 0
M  V30 20 N -6.509980 -2.547145 2.310750 0
M  V30 21 C -7.439762 -2.978530 3.273465 0
M  V30 22 C -7.104757 -4.427661 3.627988 0
M  V30 23 C -5.787520 -4.329798 4.402659 0
M  V30 24 C -4.744542 -3.594824 3.638150 0
M  V30 25 C -5.180764 -2.970752 2.358595 0
M  V30 26 C -4.268716 -1.831222 1.966807 0
M  V30 27 O -3.147166 -1.793633 2.564533 0
M  V30 28 C -2.397437 -0.848483 -0.032001 0
M  V30 29 N -1.525423 -0.377467 -0.929421 0
M  V30 30 N 1.454555 0.874173 -1.906871 0
M  V30 31 C 2.664340 0.288690 -1.798963 0
M  V30 32 N 3.805262 0.522927 -1.094427 0
M  V30 33 C 3.924682 1.629925 -0.214165 0
M  V30 34 C 5.344370 2.181211 -0.276574 0
M  V30 35 C 5.381512 2.746256 -1.707453 0
M  V30 36 C 3.983081 3.301379 -1.926205 0
M  V30 37 C 3.203488 2.870733 -0.714602 0
M  V30 38 H 4.699818 -0.731897 2.046991 0
M  V30 39 H 4.721464 -2.465197 1.646284 0
M  V30 40 H 3.858677 -1.235552 0.571573 0
M  V30 41 H 8.003514 -1.773359 0.339702 0
M  V30 42 H 7.462306 -0.738967 1.686227 0
M  V30 43 H 7.035312 -2.501660 1.663755 0
M  V30 44 H 4.487094 -2.228854 -2.837226 0
M  V30 45 H 1.990546 -2.267697 -4.016426 0
M  V30 46 H -1.148292 1.838566 -3.406317 0
M  V30 47 H -3.332737 1.889662 -2.463154 0
M  V30 48 H -4.951429 1.090935 -0.876951 0
M  V30 49 H -6.319403 0.017427 0.129247 0
M  V30 50 H -6.231218 0.261907 1.902585 0
M  V30 51 H -7.953615 -1.248358 1.598475 0
M  V30 52 H -7.085191 -2.165072 0.366439 0
M  V30 53 H -8.450466 -2.982092 2.806507 0
M  V30 54 H -7.530968 -2.366770 4.193051 0
M  V30 55 H -7.851512 -4.919775 4.247080 0
M  V30 56 H -6.872760 -4.964039 2.699041 0
M  V30 57 H -6.067475 -3.811341 5.364826 0
M  V30 58 H -5.480371 -5.368416 4.617586 0
M  V30 59 H -3.887029 -4.282985 3.464251 0
M  V30 60 H -4.381035 -2.750936 4.295014 0
M  V30 61 H -5.032651 -3.743006 1.548482 0
M  V30 62 H -2.021556 -1.630058 0.603570 0
M  V30 63 H 3.610646 1.433811 0.822067 0
M  V30 64 H 5.429994 3.042576 0.451406 0
M  V30 65 H 6.129219 1.466487 -0.177329 0
M  V30 66 H 6.174234 3.490366 -1.835936 0
M  V30 67 H 5.500524 1.895567 -2.402820 0
M  V30 68 H 3.553852 2.980179 -2.891050 0
M  V30 69 H 4.098399 4.405030 -1.974153 0
M  V30 70 H 2.139173 2.808005 -0.801846 0
M  V30 71 H 3.416815 3.645905 0.078335 0
M  V30 END ATOM
M  V30 BEGIN BOND
M  V30 1 1 1 2
M  V30 2 1 2 3
M  V30 3 1 2 4
M  V30 4 2 4 5
M  V30 5 1 4 6
M  V30 6 2 6 7
M  V30 7 1 7 8
M  V30 8 2 8 9
M  V30 9 1 9 10
M  V30 10 2 10 11
M  V30 11 1 11 12
M  V30 12 1 12 13
M  V30 13 2 13 14
M  V30 14 1 14 15
M  V30 15 2 15 16
M  V30 16 1 16 17
M  V30 17 1 17 18
M  V30 18 1 18 19
M  V30 19 1 19 20
M  V30 20 1 20 21
M  V30 21 1 21 22
M  V30 22 1 22 23
M  V30 23 1 23 24
M  V30 24 1 24 25
M  V30 25 1 25 26
M  V30 26 2 26 27
M  V30 27 1 16 28
M  V30 28 2 28 29
M  V30 29 1 11 30
M  V30 30 2 30 31
M  V30 31 1 31 32
M  V30 32 1 32 33
M  V30 33 1 33 34
M  V30 34 1 34 35
M  V30 35 1 35 36
M  V30 36 1 36 37
M  V30 37 1 32 6
M  V30 38 1 37 33
M  V30 39 1 31 8
M  V30 40 1 29 13
M  V30 41 1 26 17
M  V30 42 1 25 20
M  V30 43 1 1 38
M  V30 44 1 1 39
M  V30 45 1 1 40
M  V30 46 1 3 41
M  V30 47 1 3 42
M  V30 48 1 3 43
M  V30 49 1 7 44
M  V30 50 1 9 45
M  V30 51 1 12 46
M  V30 52 1 14 47
M  V30 53 1 15 48
M  V30 54 1 18 49
M  V30 55 1 18 50
M  V30 56 1 19 51
M  V30 57 1 19 52
M  V30 58 1 21 53
M  V30 59 1 21 54
M  V30 60 1 22 55
M  V30 61 1 22 56
M  V30 62 1 23 57
M  V30 63 1 23 58
M  V30 64 1 24 59
M  V30 65 1 24 60
M  V30 66 1 25 61
M  V30 67 1 28 62
M  V30 68 1 33 63
M  V30 69 1 34 64
M  V30 70 1 34 65
M  V30 71 1 35 66
M  V30 72 1 35 67
M  V30 73 1 36 68
M  V30 74 1 36 69
M  V30 75 1 37 70
M  V30 76 1 37 71
M  V30 END BOND
M  V30 END CTAB
M  END
>  <Dataset>  (474) 
ChEMBL_Kinases

>  <Ligand_Instance>  (474) 
nan

>  <PDB_ID>  (474) 
nan

>  <Standardized_SMILES>  (474) 
CN(C)C(=O)c1cc2cnc(Nc3ccc(N4CCN5CCCCC5C4=O)cn3)nc2n1C1CCCC1

>  <Name>  (474) 
nan

>  <Pocket>  (474) 
nan

>  <ATP_Site>  (474) 
nan

>  <Peripheral>  (474) 
nan

>  <Num_H_Atoms_ProtBoundConf>  (474) 
nan

>  <Num_Resolved_Atoms>  (474) 
nan

>  <Num_Not_Resolved_Atoms>  (474) 
nan

$$$$
CHEMBL3691635
     RDKit          3D

  0  0  0  0  0  0  0  0  0  0999 V3000
M  V30 BEGIN CTAB
M  V30 COUNTS 71 76 0 0 0
M  V30 BEGIN ATOM
M  V30 1 C 6.030225 1.931192 4.135873 0
M  V30 2 N 4.976912 1.614732 3.220168 0
M  V30 3 C 4.280520 0.369284 3.537539 0
M  V30 4 C 4.682243 2.482881 2.105626 0
M  V30 5 O 5.531138 3.384654 2.261261 0
M  V30 6 C 3.583980 2.018745 1.269629 0
M  V30 7 C 3.980573 1.085865 0.337353 0
M  V30 8 C 2.834503 0.738570 -0.388144 0
M  V30 9 C 2.575543 -0.125875 -1.437860 0
M  V30 10 N 1.305020 -0.176750 -1.869222 0
M  V30 11 C 0.298760 0.570060 -1.323923 0
M  V30 12 N -0.876095 0.243003 -2.046126 0
M  V30 13 C -1.663697 -0.921894 -1.705130 0
M  V30 14 C -2.809693 -1.263129 -2.431550 0
M  V30 15 C -3.533458 -2.401264 -2.074839 0
M  V30 16 C -3.090978 -3.157932 -1.008155 0
M  V30 17 N -3.811296 -4.350675 -0.618224 0
M  V30 18 C -4.907990 -4.687469 0.279513 0
M  V30 19 C -5.887013 -5.598344 -0.417909 0
M  V30 20 N -5.291307 -6.805691 -0.935399 0
M  V30 21 C -5.667687 -6.966717 -2.307990 0
M  V30 22 C -4.507768 -7.586359 -3.048343 0
M  V30 23 C -3.508420 -7.829508 -1.934349 0
M  V30 24 C -3.853367 -6.803873 -0.862192 0
M  V30 25 C -3.276292 -5.496820 -1.326038 0
M  V30 26 O -2.417781 -5.463015 -2.240583 0
M  V30 27 C -1.938997 -2.792926 -0.295136 0
M  V30 28 N -1.260179 -1.685728 -0.665741 0
M  V30 29 N 0.600848 1.393739 -0.308029 0
M  V30 30 C 1.847268 1.505313 0.184533 0
M  V30 31 N 2.273664 2.282732 1.182382 0
M  V30 32 C 1.599972 3.220965 2.035637 0
M  V30 33 C 2.535243 4.370990 2.332669 0
M  V30 34 C 1.768179 5.659159 2.573388 0
M  V30 35 C 1.017569 6.077891 1.322779 0
M  V30 36 C 0.638654 4.867843 0.487040 0
M  V30 37 C 0.319366 3.763073 1.471649 0
M  V30 38 H 5.670273 2.198947 5.138865 0
M  V30 39 H 6.710300 1.041341 4.289161 0
M  V30 40 H 6.689851 2.731605 3.725624 0
M  V30 41 H 4.898194 -0.450297 3.124653 0
M  V30 42 H 4.073890 0.287422 4.622077 0
M  V30 43 H 3.338431 0.386594 2.949956 0
M  V30 44 H 4.912940 0.597912 0.063616 0
M  V30 45 H 3.402774 -0.712362 -1.854251 0
M  V30 46 H -1.198687 0.838201 -2.841203 0
M  V30 47 H -3.101676 -0.632071 -3.251565 0
M  V30 48 H -4.425984 -2.688112 -2.623962 0
M  V30 49 H -5.439355 -3.736537 0.501933 0
M  V30 50 H -4.454074 -5.154095 1.178522 0
M  V30 51 H -6.638407 -5.920576 0.334665 0
M  V30 52 H -6.399034 -5.021386 -1.193720 0
M  V30 53 H -5.918186 -5.970920 -2.734647 0
M  V30 54 H -6.554786 -7.629273 -2.445422 0
M  V30 55 H -4.800930 -8.509025 -3.579624 0
M  V30 56 H -4.125999 -6.870758 -3.806603 0
M  V30 57 H -3.576757 -8.859803 -1.555743 0
M  V30 58 H -2.495881 -7.669669 -2.365404 0
M  V30 59 H -3.429851 -7.144224 0.077857 0
M  V30 60 H -1.606655 -3.407162 0.552012 0
M  V30 61 H 1.353991 2.666392 2.988885 0
M  V30 62 H 3.219605 4.594017 1.490998 0
M  V30 63 H 3.109909 4.171658 3.230461 0
M  V30 64 H 1.138547 5.539413 3.455954 0
M  V30 65 H 2.521259 6.449536 2.773306 0
M  V30 66 H 0.075627 6.548037 1.664841 0
M  V30 67 H 1.616786 6.793560 0.726395 0
M  V30 68 H -0.251975 5.042983 -0.140058 0
M  V30 69 H 1.514254 4.636898 -0.155309 0
M  V30 70 H -0.361928 3.000289 1.107632 0
M  V30 71 H -0.207355 4.255311 2.327539 0
M  V30 END ATOM
M  V30 BEGIN BOND
M  V30 1 1 1 2
M  V30 2 1 2 3
M  V30 3 1 2 4
M  V30 4 2 4 5
M  V30 5 1 4 6
M  V30 6 2 6 7
M  V30 7 1 7 8
M  V30 8 2 8 9
M  V30 9 1 9 10
M  V30 10 2 10 11
M  V30 11 1 11 12
M  V30 12 1 12 13
M  V30 13 2 13 14
M  V30 14 1 14 15
M  V30 15 2 15 16
M  V30 16 1 16 17
M  V30 17 1 17 18
M  V30 18 1 18 19
M  V30 19 1 19 20
M  V30 20 1 20 21
M  V30 21 1 21 22
M  V30 22 1 22 23
M  V30 23 1 23 24
M  V30 24 1 24 25
M  V30 25 2 25 26
M  V30 26 1 16 27
M  V30 27 2 27 28
M  V30 28 1 11 29
M  V30 29 2 29 30
M  V30 30 1 30 31
M  V30 31 1 31 32
M  V30 32 1 32 33
M  V30 33 1 33 34
M  V30 34 1 34 35
M  V30 35 1 35 36
M  V30 36 1 36 37
M  V30 37 1 31 6
M  V30 38 1 37 32
M  V30 39 1 30 8
M  V30 40 1 28 13
M  V30 41 1 25 17
M  V30 42 1 24 20
M  V30 43 1 1 38
M  V30 44 1 1 39
M  V30 45 1 1 40
M  V30 46 1 3 41
M  V30 47 1 3 42
M  V30 48 1 3 43
M  V30 49 1 7 44
M  V30 50 1 9 45
M  V30 51 1 12 46
M  V30 52 1 14 47
M  V30 53 1 15 48
M  V30 54 1 18 49
M  V30 55 1 18 50
M  V30 56 1 19 51
M  V30 57 1 19 52
M  V30 58 1 21 53
M  V30 59 1 21 54
M  V30 60 1 22 55
M  V30 61 1 22 56
M  V30 62 1 23 57
M  V30 63 1 23 58
M  V30 64 1 24 59
M  V30 65 1 27 60
M  V30 66 1 32 61
M  V30 67 1 33 62
M  V30 68 1 33 63
M  V30 69 1 34 64
M  V30 70 1 34 65
M  V30 71 1 35 66
M  V30 72 1 35 67
M  V30 73 1 36 68
M  V30 74 1 36 69
M  V30 75 1 37 70
M  V30 76 1 37 71
M  V30 END BOND
M  V30 END CTAB
M  END
>  <Dataset>  (475) 
ChEMBL_Kinases

>  <Ligand_Instance>  (475) 
nan

>  <PDB_ID>  (475) 
nan

>  <Standardized_SMILES>  (475) 
CN(C)C(=O)c1cc2cnc(Nc3ccc(N4CCN5CCCC5C4=O)cn3)nc2n1C1CCCCC1

>  <Name>  (475) 
nan

>  <Pocket>  (475) 
nan

>  <ATP_Site>  (475) 
nan

>  <Peripheral>  (475) 
nan

>  <Num_H_Atoms_ProtBoundConf>  (475) 
nan

>  <Num_Resolved_Atoms>  (475) 
nan

>  <Num_Not_Resolved_Atoms>  (475) 
nan

$$$$
CHEMBL3691634
     RDKit          3D

  0  0  0  0  0  0  0  0  0  0999 V3000
M  V30 BEGIN CTAB
M  V30 COUNTS 68 73 0 0 0
M  V30 BEGIN ATOM
M  V30 1 C 4.572177 -1.953771 1.320723 0
M  V30 2 N 5.277961 -1.236958 0.246570 0
M  V30 3 C 6.299735 -2.138784 -0.286328 0
M  V30 4 C 5.073624 0.100682 -0.269680 0
M  V30 5 O 5.837445 0.477181 -1.222830 0
M  V30 6 C 3.990593 0.766003 0.441352 0
M  V30 7 C 4.293657 1.674570 1.442660 0
M  V30 8 C 3.068199 2.088586 1.916591 0
M  V30 9 C 2.725419 2.988956 2.923004 0
M  V30 10 N 1.424520 3.242275 3.232303 0
M  V30 11 C 0.487784 2.587564 2.527848 0
M  V30 12 N -0.934729 2.770283 2.729207 0
M  V30 13 C -1.844628 1.798758 2.192851 0
M  V30 14 C -3.213294 1.862808 2.231326 0
M  V30 15 C -3.986777 0.838678 1.721376 0
M  V30 16 C -3.426997 -0.283316 1.157170 0
M  V30 17 N -4.027681 -1.431006 0.617644 0
M  V30 18 C -4.437893 -1.608197 -0.746296 0
M  V30 19 O -4.833597 -0.609082 -1.439702 0
M  V30 20 C -4.479541 -2.882748 -1.552878 0
M  V30 21 N -4.583463 -3.943672 -0.570650 0
M  V30 22 C -5.709729 -3.754317 0.257324 0
M  V30 23 C -5.509876 -3.156926 1.600331 0
M  V30 24 C -4.175366 -2.452988 1.643388 0
M  V30 25 C -3.149475 -3.554106 1.387680 0
M  V30 26 C -3.328713 -4.175539 0.032769 0
M  V30 27 C -2.038737 -0.330532 1.127333 0
M  V30 28 N -1.334701 0.692593 1.636308 0
M  V30 29 N 0.858087 1.738389 1.574940 0
M  V30 30 C 2.102184 1.425722 1.196806 0
M  V30 31 N 2.668416 0.596316 0.267711 0
M  V30 32 C 1.838789 -0.152309 -0.593517 0
M  V30 33 C 0.713229 0.633939 -1.220233 0
M  V30 34 C 1.369616 1.396996 -2.359363 0
M  V30 35 C 2.561371 0.566727 -2.730276 0
M  V30 36 C 2.502811 -0.685730 -1.837990 0
M  V30 37 H 4.091859 -2.854082 0.860804 0
M  V30 38 H 3.775496 -1.357087 1.781772 0
M  V30 39 H 5.240887 -2.316868 2.105509 0
M  V30 40 H 5.744915 -2.914692 -0.893709 0
M  V30 41 H 6.879168 -2.615779 0.508264 0
M  V30 42 H 6.988849 -1.606032 -0.970446 0
M  V30 43 H 5.271266 2.003486 1.793196 0
M  V30 44 H 3.525689 3.488140 3.462073 0
M  V30 45 H -1.283437 3.611302 3.266864 0
M  V30 46 H -3.658909 2.739685 2.670225 0
M  V30 47 H -5.061959 0.852464 1.728470 0
M  V30 48 H -3.603587 -2.981137 -2.195708 0
M  V30 49 H -5.454450 -2.894077 -2.100278 0
M  V30 50 H -6.445880 -3.092652 -0.293178 0
M  V30 51 H -6.286852 -4.722966 0.351580 0
M  V30 52 H -5.429743 -4.007982 2.323163 0
M  V30 53 H -6.364108 -2.494935 1.870013 0
M  V30 54 H -3.994903 -2.064059 2.672545 0
M  V30 55 H -3.420585 -4.347472 2.141880 0
M  V30 56 H -2.141780 -3.219475 1.631424 0
M  V30 57 H -2.531560 -3.732135 -0.607902 0
M  V30 58 H -3.112479 -5.281808 0.037481 0
M  V30 59 H -1.370101 -1.122630 0.729955 0
M  V30 60 H 1.428265 -1.043279 -0.052624 0
M  V30 61 H 0.132134 1.261125 -0.566596 0
M  V30 62 H 0.028269 -0.109331 -1.696804 0
M  V30 63 H 0.707529 1.493691 -3.239694 0
M  V30 64 H 1.652010 2.423093 -2.034830 0
M  V30 65 H 2.512234 0.257804 -3.799722 0
M  V30 66 H 3.504031 1.085743 -2.510943 0
M  V30 67 H 3.464580 -1.159892 -1.706715 0
M  V30 68 H 1.745509 -1.356071 -2.326773 0
M  V30 END ATOM
M  V30 BEGIN BOND
M  V30 1 1 1 2
M  V30 2 1 2 3
M  V30 3 1 2 4
M  V30 4 2 4 5
M  V30 5 1 4 6
M  V30 6 2 6 7
M  V30 7 1 7 8
M  V30 8 2 8 9
M  V30 9 1 9 10
M  V30 10 2 10 11
M  V30 11 1 11 12
M  V30 12 1 12 13
M  V30 13 2 13 14
M  V30 14 1 14 15
M  V30 15 2 15 16
M  V30 16 1 16 17
M  V30 17 1 17 18
M  V30 18 2 18 19
M  V30 19 1 18 20
M  V30 20 1 20 21
M  V30 21 1 21 22
M  V30 22 1 22 23
M  V30 23 1 23 24
M  V30 24 1 24 25
M  V30 25 1 25 26
M  V30 26 1 16 27
M  V30 27 2 27 28
M  V30 28 1 11 29
M  V30 29 2 29 30
M  V30 30 1 30 31
M  V30 31 1 31 32
M  V30 32 1 32 33
M  V30 33 1 33 34
M  V30 34 1 34 35
M  V30 35 1 35 36
M  V30 36 1 31 6
M  V30 37 1 36 32
M  V30 38 1 30 8
M  V30 39 1 28 13
M  V30 40 1 24 17
M  V30 41 1 26 21
M  V30 42 1 1 37
M  V30 43 1 1 38
M  V30 44 1 1 39
M  V30 45 1 3 40
M  V30 46 1 3 41
M  V30 47 1 3 42
M  V30 48 1 7 43
M  V30 49 1 9 44
M  V30 50 1 12 45
M  V30 51 1 14 46
M  V30 52 1 15 47
M  V30 53 1 20 48
M  V30 54 1 20 49
M  V30 55 1 22 50
M  V30 56 1 22 51
M  V30 57 1 23 52
M  V30 58 1 23 53
M  V30 59 1 24 54
M  V30 60 1 25 55
M  V30 61 1 25 56
M  V30 62 1 26 57
M  V30 63 1 26 58
M  V30 64 1 27 59
M  V30 65 1 32 60
M  V30 66 1 33 61
M  V30 67 1 33 62
M  V30 68 1 34 63
M  V30 69 1 34 64
M  V30 70 1 35 65
M  V30 71 1 35 66
M  V30 72 1 36 67
M  V30 73 1 36 68
M  V30 END BOND
M  V30 END CTAB
M  END
>  <Dataset>  (476) 
ChEMBL_Kinases

>  <Ligand_Instance>  (476) 
nan

>  <PDB_ID>  (476) 
nan

>  <Standardized_SMILES>  (476) 
CN(C)C(=O)c1cc2cnc(Nc3ccc(N4C(=O)CN5CCC4CC5)cn3)nc2n1C1CCCC1

>  <Name>  (476) 
nan

>  <Pocket>  (476) 
nan

>  <ATP_Site>  (476) 
nan

>  <Peripheral>  (476) 
nan

>  <Num_H_Atoms_ProtBoundConf>  (476) 
nan

>  <Num_Resolved_Atoms>  (476) 
nan

>  <Num_Not_Resolved_Atoms>  (476) 
nan

$$$$
CHEMBL3691633
     RDKit          3D

  0  0  0  0  0  0  0  0  0  0999 V3000
M  V30 BEGIN CTAB
M  V30 COUNTS 74 79 0 0 0
M  V30 BEGIN ATOM
M  V30 1 C 6.445739 4.433535 2.471585 0
M  V30 2 N 5.405250 3.434634 2.538032 0
M  V30 3 C 5.117236 2.825827 3.835781 0
M  V30 4 C 4.654464 3.027579 1.404299 0
M  V30 5 O 5.228401 3.786150 0.582003 0
M  V30 6 C 3.614609 2.016490 1.520830 0
M  V30 7 C 3.974809 0.687571 1.579433 0
M  V30 8 C 2.748376 0.029489 1.684036 0
M  V30 9 C 2.578820 -1.353412 1.777802 0
M  V30 10 N 1.279195 -1.759160 1.874019 0
M  V30 11 C 0.275443 -0.863084 1.874087 0
M  V30 12 N -0.953304 -1.557026 1.996312 0
M  V30 13 C -1.716406 -2.419877 1.168353 0
M  V30 14 C -2.916218 -2.886396 1.671861 0
M  V30 15 C -3.608124 -3.743272 0.842850 0
M  V30 16 C -3.182762 -4.139625 -0.404619 0
M  V30 17 N -3.871590 -5.019464 -1.284736 0
M  V30 18 C -4.750426 -4.450867 -2.243913 0
M  V30 19 O -5.039515 -3.239017 -2.116676 0
M  V30 20 C -5.408817 -5.106925 -3.428676 0
M  V30 21 N -5.419357 -6.525810 -3.161475 0
M  V30 22 C -4.186431 -7.198451 -3.422723 0
M  V30 23 C -3.105486 -6.971086 -2.419083 0
M  V30 24 C -3.602037 -6.451222 -1.098228 0
M  V30 25 C -4.940774 -7.101992 -0.819305 0
M  V30 26 C -5.958520 -6.780611 -1.860896 0
M  V30 27 C -1.961626 -3.614702 -0.822866 0
M  V30 28 N -1.241394 -2.764273 -0.040096 0
M  V30 29 N 0.505175 0.455008 1.781090 0
M  V30 30 C 1.743364 0.974487 1.681909 0
M  V30 31 N 2.307565 2.190576 1.580964 0
M  V30 32 C 1.453690 3.344718 1.577408 0
M  V30 33 C 2.066575 4.643741 1.259116 0
M  V30 34 C 2.311895 5.012678 -0.142338 0
M  V30 35 C 2.102946 3.965579 -1.180894 0
M  V30 36 C 0.594925 3.825251 -1.371165 0
M  V30 37 C 0.243735 2.599877 -0.518047 0
M  V30 38 C 0.120212 3.110073 0.883911 0
M  V30 39 H 6.317119 5.215841 3.264876 0
M  V30 40 H 6.456487 4.984632 1.508317 0
M  V30 41 H 7.447391 3.988433 2.695114 0
M  V30 42 H 5.606654 3.374487 4.645282 0
M  V30 43 H 5.349998 1.731169 3.847490 0
M  V30 44 H 3.997432 2.883969 3.970840 0
M  V30 45 H 4.977247 0.239719 1.552444 0
M  V30 46 H 3.418840 -2.032066 1.771564 0
M  V30 47 H -1.251958 -1.280228 2.956760 0
M  V30 48 H -3.340401 -2.643472 2.625571 0
M  V30 49 H -4.538623 -4.132140 1.181210 0
M  V30 50 H -4.893470 -4.885076 -4.369508 0
M  V30 51 H -6.484590 -4.769960 -3.417660 0
M  V30 52 H -4.414653 -8.285165 -3.502557 0
M  V30 53 H -3.851427 -6.884580 -4.449195 0
M  V30 54 H -2.590924 -7.947653 -2.221853 0
M  V30 55 H -2.340126 -6.300808 -2.892101 0
M  V30 56 H -2.904847 -6.628724 -0.277584 0
M  V30 57 H -4.785056 -8.199403 -0.732504 0
M  V30 58 H -5.328032 -6.715180 0.166229 0
M  V30 59 H -6.555857 -5.882703 -1.537559 0
M  V30 60 H -6.664142 -7.646688 -1.967741 0
M  V30 61 H -1.573953 -3.891979 -1.798547 0
M  V30 62 H 1.134125 3.430036 2.677200 0
M  V30 63 H 3.014579 4.746649 1.863251 0
M  V30 64 H 1.406899 5.432025 1.736959 0
M  V30 65 H 1.600692 5.853139 -0.421955 0
M  V30 66 H 3.310190 5.476733 -0.353397 0
M  V30 67 H 2.608326 3.014170 -0.995943 0
M  V30 68 H 2.516657 4.348447 -2.148072 0
M  V30 69 H 0.052754 4.710351 -0.934890 0
M  V30 70 H 0.283122 3.735442 -2.407926 0
M  V30 71 H -0.737407 2.227502 -0.827677 0
M  V30 72 H 1.021250 1.826607 -0.594419 0
M  V30 73 H -0.342851 4.138015 0.820049 0
M  V30 74 H -0.594870 2.536263 1.509457 0
M  V30 END ATOM
M  V30 BEGIN BOND
M  V30 1 1 1 2
M  V30 2 1 2 3
M  V30 3 1 2 4
M  V30 4 2 4 5
M  V30 5 1 4 6
M  V30 6 2 6 7
M  V30 7 1 7 8
M  V30 8 2 8 9
M  V30 9 1 9 10
M  V30 10 2 10 11
M  V30 11 1 11 12
M  V30 12 1 12 13
M  V30 13 2 13 14
M  V30 14 1 14 15
M  V30 15 2 15 16
M  V30 16 1 16 17
M  V30 17 1 17 18
M  V30 18 2 18 19
M  V30 19 1 18 20
M  V30 20 1 20 21
M  V30 21 1 21 22
M  V30 22 1 22 23
M  V30 23 1 23 24
M  V30 24 1 24 25
M  V30 25 1 25 26
M  V30 26 1 16 27
M  V30 27 2 27 28
M  V30 28 1 11 29
M  V30 29 2 29 30
M  V30 30 1 30 31
M  V30 31 1 31 32
M  V30 32 1 32 33
M  V30 33 1 33 34
M  V30 34 1 34 35
M  V30 35 1 35 36
M  V30 36 1 36 37
M  V30 37 1 37 38
M  V30 38 1 31 6
M  V30 39 1 38 32
M  V30 40 1 30 8
M  V30 41 1 28 13
M  V30 42 1 24 17
M  V30 43 1 26 21
M  V30 44 1 1 39
M  V30 45 1 1 40
M  V30 46 1 1 41
M  V30 47 1 3 42
M  V30 48 1 3 43
M  V30 49 1 3 44
M  V30 50 1 7 45
M  V30 51 1 9 46
M  V30 52 1 12 47
M  V30 53 1 14 48
M  V30 54 1 15 49
M  V30 55 1 20 50
M  V30 56 1 20 51
M  V30 57 1 22 52
M  V30 58 1 22 53
M  V30 59 1 23 54
M  V30 60 1 23 55
M  V30 61 1 24 56
M  V30 62 1 25 57
M  V30 63 1 25 58
M  V30 64 1 26 59
M  V30 65 1 26 60
M  V30 66 1 27 61
M  V30 67 1 32 62
M  V30 68 1 33 63
M  V30 69 1 33 64
M  V30 70 1 34 65
M  V30 71 1 34 66
M  V30 72 1 35 67
M  V30 73 1 35 68
M  V30 74 1 36 69
M  V30 75 1 36 70
M  V30 76 1 37 71
M  V30 77 1 37 72
M  V30 78 1 38 73
M  V30 79 1 38 74
M  V30 END BOND
M  V30 END CTAB
M  END
>  <Dataset>  (477) 
ChEMBL_Kinases

>  <Ligand_Instance>  (477) 
nan

>  <PDB_ID>  (477) 
nan

>  <Standardized_SMILES>  (477) 
CN(C)C(=O)c1cc2cnc(Nc3ccc(N4C(=O)CN5CCC4CC5)cn3)nc2n1C1CCCCCC1

>  <Name>  (477) 
nan

>  <Pocket>  (477) 
nan

>  <ATP_Site>  (477) 
nan

>  <Peripheral>  (477) 
nan

>  <Num_H_Atoms_ProtBoundConf>  (477) 
nan

>  <Num_Resolved_Atoms>  (477) 
nan

>  <Num_Not_Resolved_Atoms>  (477) 
nan

$$$$
CHEMBL3691632
     RDKit          3D

  0  0  0  0  0  0  0  0  0  0999 V3000
M  V30 BEGIN CTAB
M  V30 COUNTS 68 73 0 0 0
M  V30 BEGIN ATOM
M  V30 1 C 2.676570 -1.784125 3.411838 0
M  V30 2 N 4.087804 -2.038489 3.266878 0
M  V30 3 C 4.612807 -1.624911 2.005582 0
M  V30 4 C 5.514598 -0.453635 2.201798 0 CFG=1
M  V30 5 C 4.968935 0.807857 1.589509 0
M  V30 6 N 3.956856 1.250819 2.522749 0
M  V30 7 C 2.649676 1.739088 2.289913 0
M  V30 8 C 1.768874 2.293832 3.180939 0
M  V30 9 C 0.500510 2.674550 2.796310 0
M  V30 10 C 0.058511 2.511746 1.491668 0
M  V30 11 N -1.274670 2.901469 1.085980 0
M  V30 12 C -1.527796 2.560908 -0.296342 0
M  V30 13 N -1.529342 3.152916 -1.501916 0
M  V30 14 C -1.807266 2.394129 -2.605901 0
M  V30 15 C -2.087510 1.025674 -2.515091 0
M  V30 16 C -2.371482 0.121872 -3.505587 0
M  V30 17 C -2.542187 -1.065268 -2.818895 0
M  V30 18 C -2.845878 -2.379729 -3.348068 0
M  V30 19 O -1.826671 -3.105720 -3.221999 0
M  V30 20 N -4.020918 -2.922581 -3.935477 0
M  V30 21 C -5.177085 -2.056142 -4.083327 0
M  V30 22 C -4.038560 -4.299772 -4.354058 0
M  V30 23 N -2.367316 -0.877810 -1.469829 0
M  V30 24 C -2.419888 -1.685302 -0.295769 0
M  V30 25 C -2.594898 -3.126190 -0.399303 0
M  V30 26 C -2.951769 -3.530025 1.039783 0
M  V30 27 C -3.313883 -2.271057 1.765241 0
M  V30 28 C -3.581599 -1.300470 0.632545 0
M  V30 29 C -2.078063 0.454755 -1.277939 0
M  V30 30 N -1.798797 1.250062 -0.225426 0
M  V30 31 N 0.962510 1.960866 0.646177 0
M  V30 32 C 2.198157 1.585311 0.995655 0
M  V30 33 C 4.648011 1.076177 3.770511 0
M  V30 34 O 4.514224 1.884159 4.760293 0
M  V30 35 C 5.495069 -0.165502 3.667893 0 CFG=1
M  V30 36 C 4.853608 -1.361853 4.287072 0
M  V30 37 H 2.136015 -2.723942 3.538069 0
M  V30 38 H 2.249391 -1.243740 2.529739 0
M  V30 39 H 2.490135 -1.153955 4.294003 0
M  V30 40 H 3.761645 -1.302614 1.335437 0
M  V30 41 H 5.138431 -2.486723 1.498356 0
M  V30 42 H 6.557169 -0.655963 1.853914 0
M  V30 43 H 5.813757 1.529876 1.513523 0
M  V30 44 H 4.541835 0.566339 0.593906 0
M  V30 45 H 2.133720 2.410684 4.188101 0
M  V30 46 H -0.192896 3.108188 3.484841 0
M  V30 47 H -1.835844 3.356944 1.834117 0
M  V30 48 H -1.790292 2.922258 -3.521570 0
M  V30 49 H -2.449997 0.252968 -4.560048 0
M  V30 50 H -5.366538 -1.564850 -3.120913 0
M  V30 51 H -4.888168 -1.277043 -4.839933 0
M  V30 52 H -6.100297 -2.601251 -4.376656 0
M  V30 53 H -3.278993 -4.921943 -3.839514 0
M  V30 54 H -3.889436 -4.345584 -5.453173 0
M  V30 55 H -5.074670 -4.703329 -4.170618 0
M  V30 56 H -1.516185 -1.499554 0.340328 0
M  V30 57 H -3.401809 -3.506251 -1.010376 0
M  V30 58 H -1.600662 -3.633175 -0.577110 0
M  V30 59 H -2.137202 -4.094926 1.532195 0
M  V30 60 H -3.833438 -4.199228 1.085447 0
M  V30 61 H -4.204096 -2.369716 2.433663 0
M  V30 62 H -2.438343 -1.873057 2.357154 0
M  V30 63 H -4.563602 -1.535027 0.176550 0
M  V30 64 H -3.460260 -0.244817 0.906969 0
M  V30 65 H 2.680192 1.185143 0.119487 0
M  V30 66 H 6.513160 0.032665 4.072015 0
M  V30 67 H 4.219655 -1.127007 5.176438 0
M  V30 68 H 5.659258 -2.079841 4.587021 0
M  V30 END ATOM
M  V30 BEGIN BOND
M  V30 1 1 1 2
M  V30 2 1 2 3
M  V30 3 1 3 4
M  V30 4 1 4 5
M  V30 5 1 5 6
M  V30 6 1 6 7
M  V30 7 2 7 8
M  V30 8 1 8 9
M  V30 9 2 9 10
M  V30 10 1 10 11
M  V30 11 1 11 12
M  V30 12 2 12 13
M  V30 13 1 13 14
M  V30 14 2 14 15
M  V30 15 1 15 16
M  V30 16 2 16 17
M  V30 17 1 17 18
M  V30 18 2 18 19
M  V30 19 1 18 20
M  V30 20 1 20 21
M  V30 21 1 20 22
M  V30 22 1 17 23
M  V30 23 1 23 24
M  V30 24 1 24 25
M  V30 25 1 25 26
M  V30 26 1 26 27
M  V30 27 1 27 28
M  V30 28 1 23 29
M  V30 29 2 29 30
M  V30 30 1 10 31
M  V30 31 2 31 32
M  V30 32 1 6 33
M  V30 33 2 33 34
M  V30 34 1 33 35
M  V30 35 1 35 36
M  V30 36 1 36 2
M  V30 37 1 35 4
M  V30 38 1 32 7
M  V30 39 1 30 12
M  V30 40 1 29 15
M  V30 41 1 28 24
M  V30 42 1 1 37
M  V30 43 1 1 38
M  V30 44 1 1 39
M  V30 45 1 3 40
M  V30 46 1 3 41
M  V30 47 1 4 42 CFG=3
M  V30 48 1 5 43
M  V30 49 1 5 44
M  V30 50 1 8 45
M  V30 51 1 9 46
M  V30 52 1 11 47
M  V30 53 1 14 48
M  V30 54 1 16 49
M  V30 55 1 21 50
M  V30 56 1 21 51
M  V30 57 1 21 52
M  V30 58 1 22 53
M  V30 59 1 22 54
M  V30 60 1 22 55
M  V30 61 1 24 56
M  V30 62 1 25 57
M  V30 63 1 25 58
M  V30 64 1 26 59
M  V30 65 1 26 60
M  V30 66 1 27 61
M  V30 67 1 27 62
M  V30 68 1 28 63
M  V30 69 1 28 64
M  V30 70 1 32 65
M  V30 71 1 35 66 CFG=1
M  V30 72 1 36 67
M  V30 73 1 36 68
M  V30 END BOND
M  V30 END CTAB
M  END
>  <Dataset>  (478) 
ChEMBL_Kinases

>  <Ligand_Instance>  (478) 
nan

>  <PDB_ID>  (478) 
nan

>  <Standardized_SMILES>  (478) 
CN1C[C@H]2CN(c3ccc(Nc4ncc5cc(C(=O)N(C)C)n(C6CCCC6)c5n4)nc3)C(=O)[C@H]2C1

>  <Name>  (478) 
nan

>  <Pocket>  (478) 
nan

>  <ATP_Site>  (478) 
nan

>  <Peripheral>  (478) 
nan

>  <Num_H_Atoms_ProtBoundConf>  (478) 
nan

>  <Num_Resolved_Atoms>  (478) 
nan

>  <Num_Not_Resolved_Atoms>  (478) 
nan

$$$$
CHEMBL3691631
     RDKit          3D

  0  0  0  0  0  0  0  0  0  0999 V3000
M  V30 BEGIN CTAB
M  V30 COUNTS 76 82 0 0 0
M  V30 BEGIN ATOM
M  V30 1 C 6.537137 -3.653153 2.223701 0
M  V30 2 N 5.556453 -2.853075 1.483291 0
M  V30 3 C 4.250260 -2.939227 2.108017 0
M  V30 4 C 5.972221 -2.148138 0.321422 0
M  V30 5 O 7.186994 -2.307912 0.045726 0
M  V30 6 C 4.836825 -1.401108 -0.257403 0
M  V30 7 C 4.225797 -1.970977 -1.340284 0
M  V30 8 C 3.192278 -1.161062 -1.757291 0
M  V30 9 C 2.234289 -1.170257 -2.741723 0
M  V30 10 N 1.366152 -0.137992 -2.803075 0
M  V30 11 C 1.399920 0.888395 -1.949113 0
M  V30 12 N 0.532334 2.024612 -1.920257 0
M  V30 13 C -0.772117 1.695051 -1.430525 0
M  V30 14 C -1.112056 0.383577 -1.090942 0
M  V30 15 C -2.355725 0.027739 -0.609341 0
M  V30 16 C -3.344817 1.007603 -0.442273 0
M  V30 17 N -4.589466 0.521540 0.055090 0
M  V30 18 C -5.804451 0.049933 -0.605079 0
M  V30 19 C -6.220346 -1.168120 0.226487 0
M  V30 20 C -5.395078 -2.313658 -0.253131 0
M  V30 21 C -6.158152 -3.561678 -0.582678 0
M  V30 22 C -6.431425 -4.274567 0.732912 0
M  V30 23 C -7.803177 -3.716357 1.083520 0
M  V30 24 C -8.164132 -2.761938 -0.020158 0
M  V30 25 C -7.695432 -1.360694 0.183412 0
M  V30 26 N -7.463777 -3.300966 -1.156626 0
M  V30 27 O -5.841315 -0.740065 1.523998 0
M  V30 28 C -4.981585 0.364384 1.423757 0
M  V30 29 O -4.572326 1.145577 2.358157 0
M  V30 30 C -2.977414 2.287875 -0.785473 0
M  V30 31 N -1.756386 2.594696 -1.251450 0
M  V30 32 N 2.342602 0.905405 -0.974389 0
M  V30 33 C 3.238833 -0.108402 -0.870271 0
M  V30 34 N 4.222568 -0.218621 0.052544 0
M  V30 35 C 4.719687 0.567537 1.153774 0
M  V30 36 C 6.104325 1.114087 0.862619 0
M  V30 37 C 6.103632 2.434688 0.171611 0
M  V30 38 C 5.127076 3.416832 0.765902 0
M  V30 39 C 4.560000 2.856903 2.077621 0
M  V30 40 C 3.780901 1.597711 1.661803 0
M  V30 41 H 6.398899 -4.739995 2.067124 0
M  V30 42 H 6.422748 -3.442104 3.322706 0
M  V30 43 H 7.574108 -3.337394 1.982045 0
M  V30 44 H 4.308071 -2.896156 3.217847 0
M  V30 45 H 3.573827 -2.139028 1.796096 0
M  V30 46 H 3.724600 -3.907126 1.882814 0
M  V30 47 H 4.399269 -2.888203 -1.891637 0
M  V30 48 H 2.188596 -1.979702 -3.427322 0
M  V30 49 H 0.660097 3.025891 -2.180592 0
M  V30 50 H -0.394476 -0.432866 -1.194927 0
M  V30 51 H -2.561503 -1.012381 -0.363458 0
M  V30 52 H -5.626374 -0.246248 -1.657625 0
M  V30 53 H -6.584553 0.817245 -0.539632 0
M  V30 54 H -4.778925 -2.057580 -1.160718 0
M  V30 55 H -4.688927 -2.580134 0.590139 0
M  V30 56 H -5.553785 -4.168297 -1.259795 0
M  V30 57 H -6.424939 -5.362798 0.620224 0
M  V30 58 H -5.735308 -3.917177 1.535125 0
M  V30 59 H -7.846132 -3.209582 2.047387 0
M  V30 60 H -8.494311 -4.582016 1.052453 0
M  V30 61 H -9.264074 -2.731098 -0.167452 0
M  V30 62 H -8.130952 -1.021648 1.164223 0
M  V30 63 H -8.141220 -0.746775 -0.632487 0
M  V30 64 H -7.862746 -4.184618 -1.501397 0
M  V30 65 H -3.764700 3.013678 -0.642424 0
M  V30 66 H 4.891307 -0.139448 2.017354 0
M  V30 67 H 6.635990 0.402966 0.170946 0
M  V30 68 H 6.697682 1.182981 1.794719 0
M  V30 69 H 6.043078 2.362938 -0.933772 0
M  V30 70 H 7.127476 2.875575 0.351399 0
M  V30 71 H 4.294863 3.613441 0.083495 0
M  V30 72 H 5.599999 4.386236 1.030812 0
M  V30 73 H 3.863013 3.587235 2.495047 0
M  V30 74 H 5.365769 2.616881 2.777539 0
M  V30 75 H 3.017377 1.964354 0.961993 0
M  V30 76 H 3.247650 1.276949 2.605324 0
M  V30 END ATOM
M  V30 BEGIN BOND
M  V30 1 1 1 2
M  V30 2 1 2 3
M  V30 3 1 2 4
M  V30 4 2 4 5
M  V30 5 1 4 6
M  V30 6 2 6 7
M  V30 7 1 7 8
M  V30 8 2 8 9
M  V30 9 1 9 10
M  V30 10 2 10 11
M  V30 11 1 11 12
M  V30 12 1 12 13
M  V30 13 2 13 14
M  V30 14 1 14 15
M  V30 15 2 15 16
M  V30 16 1 16 17
M  V30 17 1 17 18
M  V30 18 1 18 19
M  V30 19 1 19 20
M  V30 20 1 20 21
M  V30 21 1 21 22
M  V30 22 1 22 23
M  V30 23 1 23 24
M  V30 24 1 24 25
M  V30 25 1 24 26
M  V30 26 1 19 27
M  V30 27 1 27 28
M  V30 28 2 28 29
M  V30 29 1 16 30
M  V30 30 2 30 31
M  V30 31 1 11 32
M  V30 32 2 32 33
M  V30 33 1 33 34
M  V30 34 1 34 35
M  V30 35 1 35 36
M  V30 36 1 36 37
M  V30 37 1 37 38
M  V30 38 1 38 39
M  V30 39 1 39 40
M  V30 40 1 34 6
M  V30 41 1 40 35
M  V30 42 1 33 8
M  V30 43 1 31 13
M  V30 44 1 28 17
M  V30 45 1 25 19
M  V30 46 1 26 21
M  V30 47 1 1 41
M  V30 48 1 1 42
M  V30 49 1 1 43
M  V30 50 1 3 44
M  V30 51 1 3 45
M  V30 52 1 3 46
M  V30 53 1 7 47
M  V30 54 1 9 48
M  V30 55 1 12 49
M  V30 56 1 14 50
M  V30 57 1 15 51
M  V30 58 1 18 52
M  V30 59 1 18 53
M  V30 60 1 20 54
M  V30 61 1 20 55
M  V30 62 1 21 56
M  V30 63 1 22 57
M  V30 64 1 22 58
M  V30 65 1 23 59
M  V30 66 1 23 60
M  V30 67 1 24 61
M  V30 68 1 25 62
M  V30 69 1 25 63
M  V30 70 1 26 64
M  V30 71 1 30 65
M  V30 72 1 35 66
M  V30 73 1 36 67
M  V30 74 1 36 68
M  V30 75 1 37 69
M  V30 76 1 37 70
M  V30 77 1 38 71
M  V30 78 1 38 72
M  V30 79 1 39 73
M  V30 80 1 39 74
M  V30 81 1 40 75
M  V30 82 1 40 76
M  V30 END BOND
M  V30 END CTAB
M  END
>  <Dataset>  (479) 
ChEMBL_Kinases

>  <Ligand_Instance>  (479) 
nan

>  <PDB_ID>  (479) 
nan

>  <Standardized_SMILES>  (479) 
CN(C)C(=O)c1cc2cnc(Nc3ccc(N4CC5(CC6CCC(C5)N6)OC4=O)cn3)nc2n1C1CCCCC1

>  <Name>  (479) 
nan

>  <Pocket>  (479) 
nan

>  <ATP_Site>  (479) 
nan

>  <Peripheral>  (479) 
nan

>  <Num_H_Atoms_ProtBoundConf>  (479) 
nan

>  <Num_Resolved_Atoms>  (479) 
nan

>  <Num_Not_Resolved_Atoms>  (479) 
nan

$$$$
CHEMBL3691629
     RDKit          3D

  0  0  0  0  0  0  0  0  0  0999 V3000
M  V30 BEGIN CTAB
M  V30 COUNTS 68 73 0 0 0
M  V30 BEGIN ATOM
M  V30 1 C 6.014647 -1.213167 1.239573 0
M  V30 2 N 6.541814 -0.400298 0.159476 0
M  V30 3 C 7.781664 -0.889148 -0.360926 0
M  V30 4 C 5.874235 0.780732 -0.336767 0
M  V30 5 O 6.481971 1.375745 -1.288313 0
M  V30 6 C 4.610338 1.165770 0.280403 0
M  V30 7 C 4.595682 2.346792 1.012691 0
M  V30 8 C 3.298751 2.470228 1.482259 0
M  V30 9 C 2.716810 3.454680 2.263252 0
M  V30 10 N 1.420634 3.334320 2.580337 0
M  V30 11 C 0.684630 2.284652 2.157707 0
M  V30 12 N -0.685549 2.257354 2.538226 0
M  V30 13 C -1.648983 1.239863 2.276261 0
M  V30 14 C -2.987679 1.334174 2.675669 0
M  V30 15 C -3.851377 0.306336 2.393144 0
M  V30 16 C -3.510982 -0.843845 1.733089 0
M  V30 17 N -4.373755 -1.918300 1.408301 0
M  V30 18 C -3.944721 -3.152141 0.802851 0
M  V30 19 C -4.943100 -3.737984 -0.160285 0 CFG=2
M  V30 20 C -5.035775 -2.971774 -1.437526 0
M  V30 21 N -6.329621 -2.322988 -1.475278 0
M  V30 22 C -7.212010 -3.135803 -0.663311 0
M  V30 23 C -6.334812 -3.846842 0.340045 0 CFG=2
M  V30 24 C -6.573692 -3.174048 1.686746 0
M  V30 25 C -5.763191 -1.929554 1.647731 0
M  V30 26 O -6.414229 -0.865813 1.845547 0
M  V30 27 C -2.195187 -0.874691 1.371922 0
M  V30 28 N -1.325220 0.108592 1.630246 0
M  V30 29 N 1.296019 1.361250 1.405283 0
M  V30 30 C 2.583959 1.381283 1.028589 0
M  V30 31 N 3.400009 0.576651 0.284454 0
M  V30 32 C 3.029310 -0.636553 -0.361268 0
M  V30 33 C 1.544798 -0.758070 -0.612722 0
M  V30 34 C 1.298211 0.241467 -1.706156 0
M  V30 35 C 2.570592 0.201667 -2.539888 0
M  V30 36 C 3.534863 -0.725233 -1.793438 0
M  V30 37 H 6.834765 -1.401083 1.950949 0
M  V30 38 H 5.650225 -2.206460 0.886393 0
M  V30 39 H 5.156268 -0.752991 1.763989 0
M  V30 40 H 7.638637 -1.745738 -1.051146 0
M  V30 41 H 8.308476 -0.053780 -0.860318 0
M  V30 42 H 8.448472 -1.205373 0.486950 0
M  V30 43 H 5.364904 3.070152 1.224834 0
M  V30 44 H 3.299890 4.312080 2.614362 0
M  V30 45 H -1.081300 3.056679 3.076361 0
M  V30 46 H -3.301525 2.224910 3.200264 0
M  V30 47 H -4.851149 0.458278 2.738724 0
M  V30 48 H -3.875363 -3.891686 1.651874 0
M  V30 49 H -2.960492 -3.099237 0.300273 0
M  V30 50 H -4.533200 -4.750437 -0.433203 0
M  V30 51 H -5.018559 -3.660565 -2.311702 0
M  V30 52 H -4.202804 -2.279882 -1.568605 0
M  V30 53 H -6.326016 -1.326688 -1.243513 0
M  V30 54 H -7.715432 -3.890318 -1.275570 0
M  V30 55 H -7.936069 -2.452626 -0.174123 0
M  V30 56 H -6.613014 -4.932434 0.412787 0
M  V30 57 H -6.330833 -3.850601 2.507540 0
M  V30 58 H -7.670686 -2.944112 1.705028 0
M  V30 59 H -1.707335 -1.672085 0.849913 0
M  V30 60 H 3.322408 -1.494838 0.240442 0
M  V30 61 H 1.371783 -1.761049 -1.056943 0
M  V30 62 H 0.929686 -0.687845 0.267568 0
M  V30 63 H 0.472144 -0.086747 -2.367451 0
M  V30 64 H 1.065748 1.261924 -1.370084 0
M  V30 65 H 3.018104 1.214245 -2.543800 0
M  V30 66 H 2.385244 -0.182804 -3.551722 0
M  V30 67 H 3.313554 -1.789142 -2.109300 0
M  V30 68 H 4.577188 -0.485915 -1.933932 0
M  V30 END ATOM
M  V30 BEGIN BOND
M  V30 1 1 1 2
M  V30 2 1 2 3
M  V30 3 1 2 4
M  V30 4 2 4 5
M  V30 5 1 4 6
M  V30 6 2 6 7
M  V30 7 1 7 8
M  V30 8 2 8 9
M  V30 9 1 9 10
M  V30 10 2 10 11
M  V30 11 1 11 12
M  V30 12 1 12 13
M  V30 13 2 13 14
M  V30 14 1 14 15
M  V30 15 2 15 16
M  V30 16 1 16 17
M  V30 17 1 17 18
M  V30 18 1 18 19
M  V30 19 1 19 20
M  V30 20 1 20 21
M  V30 21 1 21 22
M  V30 22 1 22 23
M  V30 23 1 23 24
M  V30 24 1 24 25
M  V30 25 2 25 26
M  V30 26 1 16 27
M  V30 27 2 27 28
M  V30 28 1 11 29
M  V30 29 2 29 30
M  V30 30 1 30 31
M  V30 31 1 31 32
M  V30 32 1 32 33
M  V30 33 1 33 34
M  V30 34 1 34 35
M  V30 35 1 35 36
M  V30 36 1 31 6
M  V30 37 1 36 32
M  V30 38 1 30 8
M  V30 39 1 28 13
M  V30 40 1 25 17
M  V30 41 1 23 19
M  V30 42 1 1 37
M  V30 43 1 1 38
M  V30 44 1 1 39
M  V30 45 1 3 40
M  V30 46 1 3 41
M  V30 47 1 3 42
M  V30 48 1 7 43
M  V30 49 1 9 44
M  V30 50 1 12 45
M  V30 51 1 14 46
M  V30 52 1 15 47
M  V30 53 1 18 48
M  V30 54 1 18 49
M  V30 55 1 19 50 CFG=3
M  V30 56 1 20 51
M  V30 57 1 20 52
M  V30 58 1 21 53
M  V30 59 1 22 54
M  V30 60 1 22 55
M  V30 61 1 23 56 CFG=1
M  V30 62 1 24 57
M  V30 63 1 24 58
M  V30 64 1 27 59
M  V30 65 1 32 60
M  V30 66 1 33 61
M  V30 67 1 33 62
M  V30 68 1 34 63
M  V30 69 1 34 64
M  V30 70 1 35 65
M  V30 71 1 35 66
M  V30 72 1 36 67
M  V30 73 1 36 68
M  V30 END BOND
M  V30 END CTAB
M  END
>  <Dataset>  (480) 
ChEMBL_Kinases

>  <Ligand_Instance>  (480) 
nan

>  <PDB_ID>  (480) 
nan

>  <Standardized_SMILES>  (480) 
CN(C)C(=O)c1cc2cnc(Nc3ccc(N4C[C@@H]5CNC[C@@H]5CC4=O)cn3)nc2n1C1CCCC1

>  <Name>  (480) 
nan

>  <Pocket>  (480) 
nan

>  <ATP_Site>  (480) 
nan

>  <Peripheral>  (480) 
nan

>  <Num_H_Atoms_ProtBoundConf>  (480) 
nan

>  <Num_Resolved_Atoms>  (480) 
nan

>  <Num_Not_Resolved_Atoms>  (480) 
nan

$$$$
CHEMBL3691628
     RDKit          3D

  0  0  0  0  0  0  0  0  0  0999 V3000
M  V30 BEGIN CTAB
M  V30 COUNTS 68 73 0 0 0
M  V30 BEGIN ATOM
M  V30 1 C 3.811055 -1.926748 1.846372 0
M  V30 2 N 4.850883 -1.231898 1.068299 0
M  V30 3 C 5.944822 -2.108776 0.693517 0
M  V30 4 C 4.962038 0.143107 0.610685 0
M  V30 5 O 5.942594 0.558301 -0.056550 0
M  V30 6 C 3.758282 0.827286 1.087108 0
M  V30 7 C 3.934721 1.665252 2.176655 0
M  V30 8 C 2.670602 2.151276 2.449315 0
M  V30 9 C 2.157208 3.014885 3.414593 0
M  V30 10 N 0.822652 3.317705 3.469005 0
M  V30 11 C 0.010703 2.758792 2.562854 0
M  V30 12 N -1.415445 2.877762 2.363177 0
M  V30 13 C -2.141332 1.660739 2.054447 0
M  V30 14 C -3.475298 1.508178 1.773849 0
M  V30 15 C -4.004332 0.262815 1.527429 0
M  V30 16 C -3.239814 -0.897898 1.545673 0
M  V30 17 N -3.771775 -2.184648 1.260502 0
M  V30 18 C -5.093859 -2.457295 0.733808 0
M  V30 19 C -5.090962 -3.328424 -0.487525 0 CFG=1
M  V30 20 C -5.059997 -2.387421 -1.701000 0
M  V30 21 N -3.634693 -2.065187 -1.706233 0
M  V30 22 C -3.025308 -3.369868 -1.705084 0
M  V30 23 C -3.864877 -4.142946 -0.716004 0 CFG=1
M  V30 24 C -3.103275 -4.500689 0.524832 0
M  V30 25 C -2.981976 -3.354124 1.460988 0
M  V30 26 O -2.169314 -3.443132 2.429119 0
M  V30 27 C -1.922960 -0.706230 1.828374 0
M  V30 28 N -1.420950 0.500340 2.064979 0
M  V30 29 N 0.547969 1.939515 1.656737 0
M  V30 30 C 1.829576 1.584589 1.521233 0
M  V30 31 N 2.487996 0.753024 0.655960 0
M  V30 32 C 1.894115 0.046543 -0.411216 0
M  V30 33 C 0.794427 0.767767 -1.142687 0
M  V30 34 C 1.433796 1.489745 -2.285428 0
M  V30 35 C 2.917235 1.093893 -2.221156 0
M  V30 36 C 2.815159 -0.290700 -1.551219 0
M  V30 37 H 4.274280 -2.336832 2.752109 0
M  V30 38 H 3.456393 -2.824047 1.269152 0
M  V30 39 H 2.921513 -1.318190 2.008136 0
M  V30 40 H 6.384934 -1.855372 -0.297621 0
M  V30 41 H 6.680328 -2.090354 1.520002 0
M  V30 42 H 5.581781 -3.151287 0.587503 0
M  V30 43 H 4.800145 1.945681 2.754389 0
M  V30 44 H 2.783074 3.469951 4.144681 0
M  V30 45 H -2.030325 3.724779 2.407775 0
M  V30 46 H -3.993810 2.452235 1.781329 0
M  V30 47 H -5.057587 0.226821 1.317873 0
M  V30 48 H -5.693567 -2.936896 1.519615 0
M  V30 49 H -5.610993 -1.513176 0.483674 0
M  V30 50 H -6.047359 -3.873272 -0.535478 0
M  V30 51 H -5.709143 -1.517676 -1.570276 0
M  V30 52 H -5.306272 -2.994533 -2.595337 0
M  V30 53 H -3.351706 -1.478247 -2.495565 0
M  V30 54 H -3.109875 -3.774425 -2.740994 0
M  V30 55 H -1.967180 -3.332774 -1.370740 0
M  V30 56 H -4.158719 -5.086790 -1.216372 0
M  V30 57 H -2.067559 -4.757479 0.228821 0
M  V30 58 H -3.527611 -5.400386 0.997696 0
M  V30 59 H -1.187692 -1.483819 1.879862 0
M  V30 60 H 1.474522 -0.922100 -0.054117 0
M  V30 61 H 0.113118 1.357029 -0.547463 0
M  V30 62 H 0.151152 -0.038424 -1.616028 0
M  V30 63 H 1.101880 1.097591 -3.297265 0
M  V30 64 H 1.302178 2.574394 -2.305382 0
M  V30 65 H 3.381774 1.020583 -3.203853 0
M  V30 66 H 3.441868 1.736221 -1.491707 0
M  V30 67 H 2.206303 -0.923415 -2.250127 0
M  V30 68 H 3.777265 -0.702187 -1.324931 0
M  V30 END ATOM
M  V30 BEGIN BOND
M  V30 1 1 1 2
M  V30 2 1 2 3
M  V30 3 1 2 4
M  V30 4 2 4 5
M  V30 5 1 4 6
M  V30 6 2 6 7
M  V30 7 1 7 8
M  V30 8 2 8 9
M  V30 9 1 9 10
M  V30 10 2 10 11
M  V30 11 1 11 12
M  V30 12 1 12 13
M  V30 13 2 13 14
M  V30 14 1 14 15
M  V30 15 2 15 16
M  V30 16 1 16 17
M  V30 17 1 17 18
M  V30 18 1 18 19
M  V30 19 1 19 20
M  V30 20 1 20 21
M  V30 21 1 21 22
M  V30 22 1 22 23
M  V30 23 1 23 24
M  V30 24 1 24 25
M  V30 25 2 25 26
M  V30 26 1 16 27
M  V30 27 2 27 28
M  V30 28 1 11 29
M  V30 29 2 29 30
M  V30 30 1 30 31
M  V30 31 1 31 32
M  V30 32 1 32 33
M  V30 33 1 33 34
M  V30 34 1 34 35
M  V30 35 1 35 36
M  V30 36 1 31 6
M  V30 37 1 36 32
M  V30 38 1 30 8
M  V30 39 1 28 13
M  V30 40 1 25 17
M  V30 41 1 23 19
M  V30 42 1 1 37
M  V30 43 1 1 38
M  V30 44 1 1 39
M  V30 45 1 3 40
M  V30 46 1 3 41
M  V30 47 1 3 42
M  V30 48 1 7 43
M  V30 49 1 9 44
M  V30 50 1 12 45
M  V30 51 1 14 46
M  V30 52 1 15 47
M  V30 53 1 18 48
M  V30 54 1 18 49
M  V30 55 1 19 50 CFG=3
M  V30 56 1 20 51
M  V30 57 1 20 52
M  V30 58 1 21 53
M  V30 59 1 22 54
M  V30 60 1 22 55
M  V30 61 1 23 56 CFG=3
M  V30 62 1 24 57
M  V30 63 1 24 58
M  V30 64 1 27 59
M  V30 65 1 32 60
M  V30 66 1 33 61
M  V30 67 1 33 62
M  V30 68 1 34 63
M  V30 69 1 34 64
M  V30 70 1 35 65
M  V30 71 1 35 66
M  V30 72 1 36 67
M  V30 73 1 36 68
M  V30 END BOND
M  V30 END CTAB
M  END
>  <Dataset>  (481) 
ChEMBL_Kinases

>  <Ligand_Instance>  (481) 
nan

>  <PDB_ID>  (481) 
nan

>  <Standardized_SMILES>  (481) 
CN(C)C(=O)c1cc2cnc(Nc3ccc(N4C[C@H]5CNC[C@H]5CC4=O)cn3)nc2n1C1CCCC1

>  <Name>  (481) 
nan

>  <Pocket>  (481) 
nan

>  <ATP_Site>  (481) 
nan

>  <Peripheral>  (481) 
nan

>  <Num_H_Atoms_ProtBoundConf>  (481) 
nan

>  <Num_Resolved_Atoms>  (481) 
nan

>  <Num_Not_Resolved_Atoms>  (481) 
nan

$$$$
CHEMBL3691605
     RDKit          3D

  0  0  0  0  0  0  0  0  0  0999 V3000
M  V30 BEGIN CTAB
M  V30 COUNTS 77 82 0 0 0
M  V30 BEGIN ATOM
M  V30 1 C -5.534580 -2.194856 -2.779051 0
M  V30 2 C -5.608685 -2.470536 -4.251230 0
M  V30 3 O -4.626880 -1.823340 -5.018675 0
M  V30 4 C -3.284021 -2.024461 -4.918855 0
M  V30 5 O -2.861252 -2.876477 -4.070720 0
M  V30 6 N -2.138767 -1.501581 -5.555006 0
M  V30 7 C -0.747592 -1.860469 -5.335931 0
M  V30 8 C -0.100365 -1.678980 -6.685207 0
M  V30 9 C -1.213790 -1.166273 -7.599190 0
M  V30 10 C -2.053712 -0.446936 -6.547471 0
M  V30 11 C -1.244828 0.747955 -6.092740 0
M  V30 12 N -0.438387 0.467332 -4.917399 0
M  V30 13 C 0.189088 1.657567 -4.420873 0
M  V30 14 O -0.278949 2.391946 -5.280237 0
M  V30 15 C 1.067023 1.838338 -3.284633 0
M  V30 16 C 2.041282 2.811313 -3.228286 0
M  V30 17 C 2.859264 2.905184 -2.094857 0
M  V30 18 C 2.715319 2.032515 -1.008342 0
M  V30 19 N 3.568409 2.161621 0.159320 0
M  V30 20 C 3.203890 1.086555 1.059670 0
M  V30 21 N 4.013161 -0.011013 1.095163 0
M  V30 22 C 3.624919 -1.029368 1.873829 0
M  V30 23 C 2.474304 -0.981689 2.601553 0
M  V30 24 C 1.843117 -1.859674 3.439211 0
M  V30 25 C 0.688180 -1.256349 3.870222 0
M  V30 26 C -0.212810 -1.980215 4.752562 0
M  V30 27 O -1.395781 -1.889759 4.300978 0
M  V30 28 N 0.061321 -2.713381 5.957076 0
M  V30 29 C 1.283952 -3.010699 6.722512 0
M  V30 30 C -1.081036 -3.316317 6.625265 0
M  V30 31 N 0.565936 -0.033900 3.340983 0
M  V30 32 C -0.530793 0.871636 3.596121 0
M  V30 33 C -0.346161 2.256854 3.113011 0
M  V30 34 C 0.202048 2.972043 4.328570 0
M  V30 35 C -0.699770 2.419832 5.407564 0
M  V30 36 C -0.760029 0.938634 5.089338 0
M  V30 37 C 1.665936 0.150148 2.550039 0
M  V30 38 N 2.074753 1.166623 1.760285 0
M  V30 39 N 1.750255 1.157896 -1.194105 0
M  V30 40 C 0.929860 0.989803 -2.219604 0
M  V30 41 C -0.273081 -0.831340 -4.299392 0
M  V30 42 H -4.559784 -1.746084 -2.524138 0
M  V30 43 H -6.387460 -1.525140 -2.503173 0
M  V30 44 H -5.599051 -3.158751 -2.234566 0
M  V30 45 H -6.588897 -2.225647 -4.708098 0
M  V30 46 H -5.443785 -3.576727 -4.419566 0
M  V30 47 H -0.614368 -2.894870 -4.956818 0
M  V30 48 H 0.336903 -2.632408 -7.056053 0
M  V30 49 H 0.663838 -0.892390 -6.687294 0
M  V30 50 H -0.879071 -0.445390 -8.341431 0
M  V30 51 H -1.801380 -1.999657 -8.005145 0
M  V30 52 H -3.012058 -0.113801 -6.940088 0
M  V30 53 H -0.549741 1.016715 -6.909773 0
M  V30 54 H -1.892025 1.612823 -5.849505 0
M  V30 55 H 2.171484 3.499211 -4.066847 0
M  V30 56 H 3.630425 3.691145 -2.080786 0
M  V30 57 H 4.237862 2.936925 0.148033 0
M  V30 58 H 4.274225 -1.877698 1.888540 0
M  V30 59 H 2.264586 -2.821976 3.650626 0
M  V30 60 H 1.280775 -2.518130 7.697687 0
M  V30 61 H 1.363196 -4.110133 6.818389 0
M  V30 62 H 2.189521 -2.679047 6.158904 0
M  V30 63 H -1.988210 -3.299018 5.946317 0
M  V30 64 H -0.848091 -4.381061 6.834491 0
M  V30 65 H -1.274681 -2.767302 7.556708 0
M  V30 66 H -1.439352 0.435348 3.127662 0
M  V30 67 H -1.365418 2.708515 2.934867 0
M  V30 68 H 0.200561 2.425465 2.195978 0
M  V30 69 H 1.227458 2.638451 4.594479 0
M  V30 70 H 0.135811 4.056515 4.241949 0
M  V30 71 H -0.277387 2.535829 6.432793 0
M  V30 72 H -1.713820 2.876285 5.368365 0
M  V30 73 H -1.779798 0.577061 5.347236 0
M  V30 74 H 0.033774 0.415399 5.625724 0
M  V30 75 H 0.265462 0.183268 -2.001556 0
M  V30 76 H 0.721930 -1.074457 -3.964639 0
M  V30 77 H -1.068386 -0.847145 -3.496899 0
M  V30 END ATOM
M  V30 BEGIN BOND
M  V30 1 1 1 2
M  V30 2 1 2 3
M  V30 3 1 3 4
M  V30 4 2 4 5
M  V30 5 1 4 6
M  V30 6 1 6 7
M  V30 7 1 7 8
M  V30 8 1 8 9
M  V30 9 1 9 10
M  V30 10 1 10 11
M  V30 11 1 11 12
M  V30 12 1 12 13
M  V30 13 2 13 14
M  V30 14 1 13 15
M  V30 15 2 15 16
M  V30 16 1 16 17
M  V30 17 2 17 18
M  V30 18 1 18 19
M  V30 19 1 19 20
M  V30 20 2 20 21
M  V30 21 1 21 22
M  V30 22 2 22 23
M  V30 23 1 23 24
M  V30 24 2 24 25
M  V30 25 1 25 26
M  V30 26 2 26 27
M  V30 27 1 26 28
M  V30 28 1 28 29
M  V30 29 1 28 30
M  V30 30 1 25 31
M  V30 31 1 31 32
M  V30 32 1 32 33
M  V30 33 1 33 34
M  V30 34 1 34 35
M  V30 35 1 35 36
M  V30 36 1 31 37
M  V30 37 2 37 38
M  V30 38 1 18 39
M  V30 39 2 39 40
M  V30 40 1 12 41
M  V30 41 1 10 6
M  V30 42 1 40 15
M  V30 43 1 41 7
M  V30 44 1 38 20
M  V30 45 1 37 23
M  V30 46 1 36 32
M  V30 47 1 1 42
M  V30 48 1 1 43
M  V30 49 1 1 44
M  V30 50 1 2 45
M  V30 51 1 2 46
M  V30 52 1 7 47
M  V30 53 1 8 48
M  V30 54 1 8 49
M  V30 55 1 9 50
M  V30 56 1 9 51
M  V30 57 1 10 52
M  V30 58 1 11 53
M  V30 59 1 11 54
M  V30 60 1 16 55
M  V30 61 1 17 56
M  V30 62 1 19 57
M  V30 63 1 22 58
M  V30 64 1 24 59
M  V30 65 1 29 60
M  V30 66 1 29 61
M  V30 67 1 29 62
M  V30 68 1 30 63
M  V30 69 1 30 64
M  V30 70 1 30 65
M  V30 71 1 32 66
M  V30 72 1 33 67
M  V30 73 1 33 68
M  V30 74 1 34 69
M  V30 75 1 34 70
M  V30 76 1 35 71
M  V30 77 1 35 72
M  V30 78 1 36 73
M  V30 79 1 36 74
M  V30 80 1 40 75
M  V30 81 1 41 76
M  V30 82 1 41 77
M  V30 END BOND
M  V30 END CTAB
M  END
>  <Dataset>  (482) 
ChEMBL_Kinases

>  <Ligand_Instance>  (482) 
nan

>  <PDB_ID>  (482) 
nan

>  <Standardized_SMILES>  (482) 
CCOC(=O)N1C2CCC1CN(C(=O)c1ccc(Nc3ncc4cc(C(=O)N(C)C)n(C5CCCC5)c4n3)nc1)C2

>  <Name>  (482) 
nan

>  <Pocket>  (482) 
nan

>  <ATP_Site>  (482) 
nan

>  <Peripheral>  (482) 
nan

>  <Num_H_Atoms_ProtBoundConf>  (482) 
nan

>  <Num_Resolved_Atoms>  (482) 
nan

>  <Num_Not_Resolved_Atoms>  (482) 
nan

$$$$
CHEMBL3691606
     RDKit          3D

  0  0  0  0  0  0  0  0  0  0999 V3000
M  V30 BEGIN CTAB
M  V30 COUNTS 69 74 0 0 0
M  V30 BEGIN ATOM
M  V30 1 C 4.639160 -0.628863 4.945250 0
M  V30 2 N 4.094867 -0.224036 3.643441 0
M  V30 3 C 3.156646 -1.282861 3.245244 0
M  V30 4 C 4.451262 0.995226 2.947957 0
M  V30 5 O 5.287525 1.624713 3.644302 0
M  V30 6 C 3.715659 1.056806 1.690148 0
M  V30 7 C 4.339995 0.819166 0.483902 0
M  V30 8 C 3.349699 0.957783 -0.448889 0
M  V30 9 C 3.448448 0.816044 -1.821555 0
M  V30 10 N 2.343504 0.989131 -2.568293 0
M  V30 11 C 1.180819 1.297338 -1.918721 0
M  V30 12 N 0.002590 1.469271 -2.727418 0
M  V30 13 C -1.110399 0.641997 -2.327727 0
M  V30 14 C -2.308510 0.684000 -2.997420 0
M  V30 15 C -3.386710 -0.092552 -2.637635 0
M  V30 16 C -3.280090 -0.952101 -1.565724 0
M  V30 17 C -4.224475 -1.874643 -0.957418 0
M  V30 18 O -5.372413 -1.543574 -0.565336 0
M  V30 19 N -3.899815 -3.262830 -0.757839 0
M  V30 20 C -4.943253 -4.048843 -0.130856 0
M  V30 21 C -5.037344 -5.359265 -0.882515 0
M  V30 22 C -5.297525 -5.000771 -2.326660 0
M  V30 23 C -3.940587 -4.990378 -2.967498 0
M  V30 24 C -3.005555 -5.228307 -1.816995 0
M  V30 25 C -2.667615 -3.909625 -1.118366 0
M  V30 26 N -3.748414 -5.995133 -0.835906 0
M  V30 27 C -2.058342 -0.991422 -0.887090 0
M  V30 28 N -1.041457 -0.215189 -1.278608 0
M  V30 29 N 1.143523 1.422645 -0.590788 0
M  V30 30 C 2.187751 1.268997 0.232113 0
M  V30 31 N 2.408717 1.333466 1.573989 0
M  V30 32 C 1.361231 1.640357 2.500891 0
M  V30 33 C 1.815276 2.482231 3.661877 0
M  V30 34 C 2.011587 3.902633 3.228252 0
M  V30 35 C 1.872999 4.134808 1.751482 0
M  V30 36 O 0.784638 3.551470 1.160340 0
M  V30 37 C 0.267500 2.463259 1.815614 0
M  V30 38 H 3.846412 -0.849585 5.672258 0
M  V30 39 H 5.255858 -1.541960 4.841700 0
M  V30 40 H 5.282352 0.149790 5.392600 0
M  V30 41 H 3.704472 -2.223432 3.020647 0
M  V30 42 H 2.415764 -1.508817 4.015107 0
M  V30 43 H 2.600122 -0.971959 2.324365 0
M  V30 44 H 5.372824 0.580419 0.310705 0
M  V30 45 H 4.386641 0.571539 -2.305170 0
M  V30 46 H -0.145480 2.097035 -3.542316 0
M  V30 47 H -2.463520 1.328698 -3.840116 0
M  V30 48 H -4.361873 -0.142726 -3.084569 0
M  V30 49 H -5.921704 -3.528415 -0.074811 0
M  V30 50 H -4.630166 -4.306062 0.903857 0
M  V30 51 H -5.832400 -6.010599 -0.465068 0
M  V30 52 H -5.964481 -5.715602 -2.836093 0
M  V30 53 H -5.794633 -4.011006 -2.407997 0
M  V30 54 H -3.787538 -4.031981 -3.488535 0
M  V30 55 H -3.870979 -5.784643 -3.739473 0
M  V30 56 H -2.081658 -5.746873 -2.130107 0
M  V30 57 H -2.025640 -3.298847 -1.763140 0
M  V30 58 H -2.142400 -4.203664 -0.170350 0
M  V30 59 H -3.763349 -7.013812 -1.069840 0
M  V30 60 H -1.724996 -1.574798 -0.025621 0
M  V30 61 H 0.858661 0.705039 2.800734 0
M  V30 62 H 2.661844 2.063608 4.232821 0
M  V30 63 H 0.956890 2.509383 4.408205 0
M  V30 64 H 1.272552 4.603472 3.715515 0
M  V30 65 H 3.055191 4.221055 3.496020 0
M  V30 66 H 1.807088 5.257015 1.632870 0
M  V30 67 H 2.850182 3.868499 1.277514 0
M  V30 68 H -0.373943 1.887575 1.159354 0
M  V30 69 H -0.374149 2.864930 2.647717 0
M  V30 END ATOM
M  V30 BEGIN BOND
M  V30 1 1 1 2
M  V30 2 1 2 3
M  V30 3 1 2 4
M  V30 4 2 4 5
M  V30 5 1 4 6
M  V30 6 2 6 7
M  V30 7 1 7 8
M  V30 8 2 8 9
M  V30 9 1 9 10
M  V30 10 2 10 11
M  V30 11 1 11 12
M  V30 12 1 12 13
M  V30 13 2 13 14
M  V30 14 1 14 15
M  V30 15 2 15 16
M  V30 16 1 16 17
M  V30 17 2 17 18
M  V30 18 1 17 19
M  V30 19 1 19 20
M  V30 20 1 20 21
M  V30 21 1 21 22
M  V30 22 1 22 23
M  V30 23 1 23 24
M  V30 24 1 24 25
M  V30 25 1 24 26
M  V30 26 1 16 27
M  V30 27 2 27 28
M  V30 28 1 11 29
M  V30 29 2 29 30
M  V30 30 1 30 31
M  V30 31 1 31 32
M  V30 32 1 32 33
M  V30 33 1 33 34
M  V30 34 1 34 35
M  V30 35 1 35 36
M  V30 36 1 36 37
M  V30 37 1 31 6
M  V30 38 1 37 32
M  V30 39 1 30 8
M  V30 40 1 28 13
M  V30 41 1 25 19
M  V30 42 1 26 21
M  V30 43 1 1 38
M  V30 44 1 1 39
M  V30 45 1 1 40
M  V30 46 1 3 41
M  V30 47 1 3 42
M  V30 48 1 3 43
M  V30 49 1 7 44
M  V30 50 1 9 45
M  V30 51 1 12 46
M  V30 52 1 14 47
M  V30 53 1 15 48
M  V30 54 1 20 49
M  V30 55 1 20 50
M  V30 56 1 21 51
M  V30 57 1 22 52
M  V30 58 1 22 53
M  V30 59 1 23 54
M  V30 60 1 23 55
M  V30 61 1 24 56
M  V30 62 1 25 57
M  V30 63 1 25 58
M  V30 64 1 26 59
M  V30 65 1 27 60
M  V30 66 1 32 61
M  V30 67 1 33 62
M  V30 68 1 33 63
M  V30 69 1 34 64
M  V30 70 1 34 65
M  V30 71 1 35 66
M  V30 72 1 35 67
M  V30 73 1 37 68
M  V30 74 1 37 69
M  V30 END BOND
M  V30 END CTAB
M  END
>  <Dataset>  (483) 
ChEMBL_Kinases

>  <Ligand_Instance>  (483) 
nan

>  <PDB_ID>  (483) 
nan

>  <Standardized_SMILES>  (483) 
CN(C)C(=O)c1cc2cnc(Nc3ccc(C(=O)N4CC5CCC(C4)N5)cn3)nc2n1C1CCCOC1

>  <Name>  (483) 
nan

>  <Pocket>  (483) 
nan

>  <ATP_Site>  (483) 
nan

>  <Peripheral>  (483) 
nan

>  <Num_H_Atoms_ProtBoundConf>  (483) 
nan

>  <Num_Resolved_Atoms>  (483) 
nan

>  <Num_Not_Resolved_Atoms>  (483) 
nan

$$$$
CHEMBL3691607
     RDKit          3D

  0  0  0  0  0  0  0  0  0  0999 V3000
M  V30 BEGIN CTAB
M  V30 COUNTS 71 76 0 0 0
M  V30 BEGIN ATOM
M  V30 1 C 4.206916 0.082305 5.171963 0
M  V30 2 N 3.769851 0.253793 3.777550 0
M  V30 3 C 2.939961 -0.917446 3.461423 0
M  V30 4 C 4.124936 1.384681 2.945659 0
M  V30 5 O 4.848903 2.190363 3.575691 0
M  V30 6 C 3.493306 1.166289 1.643163 0
M  V30 7 C 4.188068 0.551863 0.622010 0
M  V30 8 C 3.337777 0.476595 -0.452625 0
M  V30 9 C 3.512782 -0.046336 -1.702473 0
M  V30 10 N 2.454351 0.021609 -2.542842 0
M  V30 11 C 1.297244 0.580553 -2.146631 0
M  V30 12 N 0.161477 0.620045 -3.039188 0
M  V30 13 C -0.954016 -0.178361 -2.575684 0
M  V30 14 C -2.099618 -0.295680 -3.297539 0
M  V30 15 C -3.206826 -1.019379 -2.908390 0
M  V30 16 C -3.159749 -1.675638 -1.701425 0
M  V30 17 C -4.109248 -2.510892 -0.981208 0
M  V30 18 O -5.266505 -2.245836 -0.525522 0
M  V30 19 N -3.778635 -3.876122 -0.685415 0
M  V30 20 C -4.710021 -4.720944 0.036006 0
M  V30 21 C -4.931558 -5.959359 -0.830753 0
M  V30 22 C -5.229777 -5.460251 -2.224912 0
M  V30 23 C -3.899714 -5.579384 -2.910187 0
M  V30 24 C -2.911376 -5.844753 -1.802977 0
M  V30 25 C -2.556686 -4.614300 -1.022863 0
M  V30 26 N -3.705718 -6.701816 -0.909152 0
M  V30 27 C -1.976212 -1.548192 -0.967413 0
M  V30 28 N -0.929724 -0.828141 -1.399129 0
M  V30 29 N 1.155112 1.090170 -0.903722 0
M  V30 30 C 2.172945 1.057582 -0.005069 0
M  V30 31 N 2.243220 1.484965 1.267691 0
M  V30 32 C 1.235776 2.135503 2.074930 0
M  V30 33 C 1.828025 3.302303 2.837817 0
M  V30 34 C 0.929602 4.525818 2.820189 0
M  V30 35 C 0.664823 5.043177 1.434468 0
M  V30 36 C 0.658428 3.863635 0.488157 0
M  V30 37 C 0.097194 2.680261 1.265793 0
M  V30 38 H 3.341593 0.096010 5.846378 0
M  V30 39 H 4.716456 -0.920483 5.283924 0
M  V30 40 H 4.957847 0.861388 5.412154 0
M  V30 41 H 3.501184 -1.842540 3.681552 0
M  V30 42 H 1.984624 -0.911332 3.982310 0
M  V30 43 H 2.702637 -0.883309 2.366709 0
M  V30 44 H 5.199150 0.184703 0.620679 0
M  V30 45 H 4.441184 -0.488737 -2.001305 0
M  V30 46 H 0.031817 1.123574 -3.941141 0
M  V30 47 H -2.192542 0.203125 -4.261818 0
M  V30 48 H -4.136996 -1.167415 -3.399167 0
M  V30 49 H -5.667408 -4.214882 0.221837 0
M  V30 50 H -4.186177 -5.045498 0.983305 0
M  V30 51 H -5.762007 -6.568288 -0.430098 0
M  V30 52 H -6.022318 -6.092345 -2.718943 0
M  V30 53 H -5.648906 -4.437412 -2.209979 0
M  V30 54 H -3.645435 -4.704323 -3.524897 0
M  V30 55 H -3.943716 -6.498411 -3.525993 0
M  V30 56 H -1.998675 -6.331098 -2.160687 0
M  V30 57 H -1.808068 -3.980051 -1.492868 0
M  V30 58 H -2.146039 -4.943357 -0.049246 0
M  V30 59 H -3.156467 -6.698899 -0.009371 0
M  V30 60 H -1.714880 -1.976451 0.007643 0
M  V30 61 H 0.822629 1.384428 2.789360 0
M  V30 62 H 2.793044 3.560860 2.351188 0
M  V30 63 H 1.984544 3.028992 3.896272 0
M  V30 64 H 0.004329 4.334366 3.406773 0
M  V30 65 H 1.499184 5.317179 3.364770 0
M  V30 66 H -0.352969 5.484147 1.375191 0
M  V30 67 H 1.384584 5.828630 1.127647 0
M  V30 68 H 0.126395 4.060462 -0.450457 0
M  V30 69 H 1.730056 3.615460 0.231193 0
M  V30 70 H -0.428250 1.948857 0.633528 0
M  V30 71 H -0.668449 3.054543 1.975769 0
M  V30 END ATOM
M  V30 BEGIN BOND
M  V30 1 1 1 2
M  V30 2 1 2 3
M  V30 3 1 2 4
M  V30 4 2 4 5
M  V30 5 1 4 6
M  V30 6 2 6 7
M  V30 7 1 7 8
M  V30 8 2 8 9
M  V30 9 1 9 10
M  V30 10 2 10 11
M  V30 11 1 11 12
M  V30 12 1 12 13
M  V30 13 2 13 14
M  V30 14 1 14 15
M  V30 15 2 15 16
M  V30 16 1 16 17
M  V30 17 2 17 18
M  V30 18 1 17 19
M  V30 19 1 19 20
M  V30 20 1 20 21
M  V30 21 1 21 22
M  V30 22 1 22 23
M  V30 23 1 23 24
M  V30 24 1 24 25
M  V30 25 1 24 26
M  V30 26 1 16 27
M  V30 27 2 27 28
M  V30 28 1 11 29
M  V30 29 2 29 30
M  V30 30 1 30 31
M  V30 31 1 31 32
M  V30 32 1 32 33
M  V30 33 1 33 34
M  V30 34 1 34 35
M  V30 35 1 35 36
M  V30 36 1 36 37
M  V30 37 1 31 6
M  V30 38 1 37 32
M  V30 39 1 30 8
M  V30 40 1 28 13
M  V30 41 1 25 19
M  V30 42 1 26 21
M  V30 43 1 1 38
M  V30 44 1 1 39
M  V30 45 1 1 40
M  V30 46 1 3 41
M  V30 47 1 3 42
M  V30 48 1 3 43
M  V30 49 1 7 44
M  V30 50 1 9 45
M  V30 51 1 12 46
M  V30 52 1 14 47
M  V30 53 1 15 48
M  V30 54 1 20 49
M  V30 55 1 20 50
M  V30 56 1 21 51
M  V30 57 1 22 52
M  V30 58 1 22 53
M  V30 59 1 23 54
M  V30 60 1 23 55
M  V30 61 1 24 56
M  V30 62 1 25 57
M  V30 63 1 25 58
M  V30 64 1 26 59
M  V30 65 1 27 60
M  V30 66 1 32 61
M  V30 67 1 33 62
M  V30 68 1 33 63
M  V30 69 1 34 64
M  V30 70 1 34 65
M  V30 71 1 35 66
M  V30 72 1 35 67
M  V30 73 1 36 68
M  V30 74 1 36 69
M  V30 75 1 37 70
M  V30 76 1 37 71
M  V30 END BOND
M  V30 END CTAB
M  END
>  <Dataset>  (484) 
ChEMBL_Kinases

>  <Ligand_Instance>  (484) 
nan

>  <PDB_ID>  (484) 
nan

>  <Standardized_SMILES>  (484) 
CN(C)C(=O)c1cc2cnc(Nc3ccc(C(=O)N4CC5CCC(C4)N5)cn3)nc2n1C1CCCCC1

>  <Name>  (484) 
nan

>  <Pocket>  (484) 
nan

>  <ATP_Site>  (484) 
nan

>  <Peripheral>  (484) 
nan

>  <Num_H_Atoms_ProtBoundConf>  (484) 
nan

>  <Num_Resolved_Atoms>  (484) 
nan

>  <Num_Not_Resolved_Atoms>  (484) 
nan

$$$$
CHEMBL3691608
     RDKit          3D

  0  0  0  0  0  0  0  0  0  0999 V3000
M  V30 BEGIN CTAB
M  V30 COUNTS 68 73 0 0 0
M  V30 BEGIN ATOM
M  V30 1 C 5.796310 -0.816928 4.028869 0
M  V30 2 N 4.983937 -0.416268 2.879737 0
M  V30 3 C 4.623860 -1.590984 2.119383 0
M  V30 4 C 4.650740 0.941250 2.602539 0
M  V30 5 O 5.109556 1.789767 3.410644 0
M  V30 6 C 3.820970 1.095750 1.407402 0
M  V30 7 C 4.407709 1.655158 0.277689 0
M  V30 8 C 3.386315 1.648204 -0.670226 0
M  V30 9 C 3.471709 2.107571 -1.979630 0
M  V30 10 N 2.361400 2.000512 -2.729350 0
M  V30 11 C 1.213321 1.464590 -2.216741 0
M  V30 12 N 0.048737 1.356108 -3.050874 0
M  V30 13 C -1.104441 0.684428 -2.552817 0
M  V30 14 C -2.233830 0.578403 -3.352127 0
M  V30 15 C -3.340963 -0.095159 -2.885532 0
M  V30 16 C -3.325709 -0.660893 -1.631781 0
M  V30 17 C -4.283337 -1.432022 -0.867358 0
M  V30 18 O -4.792919 -1.055475 0.239681 0
M  V30 19 N -4.576542 -2.667772 -1.514930 0
M  V30 20 C -4.125131 -3.285776 -2.779310 0
M  V30 21 C -4.819573 -4.605653 -2.794917 0
M  V30 22 C -6.146658 -4.209537 -2.132397 0
M  V30 23 C -5.484192 -3.617793 -0.904163 0
M  V30 24 C -4.619915 -4.800070 -0.503655 0
M  V30 25 N -4.235445 -5.426123 -1.763714 0
M  V30 26 C -2.167094 -0.527616 -0.858948 0
M  V30 27 N -1.064683 0.136631 -1.311266 0
M  V30 28 N 1.188906 1.040496 -0.944999 0
M  V30 29 C 2.237011 1.100602 -0.111764 0
M  V30 30 N 2.545624 0.773414 1.173622 0
M  V30 31 C 1.562951 0.204311 2.028489 0
M  V30 32 C 1.938873 0.109727 3.488482 0
M  V30 33 C 0.677369 0.162915 4.374765 0
M  V30 34 C 0.073189 1.554132 4.344611 0
M  V30 35 C 0.348188 2.153012 2.961806 0
M  V30 36 C 0.249210 0.967263 2.000670 0
M  V30 37 H 6.655419 -1.458468 3.685659 0
M  V30 38 H 5.161046 -1.336281 4.783431 0
M  V30 39 H 6.251295 0.040314 4.560161 0
M  V30 40 H 4.013817 -1.359072 1.219876 0
M  V30 41 H 5.563598 -2.134175 1.854853 0
M  V30 42 H 4.092375 -2.306212 2.811732 0
M  V30 43 H 5.428330 2.026225 0.129485 0
M  V30 44 H 4.379773 2.534049 -2.390452 0
M  V30 45 H 0.050940 1.769455 -4.011424 0
M  V30 46 H -2.311839 0.998087 -4.345927 0
M  V30 47 H -4.293340 -0.267400 -3.370267 0
M  V30 48 H -4.401503 -2.634001 -3.635218 0
M  V30 49 H -3.032675 -3.442929 -2.674362 0
M  V30 50 H -4.933982 -5.090870 -3.748833 0
M  V30 51 H -6.742905 -5.118231 -1.886442 0
M  V30 52 H -6.716449 -3.481105 -2.722384 0
M  V30 53 H -6.132139 -3.257698 -0.133116 0
M  V30 54 H -3.659309 -4.455582 -0.043111 0
M  V30 55 H -5.116047 -5.528285 0.135887 0
M  V30 56 H -4.647596 -6.385050 -1.853542 0
M  V30 57 H -1.956757 -0.902116 0.158447 0
M  V30 58 H 1.333543 -0.820976 1.638352 0
M  V30 59 H 2.335772 -0.907178 3.684266 0
M  V30 60 H 2.548555 0.934185 3.858184 0
M  V30 61 H -0.018045 -0.635259 4.126637 0
M  V30 62 H 1.077054 0.035684 5.421427 0
M  V30 63 H -1.040077 1.473024 4.420540 0
M  V30 64 H 0.502809 2.222089 5.104317 0
M  V30 65 H -0.387826 2.927454 2.680117 0
M  V30 66 H 1.406265 2.494916 2.894986 0
M  V30 67 H -0.072884 1.291195 1.020080 0
M  V30 68 H -0.529900 0.277173 2.379521 0
M  V30 END ATOM
M  V30 BEGIN BOND
M  V30 1 1 1 2
M  V30 2 1 2 3
M  V30 3 1 2 4
M  V30 4 2 4 5
M  V30 5 1 4 6
M  V30 6 2 6 7
M  V30 7 1 7 8
M  V30 8 2 8 9
M  V30 9 1 9 10
M  V30 10 2 10 11
M  V30 11 1 11 12
M  V30 12 1 12 13
M  V30 13 2 13 14
M  V30 14 1 14 15
M  V30 15 2 15 16
M  V30 16 1 16 17
M  V30 17 2 17 18
M  V30 18 1 17 19
M  V30 19 1 19 20
M  V30 20 1 20 21
M  V30 21 1 21 22
M  V30 22 1 22 23
M  V30 23 1 23 24
M  V30 24 1 24 25
M  V30 25 1 16 26
M  V30 26 2 26 27
M  V30 27 1 11 28
M  V30 28 2 28 29
M  V30 29 1 29 30
M  V30 30 1 30 31
M  V30 31 1 31 32
M  V30 32 1 32 33
M  V30 33 1 33 34
M  V30 34 1 34 35
M  V30 35 1 35 36
M  V30 36 1 30 6
M  V30 37 1 36 31
M  V30 38 1 29 8
M  V30 39 1 27 13
M  V30 40 1 23 19
M  V30 41 1 25 21
M  V30 42 1 1 37
M  V30 43 1 1 38
M  V30 44 1 1 39
M  V30 45 1 3 40
M  V30 46 1 3 41
M  V30 47 1 3 42
M  V30 48 1 7 43
M  V30 49 1 9 44
M  V30 50 1 12 45
M  V30 51 1 14 46
M  V30 52 1 15 47
M  V30 53 1 20 48
M  V30 54 1 20 49
M  V30 55 1 21 50
M  V30 56 1 22 51
M  V30 57 1 22 52
M  V30 58 1 23 53
M  V30 59 1 24 54
M  V30 60 1 24 55
M  V30 61 1 25 56
M  V30 62 1 26 57
M  V30 63 1 31 58
M  V30 64 1 32 59
M  V30 65 1 32 60
M  V30 66 1 33 61
M  V30 67 1 33 62
M  V30 68 1 34 63
M  V30 69 1 34 64
M  V30 70 1 35 65
M  V30 71 1 35 66
M  V30 72 1 36 67
M  V30 73 1 36 68
M  V30 END BOND
M  V30 END CTAB
M  END
>  <Dataset>  (485) 
ChEMBL_Kinases

>  <Ligand_Instance>  (485) 
nan

>  <PDB_ID>  (485) 
nan

>  <Standardized_SMILES>  (485) 
CN(C)C(=O)c1cc2cnc(Nc3ccc(C(=O)N4CC5CC4CN5)cn3)nc2n1C1CCCCC1

>  <Name>  (485) 
nan

>  <Pocket>  (485) 
nan

>  <ATP_Site>  (485) 
nan

>  <Peripheral>  (485) 
nan

>  <Num_H_Atoms_ProtBoundConf>  (485) 
nan

>  <Num_Resolved_Atoms>  (485) 
nan

>  <Num_Not_Resolved_Atoms>  (485) 
nan

$$$$
CHEMBL3691609
     RDKit          3D

  0  0  0  0  0  0  0  0  0  0999 V3000
M  V30 BEGIN CTAB
M  V30 COUNTS 75 80 0 0 0
M  V30 BEGIN ATOM
M  V30 1 C 1.533306 -5.928808 1.684961 0
M  V30 2 N 2.515346 -6.015478 0.640676 0
M  V30 3 C 3.319970 -7.235402 0.538986 0
M  V30 4 C 2.816054 -5.012569 -0.353204 0
M  V30 5 O 3.636273 -4.975394 -1.296986 0
M  V30 6 C 2.005521 -3.810147 -0.231268 0
M  V30 7 C 0.629899 -3.763410 -0.180476 0
M  V30 8 C 0.172537 -2.472163 -0.063902 0
M  V30 9 C -1.020055 -1.808392 0.032510 0
M  V30 10 N -1.076352 -0.446115 0.144550 0
M  V30 11 C 0.094504 0.265658 0.159245 0
M  V30 12 N -0.062720 1.684594 0.297509 0
M  V30 13 C -1.382031 2.197547 0.502540 0
M  V30 14 C -1.642567 3.546175 0.639068 0
M  V30 15 C -2.935376 3.972322 0.853600 0
M  V30 16 C -4.002245 3.105897 0.940784 0
M  V30 17 C -5.411046 3.349701 1.168451 0
M  V30 18 O -5.481918 3.697116 2.373983 0
M  V30 19 N -6.549813 3.257244 0.323231 0
M  V30 20 C -6.507283 2.871598 -1.047735 0
M  V30 21 C -7.759334 2.232901 -1.554939 0
M  V30 22 C -7.828239 0.815865 -1.003361 0
M  V30 23 C -8.154204 1.117479 0.464042 0
M  V30 24 C -8.788918 2.490335 0.423601 0
M  V30 25 C -7.829250 3.574745 0.909308 0
M  V30 26 N -8.979566 2.786081 -0.997872 0
M  V30 27 C -3.702211 1.744031 0.796796 0
M  V30 28 N -2.430384 1.353962 0.587896 0
M  V30 29 N 1.279709 -0.356879 0.065707 0
M  V30 30 C 1.357262 -1.715486 -0.046068 0
M  V30 31 N 2.426364 -2.525012 -0.145382 0
M  V30 32 C 3.791048 -2.157466 -0.153298 0
M  V30 33 C 4.588244 -2.889781 0.735851 0
M  V30 34 C 5.945877 -2.672806 0.876510 0
M  V30 35 C 6.596037 -1.701944 0.130337 0
M  V30 36 C 8.044595 -1.387651 0.206684 0
M  V30 37 C 8.846548 -2.233938 -0.763816 0
M  V30 38 C 8.547524 -1.509518 1.619027 0
M  V30 39 C 8.201928 0.013765 -0.173251 0
M  V30 40 N 8.329272 1.150070 -0.460802 0
M  V30 41 C 5.801817 -0.967099 -0.761130 0
M  V30 42 C 4.456451 -1.198597 -0.884196 0
M  V30 43 H 1.842513 -6.576486 2.507958 0
M  V30 44 H 1.328104 -4.900891 2.043155 0
M  V30 45 H 0.553759 -6.313229 1.296379 0
M  V30 46 H 2.680804 -8.138877 0.561798 0
M  V30 47 H 3.914005 -7.295469 1.496220 0
M  V30 48 H 3.950999 -7.270487 -0.346025 0
M  V30 49 H -0.100646 -4.574016 -0.218163 0
M  V30 50 H -1.919569 -2.402810 0.016028 0
M  V30 51 H 0.739750 2.348579 0.253844 0
M  V30 52 H -0.857125 4.261626 0.579674 0
M  V30 53 H -3.237535 5.006040 0.973293 0
M  V30 54 H -6.235142 3.696640 -1.745970 0
M  V30 55 H -5.681990 2.114252 -1.177029 0
M  V30 56 H -7.838719 2.270845 -2.657758 0
M  V30 57 H -8.685628 0.333477 -1.507114 0
M  V30 58 H -6.877218 0.298148 -1.131863 0
M  V30 59 H -7.184522 1.129882 1.004085 0
M  V30 60 H -8.839685 0.337390 0.842946 0
M  V30 61 H -9.710867 2.486758 1.002250 0
M  V30 62 H -7.810668 3.633623 2.015592 0
M  V30 63 H -8.172134 4.525101 0.442876 0
M  V30 64 H -9.750953 2.161934 -1.369849 0
M  V30 65 H -4.392222 0.887692 0.831277 0
M  V30 66 H 4.213924 -3.675649 1.377677 0
M  V30 67 H 6.561612 -3.237165 1.562053 0
M  V30 68 H 9.710950 -2.650877 -0.224270 0
M  V30 69 H 8.197011 -3.023425 -1.203267 0
M  V30 70 H 9.219570 -1.620429 -1.613049 0
M  V30 71 H 8.374410 -2.480479 2.093659 0
M  V30 72 H 9.664821 -1.370048 1.558489 0
M  V30 73 H 8.118156 -0.645974 2.194143 0
M  V30 74 H 6.194276 -0.185756 -1.394355 0
M  V30 75 H 3.793503 -0.654069 -1.562006 0
M  V30 END ATOM
M  V30 BEGIN BOND
M  V30 1 1 1 2
M  V30 2 1 2 3
M  V30 3 1 2 4
M  V30 4 2 4 5
M  V30 5 1 4 6
M  V30 6 2 6 7
M  V30 7 1 7 8
M  V30 8 2 8 9
M  V30 9 1 9 10
M  V30 10 2 10 11
M  V30 11 1 11 12
M  V30 12 1 12 13
M  V30 13 2 13 14
M  V30 14 1 14 15
M  V30 15 2 15 16
M  V30 16 1 16 17
M  V30 17 2 17 18
M  V30 18 1 17 19
M  V30 19 1 19 20
M  V30 20 1 20 21
M  V30 21 1 21 22
M  V30 22 1 22 23
M  V30 23 1 23 24
M  V30 24 1 24 25
M  V30 25 1 24 26
M  V30 26 1 16 27
M  V30 27 2 27 28
M  V30 28 1 11 29
M  V30 29 2 29 30
M  V30 30 1 30 31
M  V30 31 1 31 32
M  V30 32 2 32 33
M  V30 33 1 33 34
M  V30 34 2 34 35
M  V30 35 1 35 36
M  V30 36 1 36 37
M  V30 37 1 36 38
M  V30 38 1 36 39
M  V30 39 3 39 40
M  V30 40 1 35 41
M  V30 41 2 41 42
M  V30 42 1 31 6
M  V30 43 1 42 32
M  V30 44 1 30 8
M  V30 45 1 28 13
M  V30 46 1 25 19
M  V30 47 1 26 21
M  V30 48 1 1 43
M  V30 49 1 1 44
M  V30 50 1 1 45
M  V30 51 1 3 46
M  V30 52 1 3 47
M  V30 53 1 3 48
M  V30 54 1 7 49
M  V30 55 1 9 50
M  V30 56 1 12 51
M  V30 57 1 14 52
M  V30 58 1 15 53
M  V30 59 1 20 54
M  V30 60 1 20 55
M  V30 61 1 21 56
M  V30 62 1 22 57
M  V30 63 1 22 58
M  V30 64 1 23 59
M  V30 65 1 23 60
M  V30 66 1 24 61
M  V30 67 1 25 62
M  V30 68 1 25 63
M  V30 69 1 26 64
M  V30 70 1 27 65
M  V30 71 1 33 66
M  V30 72 1 34 67
M  V30 73 1 37 68
M  V30 74 1 37 69
M  V30 75 1 37 70
M  V30 76 1 38 71
M  V30 77 1 38 72
M  V30 78 1 38 73
M  V30 79 1 41 74
M  V30 80 1 42 75
M  V30 END BOND
M  V30 END CTAB
M  END
>  <Dataset>  (486) 
ChEMBL_Kinases

>  <Ligand_Instance>  (486) 
nan

>  <PDB_ID>  (486) 
nan

>  <Standardized_SMILES>  (486) 
CN(C)C(=O)c1cc2cnc(Nc3ccc(C(=O)N4CC5CCC(C4)N5)cn3)nc2n1-c1ccc(C(C)(C)C#N)cc1

>  <Name>  (486) 
nan

>  <Pocket>  (486) 
nan

>  <ATP_Site>  (486) 
nan

>  <Peripheral>  (486) 
nan

>  <Num_H_Atoms_ProtBoundConf>  (486) 
nan

>  <Num_Resolved_Atoms>  (486) 
nan

>  <Num_Not_Resolved_Atoms>  (486) 
nan

$$$$
CHEMBL3691610
     RDKit          3D

  0  0  0  0  0  0  0  0  0  0999 V3000
M  V30 BEGIN CTAB
M  V30 COUNTS 71 76 0 0 0
M  V30 BEGIN ATOM
M  V30 1 C 8.049467 -0.938900 0.603830 0
M  V30 2 N 6.917061 -0.969837 -0.284340 0
M  V30 3 C 7.277535 -1.399944 -1.619941 0
M  V30 4 C 5.679662 -0.581245 0.299066 0
M  V30 5 O 5.796708 -0.274212 1.512483 0
M  V30 6 C 4.351865 -0.495784 -0.295271 0
M  V30 7 C 3.831763 -1.555569 -1.009014 0
M  V30 8 C 2.570078 -1.219830 -1.454904 0
M  V30 9 C 1.568230 -1.842578 -2.198787 0
M  V30 10 N 0.424769 -1.139528 -2.422742 0
M  V30 11 C 0.243698 0.106948 -1.956183 0
M  V30 12 N -1.005703 0.776142 -2.238031 0
M  V30 13 C -2.066103 0.626570 -1.283792 0
M  V30 14 C -3.285570 1.227532 -1.478221 0
M  V30 15 C -4.317378 1.096740 -0.568930 0
M  V30 16 C -4.113206 0.340851 0.565317 0
M  V30 17 C -5.011096 0.039193 1.671291 0
M  V30 18 O -5.180153 0.773211 2.704986 0
M  V30 19 N -5.746115 -1.171358 1.570359 0
M  V30 20 C -5.582379 -2.020652 0.418008 0
M  V30 21 C -5.886849 -3.470351 0.682975 0
M  V30 22 C -5.174054 -4.065679 1.847059 0
M  V30 23 C -6.186611 -4.962613 2.571218 0
M  V30 24 C -7.028754 -3.925278 3.293149 0
M  V30 25 C -6.120455 -2.730025 3.420925 0
M  V30 26 C -6.658494 -1.535262 2.654680 0
M  V30 27 N -4.830810 -3.149632 2.898269 0
M  V30 28 C -2.875279 -0.272076 0.767073 0
M  V30 29 N -1.895681 -0.105186 -0.168308 0
M  V30 30 N 1.225053 0.699294 -1.235562 0
M  V30 31 C 2.382132 0.060510 -0.976919 0
M  V30 32 N 3.440987 0.508594 -0.280139 0
M  V30 33 C 3.734028 1.737755 0.406373 0
M  V30 34 C 4.929481 2.384678 -0.250175 0
M  V30 35 C 4.282876 2.878297 -1.550492 0
M  V30 36 C 2.916672 3.395825 -1.085847 0
M  V30 37 C 2.674643 2.778562 0.238002 0
M  V30 38 H 8.987905 -0.607265 0.093072 0
M  V30 39 H 8.238061 -1.952010 1.032703 0
M  V30 40 H 7.906918 -0.271770 1.478017 0
M  V30 41 H 7.849506 -0.596611 -2.121331 0
M  V30 42 H 7.945715 -2.291563 -1.562717 0
M  V30 43 H 6.324337 -1.614698 -2.166010 0
M  V30 44 H 4.306907 -2.522672 -1.212960 0
M  V30 45 H 1.741551 -2.838354 -2.557933 0
M  V30 46 H -1.186139 1.357008 -3.085170 0
M  V30 47 H -3.502112 1.830711 -2.346709 0
M  V30 48 H -5.302489 1.512483 -0.612032 0
M  V30 49 H -6.317187 -1.701282 -0.381413 0
M  V30 50 H -4.542604 -1.916187 0.007112 0
M  V30 51 H -5.538761 -4.016845 -0.242818 0
M  V30 52 H -6.987601 -3.628085 0.702742 0
M  V30 53 H -4.297407 -4.675749 1.511184 0
M  V30 54 H -5.642659 -5.640565 3.284032 0
M  V30 55 H -6.734995 -5.520012 1.808624 0
M  V30 56 H -7.935227 -3.731963 2.691502 0
M  V30 57 H -7.378586 -4.298185 4.277839 0
M  V30 58 H -5.976516 -2.474352 4.489088 0
M  V30 59 H -7.655765 -1.767085 2.240664 0
M  V30 60 H -6.731938 -0.675333 3.354549 0
M  V30 61 H -4.344948 -3.709165 3.633279 0
M  V30 62 H -2.560852 -0.893918 1.601823 0
M  V30 63 H 3.936631 1.541252 1.495527 0
M  V30 64 H 5.270319 3.287707 0.316224 0
M  V30 65 H 5.738447 1.718149 -0.527751 0
M  V30 66 H 4.892980 3.647220 -2.030986 0
M  V30 67 H 4.121372 1.978747 -2.176820 0
M  V30 68 H 2.171398 3.229524 -1.864622 0
M  V30 69 H 3.010273 4.525379 -1.024313 0
M  V30 70 H 1.647416 2.397003 0.388326 0
M  V30 71 H 2.851310 3.583893 1.009419 0
M  V30 END ATOM
M  V30 BEGIN BOND
M  V30 1 1 1 2
M  V30 2 1 2 3
M  V30 3 1 2 4
M  V30 4 2 4 5
M  V30 5 1 4 6
M  V30 6 2 6 7
M  V30 7 1 7 8
M  V30 8 2 8 9
M  V30 9 1 9 10
M  V30 10 2 10 11
M  V30 11 1 11 12
M  V30 12 1 12 13
M  V30 13 2 13 14
M  V30 14 1 14 15
M  V30 15 2 15 16
M  V30 16 1 16 17
M  V30 17 2 17 18
M  V30 18 1 17 19
M  V30 19 1 19 20
M  V30 20 1 20 21
M  V30 21 1 21 22
M  V30 22 1 22 23
M  V30 23 1 23 24
M  V30 24 1 24 25
M  V30 25 1 25 26
M  V30 26 1 25 27
M  V30 27 1 16 28
M  V30 28 2 28 29
M  V30 29 1 11 30
M  V30 30 2 30 31
M  V30 31 1 31 32
M  V30 32 1 32 33
M  V30 33 1 33 34
M  V30 34 1 34 35
M  V30 35 1 35 36
M  V30 36 1 36 37
M  V30 37 1 32 6
M  V30 38 1 37 33
M  V30 39 1 31 8
M  V30 40 1 29 13
M  V30 41 1 26 19
M  V30 42 1 27 22
M  V30 43 1 1 38
M  V30 44 1 1 39
M  V30 45 1 1 40
M  V30 46 1 3 41
M  V30 47 1 3 42
M  V30 48 1 3 43
M  V30 49 1 7 44
M  V30 50 1 9 45
M  V30 51 1 12 46
M  V30 52 1 14 47
M  V30 53 1 15 48
M  V30 54 1 20 49
M  V30 55 1 20 50
M  V30 56 1 21 51
M  V30 57 1 21 52
M  V30 58 1 22 53
M  V30 59 1 23 54
M  V30 60 1 23 55
M  V30 61 1 24 56
M  V30 62 1 24 57
M  V30 63 1 25 58
M  V30 64 1 26 59
M  V30 65 1 26 60
M  V30 66 1 27 61
M  V30 67 1 28 62
M  V30 68 1 33 63
M  V30 69 1 34 64
M  V30 70 1 34 65
M  V30 71 1 35 66
M  V30 72 1 35 67
M  V30 73 1 36 68
M  V30 74 1 36 69
M  V30 75 1 37 70
M  V30 76 1 37 71
M  V30 END BOND
M  V30 END CTAB
M  END
>  <Dataset>  (487) 
ChEMBL_Kinases

>  <Ligand_Instance>  (487) 
nan

>  <PDB_ID>  (487) 
nan

>  <Standardized_SMILES>  (487) 
CN(C)C(=O)c1cc2cnc(Nc3ccc(C(=O)N4CCC5CCC(C4)N5)cn3)nc2n1C1CCCC1

>  <Name>  (487) 
nan

>  <Pocket>  (487) 
nan

>  <ATP_Site>  (487) 
nan

>  <Peripheral>  (487) 
nan

>  <Num_H_Atoms_ProtBoundConf>  (487) 
nan

>  <Num_Resolved_Atoms>  (487) 
nan

>  <Num_Not_Resolved_Atoms>  (487) 
nan

$$$$
CHEMBL3691611
     RDKit          3D

  0  0  0  0  0  0  0  0  0  0999 V3000
M  V30 BEGIN CTAB
M  V30 COUNTS 69 74 0 0 0
M  V30 BEGIN ATOM
M  V30 1 C 7.107404 0.973720 1.150079 0
M  V30 2 N 5.804525 0.790565 0.551236 0
M  V30 3 C 5.376846 -0.590326 0.275197 0
M  V30 4 C 4.938105 1.882032 0.217773 0
M  V30 5 O 6.033931 2.089535 0.720329 0
M  V30 6 C 3.643619 1.779795 -0.367933 0
M  V30 7 C 3.611078 1.377596 -1.684212 0
M  V30 8 C 2.280953 1.353826 -2.017324 0
M  V30 9 C 1.614890 1.029119 -3.190163 0
M  V30 10 N 0.266123 1.105474 -3.183351 0
M  V30 11 C -0.368054 1.485895 -2.062596 0
M  V30 12 N -1.790809 1.606819 -1.816936 0
M  V30 13 C -2.398999 0.541194 -1.053175 0
M  V30 14 C -3.789766 0.640944 -0.811511 0
M  V30 15 C -4.184479 -0.438766 -0.059679 0
M  V30 16 C -3.506601 -1.502968 0.448001 0
M  V30 17 C -3.958032 -2.611563 1.238915 0
M  V30 18 O -3.599208 -2.229624 2.410151 0
M  V30 19 N -4.615642 -3.862417 1.083875 0
M  V30 20 C -5.066398 -4.375462 -0.196144 0
M  V30 21 C -4.818109 -5.868270 -0.349526 0
M  V30 22 C -3.340216 -6.057172 -0.661791 0
M  V30 23 O -2.626308 -5.448359 0.367638 0
M  V30 24 C -2.860439 -6.058827 1.604156 0
M  V30 25 C -4.339429 -6.070314 1.937412 0
M  V30 26 C -4.825318 -4.661833 2.266255 0
M  V30 27 N -5.111138 -6.609064 0.849989 0
M  V30 28 C -2.154888 -1.468529 0.130915 0
M  V30 29 N -1.611664 -0.477828 -0.598372 0
M  V30 30 N 0.284535 1.797701 -0.937115 0
M  V30 31 C 1.624722 1.748620 -0.857814 0
M  V30 32 N 2.463026 2.015994 0.171520 0
M  V30 33 C 2.130662 2.436937 1.489289 0
M  V30 34 C 3.016360 3.517359 2.066025 0
M  V30 35 C 2.301404 4.849204 1.824254 0
M  V30 36 C 1.117478 4.453858 0.929806 0
M  V30 37 C 0.776223 3.122322 1.604984 0
M  V30 38 H 7.121484 1.516554 2.092467 0
M  V30 39 H 7.566195 -0.030106 1.355379 0
M  V30 40 H 7.819201 1.468877 0.459904 0
M  V30 41 H 6.281734 -1.225346 0.070183 0
M  V30 42 H 4.755934 -0.678816 -0.619224 0
M  V30 43 H 4.843643 -1.042409 1.129717 0
M  V30 44 H 4.372704 1.110951 -2.407953 0
M  V30 45 H 2.133035 0.728882 -4.082019 0
M  V30 46 H -2.357949 2.404256 -2.158164 0
M  V30 47 H -4.416585 1.423939 -1.153912 0
M  V30 48 H -5.260467 -0.447964 0.178232 0
M  V30 49 H -6.158096 -4.196033 -0.280082 0
M  V30 50 H -4.481293 -3.797287 -0.954631 0
M  V30 51 H -5.398964 -6.255927 -1.220222 0
M  V30 52 H -3.077130 -7.126212 -0.798143 0
M  V30 53 H -3.069460 -5.495713 -1.594235 0
M  V30 54 H -2.463781 -7.080024 1.582829 0
M  V30 55 H -2.319931 -5.473944 2.362135 0
M  V30 56 H -4.499862 -6.687731 2.834291 0
M  V30 57 H -4.216499 -4.302514 3.126652 0
M  V30 58 H -5.884605 -4.678111 2.546915 0
M  V30 59 H -6.100774 -6.661456 1.107889 0
M  V30 60 H -1.378401 -2.194307 0.407086 0
M  V30 61 H 2.075671 1.564109 2.177097 0
M  V30 62 H 3.993147 3.624928 1.626063 0
M  V30 63 H 3.148770 3.351258 3.172489 0
M  V30 64 H 1.851789 5.239780 2.767719 0
M  V30 65 H 2.940746 5.595086 1.332442 0
M  V30 66 H 0.305897 5.182006 0.957889 0
M  V30 67 H 1.469374 4.199935 -0.092956 0
M  V30 68 H -0.061918 2.608753 1.172572 0
M  V30 69 H 0.648844 3.281617 2.715760 0
M  V30 END ATOM
M  V30 BEGIN BOND
M  V30 1 1 1 2
M  V30 2 1 2 3
M  V30 3 1 2 4
M  V30 4 2 4 5
M  V30 5 1 4 6
M  V30 6 2 6 7
M  V30 7 1 7 8
M  V30 8 2 8 9
M  V30 9 1 9 10
M  V30 10 2 10 11
M  V30 11 1 11 12
M  V30 12 1 12 13
M  V30 13 2 13 14
M  V30 14 1 14 15
M  V30 15 2 15 16
M  V30 16 1 16 17
M  V30 17 2 17 18
M  V30 18 1 17 19
M  V30 19 1 19 20
M  V30 20 1 20 21
M  V30 21 1 21 22
M  V30 22 1 22 23
M  V30 23 1 23 24
M  V30 24 1 24 25
M  V30 25 1 25 26
M  V30 26 1 25 27
M  V30 27 1 16 28
M  V30 28 2 28 29
M  V30 29 1 11 30
M  V30 30 2 30 31
M  V30 31 1 31 32
M  V30 32 1 32 33
M  V30 33 1 33 34
M  V30 34 1 34 35
M  V30 35 1 35 36
M  V30 36 1 36 37
M  V30 37 1 32 6
M  V30 38 1 37 33
M  V30 39 1 31 8
M  V30 40 1 29 13
M  V30 41 1 26 19
M  V30 42 1 27 21
M  V30 43 1 1 38
M  V30 44 1 1 39
M  V30 45 1 1 40
M  V30 46 1 3 41
M  V30 47 1 3 42
M  V30 48 1 3 43
M  V30 49 1 7 44
M  V30 50 1 9 45
M  V30 51 1 12 46
M  V30 52 1 14 47
M  V30 53 1 15 48
M  V30 54 1 20 49
M  V30 55 1 20 50
M  V30 56 1 21 51
M  V30 57 1 22 52
M  V30 58 1 22 53
M  V30 59 1 24 54
M  V30 60 1 24 55
M  V30 61 1 25 56
M  V30 62 1 26 57
M  V30 63 1 26 58
M  V30 64 1 27 59
M  V30 65 1 28 60
M  V30 66 1 33 61
M  V30 67 1 34 62
M  V30 68 1 34 63
M  V30 69 1 35 64
M  V30 70 1 35 65
M  V30 71 1 36 66
M  V30 72 1 36 67
M  V30 73 1 37 68
M  V30 74 1 37 69
M  V30 END BOND
M  V30 END CTAB
M  END
>  <Dataset>  (488) 
ChEMBL_Kinases

>  <Ligand_Instance>  (488) 
nan

>  <PDB_ID>  (488) 
nan

>  <Standardized_SMILES>  (488) 
CN(C)C(=O)c1cc2cnc(Nc3ccc(C(=O)N4CC5COCC(C4)N5)cn3)nc2n1C1CCCC1

>  <Name>  (488) 
nan

>  <Pocket>  (488) 
nan

>  <ATP_Site>  (488) 
nan

>  <Peripheral>  (488) 
nan

>  <Num_H_Atoms_ProtBoundConf>  (488) 
nan

>  <Num_Resolved_Atoms>  (488) 
nan

>  <Num_Not_Resolved_Atoms>  (488) 
nan

$$$$
CHEMBL3691612
     RDKit          3D

  0  0  0  0  0  0  0  0  0  0999 V3000
M  V30 BEGIN CTAB
M  V30 COUNTS 71 76 0 0 0
M  V30 BEGIN ATOM
M  V30 1 C 2.944132 1.917878 5.921467 0
M  V30 2 N 2.611170 2.269214 4.554526 0
M  V30 3 C 3.766499 2.086350 3.660625 0
M  V30 4 C 1.292397 2.729827 4.198422 0
M  V30 5 O 0.599423 2.747461 5.264902 0
M  V30 6 C 1.213932 3.005400 2.783051 0
M  V30 7 C 1.678598 4.214164 2.258086 0
M  V30 8 C 1.458654 4.130883 0.902877 0
M  V30 9 C 1.677117 4.945855 -0.208762 0
M  V30 10 N 1.317788 4.493249 -1.423448 0
M  V30 11 C 0.762281 3.305669 -1.629286 0
M  V30 12 N 0.393138 2.703236 -2.852985 0
M  V30 13 C -0.405871 1.574026 -3.100940 0
M  V30 14 C -1.107113 0.890783 -2.127629 0
M  V30 15 C -1.858717 -0.244312 -2.372912 0
M  V30 16 C -1.929153 -0.745335 -3.656218 0
M  V30 17 C -2.673376 -1.932533 -4.035958 0
M  V30 18 O -3.477024 -1.673764 -4.947792 0
M  V30 19 N -2.427395 -3.193769 -3.374197 0
M  V30 20 C -1.448550 -3.226273 -2.339031 0
M  V30 21 C -0.704452 -4.526647 -2.188238 0
M  V30 22 C -0.416054 -5.249664 -3.457249 0 CFG=2
M  V30 23 C -0.083290 -4.360175 -4.622471 0
M  V30 24 C -1.307126 -4.485080 -5.487621 0
M  V30 25 C -2.329848 -5.262944 -4.699162 0 CFG=2
M  V30 26 C -3.159963 -4.369816 -3.776631 0
M  V30 27 N -1.518716 -6.103848 -3.871747 0
M  V30 28 C -1.213760 -0.029612 -4.591573 0
M  V30 29 N -0.467157 1.092372 -4.367769 0
M  V30 30 N 0.564244 2.546738 -0.558452 0
M  V30 31 C 0.888214 2.912730 0.679365 0
M  V30 32 N 0.729000 2.196164 1.843406 0
M  V30 33 C 0.182181 0.885418 1.911658 0
M  V30 34 C -1.090489 0.730558 2.692790 0
M  V30 35 C -1.090057 -0.731970 3.171238 0
M  V30 36 C 0.124636 -1.363145 2.490950 0
M  V30 37 C 1.074882 -0.152004 2.546127 0
M  V30 38 H 2.346562 2.420427 6.686348 0
M  V30 39 H 2.817757 0.808324 6.095488 0
M  V30 40 H 4.009565 2.106770 6.179843 0
M  V30 41 H 3.549476 2.447651 2.650518 0
M  V30 42 H 4.083193 1.046179 3.706900 0
M  V30 43 H 4.603732 2.707543 4.073516 0
M  V30 44 H 2.118378 5.069969 2.720376 0
M  V30 45 H 2.120366 5.899951 -0.068167 0
M  V30 46 H 0.811531 3.228720 -3.644901 0
M  V30 47 H -1.134001 1.191659 -1.112742 0
M  V30 48 H -2.396359 -0.747608 -1.602750 0
M  V30 49 H -0.739603 -2.410083 -2.492684 0
M  V30 50 H -1.955370 -3.047998 -1.356118 0
M  V30 51 H -1.219992 -5.250919 -1.511810 0
M  V30 52 H 0.262579 -4.301042 -1.677461 0
M  V30 53 H 0.457309 -5.912414 -3.284462 0
M  V30 54 H 0.058041 -3.324633 -4.250762 0
M  V30 55 H 0.836189 -4.660092 -5.146211 0
M  V30 56 H -1.701740 -3.543561 -5.870979 0
M  V30 57 H -1.061090 -5.089150 -6.413018 0
M  V30 58 H -2.994208 -5.813923 -5.391130 0
M  V30 59 H -4.112615 -4.103952 -4.272061 0
M  V30 60 H -3.422359 -5.008324 -2.906573 0
M  V30 61 H -1.190929 -6.964062 -4.347838 0
M  V30 62 H -1.212788 -0.360533 -5.634320 0
M  V30 63 H -0.038652 0.478865 0.886451 0
M  V30 64 H -1.079959 1.377389 3.605685 0
M  V30 65 H -2.002823 0.904246 2.062126 0
M  V30 66 H -2.035833 -1.199323 2.914794 0
M  V30 67 H -0.922360 -0.772031 4.282077 0
M  V30 68 H -0.083460 -1.677354 1.458388 0
M  V30 69 H 0.551763 -2.175053 3.103360 0
M  V30 70 H 2.014167 -0.332553 2.032006 0
M  V30 71 H 1.277934 -0.009714 3.602748 0
M  V30 END ATOM
M  V30 BEGIN BOND
M  V30 1 1 1 2
M  V30 2 1 2 3
M  V30 3 1 2 4
M  V30 4 2 4 5
M  V30 5 1 4 6
M  V30 6 2 6 7
M  V30 7 1 7 8
M  V30 8 2 8 9
M  V30 9 1 9 10
M  V30 10 2 10 11
M  V30 11 1 11 12
M  V30 12 1 12 13
M  V30 13 2 13 14
M  V30 14 1 14 15
M  V30 15 2 15 16
M  V30 16 1 16 17
M  V30 17 2 17 18
M  V30 18 1 17 19
M  V30 19 1 19 20
M  V30 20 1 20 21
M  V30 21 1 21 22
M  V30 22 1 22 23
M  V30 23 1 23 24
M  V30 24 1 24 25
M  V30 25 1 25 26
M  V30 26 1 25 27
M  V30 27 1 16 28
M  V30 28 2 28 29
M  V30 29 1 11 30
M  V30 30 2 30 31
M  V30 31 1 31 32
M  V30 32 1 32 33
M  V30 33 1 33 34
M  V30 34 1 34 35
M  V30 35 1 35 36
M  V30 36 1 36 37
M  V30 37 1 32 6
M  V30 38 1 37 33
M  V30 39 1 31 8
M  V30 40 1 29 13
M  V30 41 1 26 19
M  V30 42 1 27 22
M  V30 43 1 1 38
M  V30 44 1 1 39
M  V30 45 1 1 40
M  V30 46 1 3 41
M  V30 47 1 3 42
M  V30 48 1 3 43
M  V30 49 1 7 44
M  V30 50 1 9 45
M  V30 51 1 12 46
M  V30 52 1 14 47
M  V30 53 1 15 48
M  V30 54 1 20 49
M  V30 55 1 20 50
M  V30 56 1 21 51
M  V30 57 1 21 52
M  V30 58 1 22 53 CFG=1
M  V30 59 1 23 54
M  V30 60 1 23 55
M  V30 61 1 24 56
M  V30 62 1 24 57
M  V30 63 1 25 58 CFG=3
M  V30 64 1 26 59
M  V30 65 1 26 60
M  V30 66 1 27 61
M  V30 67 1 28 62
M  V30 68 1 33 63
M  V30 69 1 34 64
M  V30 70 1 34 65
M  V30 71 1 35 66
M  V30 72 1 35 67
M  V30 73 1 36 68
M  V30 74 1 36 69
M  V30 75 1 37 70
M  V30 76 1 37 71
M  V30 END BOND
M  V30 END CTAB
M  END
>  <Dataset>  (489) 
ChEMBL_Kinases

>  <Ligand_Instance>  (489) 
nan

>  <PDB_ID>  (489) 
nan

>  <Standardized_SMILES>  (489) 
CN(C)C(=O)c1cc2cnc(Nc3ccc(C(=O)N4CC[C@@H]5CC[C@H](C4)N5)cn3)nc2n1C1CCCC1

>  <Name>  (489) 
nan

>  <Pocket>  (489) 
nan

>  <ATP_Site>  (489) 
nan

>  <Peripheral>  (489) 
nan

>  <Num_H_Atoms_ProtBoundConf>  (489) 
nan

>  <Num_Resolved_Atoms>  (489) 
nan

>  <Num_Not_Resolved_Atoms>  (489) 
nan

$$$$
CHEMBL3691627
     RDKit          3D

  0  0  0  0  0  0  0  0  0  0999 V3000
M  V30 BEGIN CTAB
M  V30 COUNTS 68 73 0 0 0
M  V30 BEGIN ATOM
M  V30 1 C 4.257631 -2.109128 1.762700 0
M  V30 2 N 5.300748 -1.465016 0.951037 0
M  V30 3 C 6.401078 -2.366554 0.643383 0
M  V30 4 C 5.300728 -0.098385 0.469445 0
M  V30 5 O 6.312187 0.255175 -0.228482 0
M  V30 6 C 4.114017 0.637362 0.883524 0
M  V30 7 C 4.311857 1.654037 1.817909 0
M  V30 8 C 3.064449 2.208873 2.091716 0
M  V30 9 C 2.532458 3.201900 2.883546 0
M  V30 10 N 1.214611 3.482094 2.910341 0
M  V30 11 C 0.372901 2.770960 2.140162 0
M  V30 12 N -1.038738 2.921499 2.003910 0
M  V30 13 C -1.860141 1.757932 1.788747 0
M  V30 14 C -3.197720 1.727215 1.560584 0
M  V30 15 C -3.851327 0.511181 1.415361 0
M  V30 16 C -3.208229 -0.718114 1.489914 0
M  V30 17 N -3.919361 -1.947688 1.312286 0
M  V30 18 C -5.283360 -1.877950 0.852241 0
M  V30 19 C -5.675195 -3.114515 0.115198 0
M  V30 20 C -6.286445 -2.669445 -1.230390 0
M  V30 21 N -5.126133 -2.230832 -1.945103 0
M  V30 22 C -3.977112 -2.984766 -1.465939 0
M  V30 23 C -4.517490 -3.903458 -0.388351 0
M  V30 24 C -3.524185 -4.306355 0.642713 0
M  V30 25 C -3.237207 -3.187626 1.589539 0
M  V30 26 O -2.465596 -3.270634 2.572549 0
M  V30 27 C -1.854506 -0.619982 1.722864 0
M  V30 28 N -1.235910 0.551508 1.861156 0
M  V30 29 N 0.899714 1.805700 1.369732 0
M  V30 30 C 2.202387 1.477906 1.294514 0
M  V30 31 N 2.816895 0.509415 0.541192 0
M  V30 32 C 2.218327 -0.377263 -0.401221 0
M  V30 33 C 0.999358 0.189221 -1.090381 0
M  V30 34 C 1.589972 1.250934 -1.997154 0
M  V30 35 C 3.072155 0.892246 -2.159603 0
M  V30 36 C 3.106690 -0.546377 -1.645228 0
M  V30 37 H 4.719573 -2.657882 2.585801 0
M  V30 38 H 3.721031 -2.830370 1.095704 0
M  V30 39 H 3.534853 -1.365091 2.119347 0
M  V30 40 H 6.208969 -2.847331 -0.332450 0
M  V30 41 H 7.307606 -1.695246 0.623221 0
M  V30 42 H 6.538037 -3.115630 1.424420 0
M  V30 43 H 5.200129 2.028546 2.303714 0
M  V30 44 H 3.213255 3.760162 3.493036 0
M  V30 45 H -1.611284 3.815272 2.038861 0
M  V30 46 H -3.682887 2.689576 1.503924 0
M  V30 47 H -4.906034 0.600374 1.245468 0
M  V30 48 H -6.003530 -1.763242 1.694736 0
M  V30 49 H -5.328487 -1.011405 0.158543 0
M  V30 50 H -6.416593 -3.730293 0.674325 0
M  V30 51 H -6.994836 -1.836467 -1.020954 0
M  V30 52 H -6.777230 -3.487356 -1.759666 0
M  V30 53 H -4.983481 -1.190866 -1.850397 0
M  V30 54 H -3.167714 -2.330731 -1.064096 0
M  V30 55 H -3.580079 -3.550956 -2.338116 0
M  V30 56 H -4.912438 -4.797294 -0.954060 0
M  V30 57 H -2.595279 -4.635176 0.101427 0
M  V30 58 H -3.879332 -5.190831 1.199442 0
M  V30 59 H -1.251626 -1.485767 1.796380 0
M  V30 60 H 1.955389 -1.361698 0.011102 0
M  V30 61 H 0.186769 0.511073 -0.473156 0
M  V30 62 H 0.638164 -0.613203 -1.769302 0
M  V30 63 H 1.161040 1.231494 -3.023031 0
M  V30 64 H 1.451916 2.284865 -1.614651 0
M  V30 65 H 3.396018 0.956206 -3.219732 0
M  V30 66 H 3.645565 1.530126 -1.465407 0
M  V30 67 H 2.485602 -1.159480 -2.337689 0
M  V30 68 H 4.080181 -0.943315 -1.446384 0
M  V30 END ATOM
M  V30 BEGIN BOND
M  V30 1 1 1 2
M  V30 2 1 2 3
M  V30 3 1 2 4
M  V30 4 2 4 5
M  V30 5 1 4 6
M  V30 6 2 6 7
M  V30 7 1 7 8
M  V30 8 2 8 9
M  V30 9 1 9 10
M  V30 10 2 10 11
M  V30 11 1 11 12
M  V30 12 1 12 13
M  V30 13 2 13 14
M  V30 14 1 14 15
M  V30 15 2 15 16
M  V30 16 1 16 17
M  V30 17 1 17 18
M  V30 18 1 18 19
M  V30 19 1 19 20
M  V30 20 1 20 21
M  V30 21 1 21 22
M  V30 22 1 22 23
M  V30 23 1 23 24
M  V30 24 1 24 25
M  V30 25 2 25 26
M  V30 26 1 16 27
M  V30 27 2 27 28
M  V30 28 1 11 29
M  V30 29 2 29 30
M  V30 30 1 30 31
M  V30 31 1 31 32
M  V30 32 1 32 33
M  V30 33 1 33 34
M  V30 34 1 34 35
M  V30 35 1 35 36
M  V30 36 1 31 6
M  V30 37 1 36 32
M  V30 38 1 30 8
M  V30 39 1 28 13
M  V30 40 1 25 17
M  V30 41 1 23 19
M  V30 42 1 1 37
M  V30 43 1 1 38
M  V30 44 1 1 39
M  V30 45 1 3 40
M  V30 46 1 3 41
M  V30 47 1 3 42
M  V30 48 1 7 43
M  V30 49 1 9 44
M  V30 50 1 12 45
M  V30 51 1 14 46
M  V30 52 1 15 47
M  V30 53 1 18 48
M  V30 54 1 18 49
M  V30 55 1 19 50
M  V30 56 1 20 51
M  V30 57 1 20 52
M  V30 58 1 21 53
M  V30 59 1 22 54
M  V30 60 1 22 55
M  V30 61 1 23 56
M  V30 62 1 24 57
M  V30 63 1 24 58
M  V30 64 1 27 59
M  V30 65 1 32 60
M  V30 66 1 33 61
M  V30 67 1 33 62
M  V30 68 1 34 63
M  V30 69 1 34 64
M  V30 70 1 35 65
M  V30 71 1 35 66
M  V30 72 1 36 67
M  V30 73 1 36 68
M  V30 END BOND
M  V30 END CTAB
M  END
>  <Dataset>  (490) 
ChEMBL_Kinases

>  <Ligand_Instance>  (490) 
nan

>  <PDB_ID>  (490) 
nan

>  <Standardized_SMILES>  (490) 
CN(C)C(=O)c1cc2cnc(Nc3ccc(N4CC5CNCC5CC4=O)cn3)nc2n1C1CCCC1

>  <Name>  (490) 
nan

>  <Pocket>  (490) 
nan

>  <ATP_Site>  (490) 
nan

>  <Peripheral>  (490) 
nan

>  <Num_H_Atoms_ProtBoundConf>  (490) 
nan

>  <Num_Resolved_Atoms>  (490) 
nan

>  <Num_Not_Resolved_Atoms>  (490) 
nan

$$$$
CHEMBL3691614
     RDKit          3D

  0  0  0  0  0  0  0  0  0  0999 V3000
M  V30 BEGIN CTAB
M  V30 COUNTS 72 77 0 0 0
M  V30 BEGIN ATOM
M  V30 1 C 6.842303 0.107115 3.558924 0
M  V30 2 N 5.834158 0.385977 2.535116 0
M  V30 3 C 5.481271 -0.714680 1.638166 0
M  V30 4 C 5.241797 1.684554 2.443981 0
M  V30 5 O 5.657219 2.515313 3.292666 0
M  V30 6 C 4.247521 1.868816 1.392209 0
M  V30 7 C 4.660961 1.705924 0.071776 0
M  V30 8 C 3.590481 1.920791 -0.758112 0
M  V30 9 C 3.347348 1.913438 -2.102817 0
M  V30 10 N 2.130662 2.179347 -2.607224 0
M  V30 11 C 1.088502 2.468146 -1.773106 0
M  V30 12 N -0.273043 2.770428 -2.048563 0
M  V30 13 C -1.170683 1.650641 -2.091278 0
M  V30 14 C -0.634054 0.397834 -1.874598 0
M  V30 15 C -1.575991 -0.635703 -1.925613 0
M  V30 16 C -2.882951 -0.314641 -2.175394 0
M  V30 17 C -3.782385 -1.443445 -2.195014 0
M  V30 18 O -3.661189 -1.817998 -3.414048 0
M  V30 19 N -4.710288 -2.405622 -1.748001 0
M  V30 20 C -5.198584 -3.396412 -2.644839 0
M  V30 21 C -4.613038 -4.756221 -2.470760 0
M  V30 22 C -3.725406 -5.024463 -1.341248 0
M  V30 23 C -4.347864 -6.133319 -0.472396 0
M  V30 24 O -5.603036 -5.625760 -0.130972 0
M  V30 25 C -5.525531 -4.541155 0.727234 0
M  V30 26 C -4.508322 -3.510146 0.370872 0
M  V30 27 C -5.089606 -2.292933 -0.331616 0
M  V30 28 N -3.420065 -3.998608 -0.413997 0
M  V30 29 C -3.389586 0.960072 -2.389648 0
M  V30 30 N -2.466280 1.939774 -2.336056 0
M  V30 31 N 1.347320 2.470397 -0.458214 0
M  V30 32 C 2.544441 2.211976 0.097518 0
M  V30 33 N 2.939731 2.181143 1.400547 0
M  V30 34 C 2.206594 2.420695 2.612875 0
M  V30 35 C 2.335020 1.279641 3.609968 0
M  V30 36 C 1.344349 0.284957 3.072351 0
M  V30 37 C 0.261298 1.090091 2.397328 0
M  V30 38 C 0.718992 2.504495 2.441070 0
M  V30 39 H 6.479384 -0.699376 4.256142 0
M  V30 40 H 7.054945 0.988607 4.171926 0
M  V30 41 H 7.775173 -0.263174 3.094710 0
M  V30 42 H 4.386341 -0.611513 1.389692 0
M  V30 43 H 5.624725 -1.658541 2.178503 0
M  V30 44 H 6.101370 -0.731085 0.730972 0
M  V30 45 H 5.631936 1.454214 -0.340661 0
M  V30 46 H 4.134051 1.691800 -2.794858 0
M  V30 47 H -0.560401 3.746948 -2.202193 0
M  V30 48 H 0.398816 0.204038 -1.684572 0
M  V30 49 H -1.222398 -1.638786 -1.764665 0
M  V30 50 H -5.112038 -3.017463 -3.680732 0
M  V30 51 H -6.317651 -3.425771 -2.473391 0
M  V30 52 H -4.043628 -4.982822 -3.423603 0
M  V30 53 H -5.457200 -5.496999 -2.529064 0
M  V30 54 H -2.735223 -5.469059 -1.660488 0
M  V30 55 H -3.693458 -6.214030 0.426204 0
M  V30 56 H -4.475988 -7.072859 -1.018202 0
M  V30 57 H -5.312233 -4.958182 1.736581 0
M  V30 58 H -6.552544 -4.105410 0.777071 0
M  V30 59 H -4.073302 -3.121797 1.314592 0
M  V30 60 H -6.192329 -2.372690 -0.257271 0
M  V30 61 H -4.785990 -1.338412 0.102448 0
M  V30 62 H -2.634302 -4.326207 0.183243 0
M  V30 63 H -4.433171 1.149730 -2.581296 0
M  V30 64 H 2.600604 3.377429 3.075732 0
M  V30 65 H 1.886713 1.674517 4.556114 0
M  V30 66 H 3.338657 0.892166 3.738115 0
M  V30 67 H 0.861925 -0.280368 3.921972 0
M  V30 68 H 1.850863 -0.422067 2.405507 0
M  V30 69 H -0.725915 0.954871 2.904919 0
M  V30 70 H 0.120710 0.768332 1.353795 0
M  V30 71 H 0.383467 3.132352 1.593073 0
M  V30 72 H 0.338296 2.953018 3.411227 0
M  V30 END ATOM
M  V30 BEGIN BOND
M  V30 1 1 1 2
M  V30 2 1 2 3
M  V30 3 1 2 4
M  V30 4 2 4 5
M  V30 5 1 4 6
M  V30 6 2 6 7
M  V30 7 1 7 8
M  V30 8 2 8 9
M  V30 9 1 9 10
M  V30 10 2 10 11
M  V30 11 1 11 12
M  V30 12 1 12 13
M  V30 13 2 13 14
M  V30 14 1 14 15
M  V30 15 2 15 16
M  V30 16 1 16 17
M  V30 17 2 17 18
M  V30 18 1 17 19
M  V30 19 1 19 20
M  V30 20 1 20 21
M  V30 21 1 21 22
M  V30 22 1 22 23
M  V30 23 1 23 24
M  V30 24 1 24 25
M  V30 25 1 25 26
M  V30 26 1 26 27
M  V30 27 1 26 28
M  V30 28 1 16 29
M  V30 29 2 29 30
M  V30 30 1 11 31
M  V30 31 2 31 32
M  V30 32 1 32 33
M  V30 33 1 33 34
M  V30 34 1 34 35
M  V30 35 1 35 36
M  V30 36 1 36 37
M  V30 37 1 37 38
M  V30 38 1 33 6
M  V30 39 1 38 34
M  V30 40 1 32 8
M  V30 41 1 30 13
M  V30 42 1 27 19
M  V30 43 1 28 22
M  V30 44 1 1 39
M  V30 45 1 1 40
M  V30 46 1 1 41
M  V30 47 1 3 42
M  V30 48 1 3 43
M  V30 49 1 3 44
M  V30 50 1 7 45
M  V30 51 1 9 46
M  V30 52 1 12 47
M  V30 53 1 14 48
M  V30 54 1 15 49
M  V30 55 1 20 50
M  V30 56 1 20 51
M  V30 57 1 21 52
M  V30 58 1 21 53
M  V30 59 1 22 54
M  V30 60 1 23 55
M  V30 61 1 23 56
M  V30 62 1 25 57
M  V30 63 1 25 58
M  V30 64 1 26 59
M  V30 65 1 27 60
M  V30 66 1 27 61
M  V30 67 1 28 62
M  V30 68 1 29 63
M  V30 69 1 34 64
M  V30 70 1 35 65
M  V30 71 1 35 66
M  V30 72 1 36 67
M  V30 73 1 36 68
M  V30 74 1 37 69
M  V30 75 1 37 70
M  V30 76 1 38 71
M  V30 77 1 38 72
M  V30 END BOND
M  V30 END CTAB
M  END
>  <Dataset>  (491) 
ChEMBL_Kinases

>  <Ligand_Instance>  (491) 
nan

>  <PDB_ID>  (491) 
nan

>  <Standardized_SMILES>  (491) 
CN(C)C(=O)c1cc2cnc(Nc3ccc(C(=O)N4CCC5COCC(C4)N5)cn3)nc2n1C1CCCC1

>  <Name>  (491) 
nan

>  <Pocket>  (491) 
nan

>  <ATP_Site>  (491) 
nan

>  <Peripheral>  (491) 
nan

>  <Num_H_Atoms_ProtBoundConf>  (491) 
nan

>  <Num_Resolved_Atoms>  (491) 
nan

>  <Num_Not_Resolved_Atoms>  (491) 
nan

$$$$
CHEMBL3691615
     RDKit          3D

  0  0  0  0  0  0  0  0  0  0999 V3000
M  V30 BEGIN CTAB
M  V30 COUNTS 72 78 0 0 0
M  V30 BEGIN ATOM
M  V30 1 C 3.348907 -2.484339 -0.220080 0
M  V30 2 N 4.117139 -1.714003 -1.205367 0
M  V30 3 C 4.647288 -2.643863 -2.183741 0
M  V30 4 C 4.394324 -0.303062 -1.342615 0
M  V30 5 O 5.118512 0.105923 -2.313921 0
M  V30 6 C 3.737214 0.447264 -0.251591 0
M  V30 7 C 4.391115 0.983088 0.856935 0
M  V30 8 C 3.448525 1.599823 1.659758 0
M  V30 9 C 3.416815 2.281256 2.855817 0
M  V30 10 N 2.254311 2.763124 3.389987 0
M  V30 11 C 1.109748 2.558702 2.715758 0
M  V30 12 N -0.280681 2.879465 2.950471 0
M  V30 13 C -1.187597 1.752783 3.012525 0
M  V30 14 C -2.549554 1.835109 3.191746 0
M  V30 15 C -3.336726 0.706097 3.219699 0
M  V30 16 C -2.789331 -0.564303 3.068422 0
M  V30 17 C -3.511377 -1.805769 3.061119 0
M  V30 18 O -4.323022 -1.893966 4.015048 0
M  V30 19 N -3.258630 -2.782657 2.025837 0
M  V30 20 C -2.321450 -2.656969 0.949111 0
M  V30 21 C -2.830772 -3.312319 -0.317416 0
M  V30 22 C -4.189364 -2.818882 -0.699618 0
M  V30 23 C -5.155669 -3.851607 -0.130343 0
M  V30 24 C -4.244701 -4.669410 0.769886 0
M  V30 25 C -4.043678 -4.000301 2.102617 0
M  V30 26 N -3.041024 -4.713926 -0.001599 0
M  V30 27 C -1.425045 -0.618138 2.893016 0
M  V30 28 N -0.695503 0.494361 2.870875 0
M  V30 29 N 1.179131 1.901533 1.571999 0
M  V30 30 C 2.268532 1.395107 0.975164 0
M  V30 31 N 2.428968 0.693616 -0.192158 0
M  V30 32 C 1.393598 0.338479 -1.105009 0
M  V30 33 C 1.811703 0.810438 -2.508714 0
M  V30 34 C 0.709775 1.728024 -2.966477 0 CFG=1
M  V30 35 C -0.493314 0.891515 -3.296858 0
M  V30 36 C -0.870949 0.316891 -1.943386 0
M  V30 37 C 0.080984 0.989390 -0.935371 0 CFG=2
M  V30 38 C 0.280814 2.326656 -1.620300 0
M  V30 39 H 2.454230 -2.889573 -0.776425 0
M  V30 40 H 2.969776 -1.800823 0.588154 0
M  V30 41 H 3.942462 -3.311456 0.200881 0
M  V30 42 H 5.079924 -2.045672 -3.037588 0
M  V30 43 H 5.414150 -3.298495 -1.775796 0
M  V30 44 H 3.800922 -3.221670 -2.623187 0
M  V30 45 H 5.448989 0.962012 1.115151 0
M  V30 46 H 4.313855 2.448901 3.393493 0
M  V30 47 H -0.734726 3.810348 3.084168 0
M  V30 48 H -2.918791 2.833057 3.301934 0
M  V30 49 H -4.403801 0.781820 3.361142 0
M  V30 50 H -2.073465 -1.598752 0.744176 0
M  V30 51 H -1.382457 -3.211667 1.208974 0
M  V30 52 H -2.078899 -3.262411 -1.101232 0
M  V30 53 H -4.403282 -1.832005 -0.276899 0
M  V30 54 H -4.236038 -2.776668 -1.808075 0
M  V30 55 H -5.492910 -4.533650 -0.945965 0
M  V30 56 H -5.999457 -3.398264 0.396641 0
M  V30 57 H -4.649212 -5.683818 0.957608 0
M  V30 58 H -5.022279 -3.811299 2.600991 0
M  V30 59 H -3.484175 -4.697585 2.768408 0
M  V30 60 H -2.217846 -5.140884 0.481769 0
M  V30 61 H -0.801370 -1.506180 2.764021 0
M  V30 62 H 1.256827 -0.783508 -1.152941 0
M  V30 63 H 1.949884 -0.061401 -3.181019 0
M  V30 64 H 2.731023 1.433768 -2.471949 0
M  V30 65 H 1.005516 2.468939 -3.698682 0
M  V30 66 H -0.221312 0.030696 -3.942895 0
M  V30 67 H -1.317917 1.495174 -3.721545 0
M  V30 68 H -1.908361 0.650961 -1.688688 0
M  V30 69 H -0.782022 -0.783537 -1.896886 0
M  V30 70 H -0.361091 1.032459 0.058861 0
M  V30 71 H -0.663246 2.886257 -1.786911 0
M  V30 72 H 1.078352 2.931664 -1.190280 0
M  V30 END ATOM
M  V30 BEGIN BOND
M  V30 1 1 1 2
M  V30 2 1 2 3
M  V30 3 1 2 4
M  V30 4 2 4 5
M  V30 5 1 4 6
M  V30 6 2 6 7
M  V30 7 1 7 8
M  V30 8 2 8 9
M  V30 9 1 9 10
M  V30 10 2 10 11
M  V30 11 1 11 12
M  V30 12 1 12 13
M  V30 13 2 13 14
M  V30 14 1 14 15
M  V30 15 2 15 16
M  V30 16 1 16 17
M  V30 17 2 17 18
M  V30 18 1 17 19
M  V30 19 1 19 20
M  V30 20 1 20 21
M  V30 21 1 21 22
M  V30 22 1 22 23
M  V30 23 1 23 24
M  V30 24 1 24 25
M  V30 25 1 24 26
M  V30 26 1 16 27
M  V30 27 2 27 28
M  V30 28 1 11 29
M  V30 29 2 29 30
M  V30 30 1 30 31
M  V30 31 1 31 32
M  V30 32 1 32 33
M  V30 33 1 33 34
M  V30 34 1 34 35
M  V30 35 1 35 36
M  V30 36 1 36 37
M  V30 37 1 37 38
M  V30 38 1 31 6
M  V30 39 1 37 32
M  V30 40 1 30 8
M  V30 41 1 38 34
M  V30 42 1 28 13
M  V30 43 1 25 19
M  V30 44 1 26 21
M  V30 45 1 1 39
M  V30 46 1 1 40
M  V30 47 1 1 41
M  V30 48 1 3 42
M  V30 49 1 3 43
M  V30 50 1 3 44
M  V30 51 1 7 45
M  V30 52 1 9 46
M  V30 53 1 12 47
M  V30 54 1 14 48
M  V30 55 1 15 49
M  V30 56 1 20 50
M  V30 57 1 20 51
M  V30 58 1 21 52
M  V30 59 1 22 53
M  V30 60 1 22 54
M  V30 61 1 23 55
M  V30 62 1 23 56
M  V30 63 1 24 57
M  V30 64 1 25 58
M  V30 65 1 25 59
M  V30 66 1 26 60
M  V30 67 1 27 61
M  V30 68 1 32 62
M  V30 69 1 33 63
M  V30 70 1 33 64
M  V30 71 1 34 65 CFG=3
M  V30 72 1 35 66
M  V30 73 1 35 67
M  V30 74 1 36 68
M  V30 75 1 36 69
M  V30 76 1 37 70 CFG=1
M  V30 77 1 38 71
M  V30 78 1 38 72
M  V30 END BOND
M  V30 END CTAB
M  END
>  <Dataset>  (492) 
ChEMBL_Kinases

>  <Ligand_Instance>  (492) 
nan

>  <PDB_ID>  (492) 
nan

>  <Standardized_SMILES>  (492) 
CN(C)C(=O)c1cc2cnc(Nc3ccc(C(=O)N4CC5CCC(C4)N5)cn3)nc2n1C1C[C@H]2CC[C@@H]1C2

>  <Name>  (492) 
nan

>  <Pocket>  (492) 
nan

>  <ATP_Site>  (492) 
nan

>  <Peripheral>  (492) 
nan

>  <Num_H_Atoms_ProtBoundConf>  (492) 
nan

>  <Num_Resolved_Atoms>  (492) 
nan

>  <Num_Not_Resolved_Atoms>  (492) 
nan

$$$$
CHEMBL3691616
     RDKit          3D

  0  0  0  0  0  0  0  0  0  0999 V3000
M  V30 BEGIN CTAB
M  V30 COUNTS 72 78 0 0 0
M  V30 BEGIN ATOM
M  V30 1 C 2.864808 2.562814 3.505039 0
M  V30 2 N 2.115480 2.633551 2.241909 0
M  V30 3 C 2.673585 1.910657 1.096929 0
M  V30 4 C 0.917233 3.435167 2.332347 0
M  V30 5 O 0.830691 3.888350 3.495128 0
M  V30 6 C 0.218822 3.442316 1.050105 0
M  V30 7 C 0.391797 4.253891 -0.051799 0
M  V30 8 C -0.514566 3.822041 -0.993448 0
M  V30 9 C -0.845698 4.178129 -2.281075 0
M  V30 10 N -1.796333 3.541010 -2.994325 0
M  V30 11 C -2.447097 2.514508 -2.419907 0
M  V30 12 N -3.442497 1.536043 -2.816502 0
M  V30 13 C -2.737500 0.323225 -3.174141 0
M  V30 14 C -3.403155 -0.815987 -3.549858 0
M  V30 15 C -2.833127 -2.014066 -3.901350 0
M  V30 16 C -1.459407 -2.111112 -3.885201 0
M  V30 17 C -0.393701 -3.073611 -4.149793 0
M  V30 18 O -0.107472 -3.483456 -5.311516 0
M  V30 19 N 0.419826 -3.632526 -3.102811 0
M  V30 20 C 1.478765 -4.558845 -3.453845 0
M  V30 21 C 2.758759 -4.238609 -2.706020 0
M  V30 22 C 2.905052 -5.271038 -1.614972 0
M  V30 23 C 1.943070 -4.783940 -0.560111 0
M  V30 24 C 1.595923 -3.396884 -0.984278 0
M  V30 25 C 0.258798 -3.348747 -1.688562 0
M  V30 26 N 2.608924 -3.004665 -1.962063 0
M  V30 27 C -0.759767 -0.959471 -3.505750 0
M  V30 28 N -1.386326 0.185237 -3.171562 0
M  V30 29 N -2.110015 2.191314 -1.168549 0
M  V30 30 C -1.184133 2.773202 -0.404550 0
M  V30 31 N -0.756556 2.506994 0.867214 0
M  V30 32 C -1.246456 1.508019 1.764047 0 CFG=1
M  V30 33 C -2.721002 1.232393 1.641702 0
M  V30 34 C -2.772272 -0.225380 1.313678 0 CFG=2
M  V30 35 C -2.566298 -0.970756 2.618188 0
M  V30 36 C -1.126787 -0.622333 2.938768 0
M  V30 37 C -0.630800 0.167864 1.715274 0 CFG=1
M  V30 38 C -1.437647 -0.559542 0.662757 0
M  V30 39 H 3.852890 3.035608 3.367569 0
M  V30 40 H 3.101156 1.458208 3.614495 0
M  V30 41 H 2.296691 2.928779 4.362582 0
M  V30 42 H 1.919942 1.552354 0.392538 0
M  V30 43 H 3.480131 2.507048 0.587282 0
M  V30 44 H 3.193876 1.022492 1.506017 0
M  V30 45 H 1.088154 5.058519 -0.165544 0
M  V30 46 H -0.341594 4.990517 -2.762573 0
M  V30 47 H -4.472692 1.523925 -2.892617 0
M  V30 48 H -4.473493 -0.836196 -3.593865 0
M  V30 49 H -3.214619 -2.953004 -4.206493 0
M  V30 50 H 1.714103 -4.491212 -4.544534 0
M  V30 51 H 1.118630 -5.583763 -3.263270 0
M  V30 52 H 3.645284 -4.214866 -3.374892 0
M  V30 53 H 2.657809 -6.291865 -1.990062 0
M  V30 54 H 3.935890 -5.239385 -1.163688 0
M  V30 55 H 1.057120 -5.436292 -0.532585 0
M  V30 56 H 2.390018 -4.828216 0.458681 0
M  V30 57 H 1.572444 -2.691820 -0.127092 0
M  V30 58 H -0.491266 -4.004980 -1.219287 0
M  V30 59 H -0.127018 -2.306503 -1.574932 0
M  V30 60 H 3.500484 -2.749178 -1.498240 0
M  V30 61 H 0.309422 -0.709612 -3.393209 0
M  V30 62 H -1.122832 1.871396 2.853427 0
M  V30 63 H -3.227956 1.900970 0.919806 0
M  V30 64 H -3.273744 1.426995 2.596825 0
M  V30 65 H -3.637552 -0.543589 0.732047 0
M  V30 66 H -3.257836 -0.594018 3.407571 0
M  V30 67 H -2.703843 -2.053290 2.444484 0
M  V30 68 H -0.592084 -1.565679 3.051667 0
M  V30 69 H -1.062569 -0.016909 3.843247 0
M  V30 70 H 0.437459 0.109598 1.589731 0
M  V30 71 H -1.305466 -0.236574 -0.354032 0
M  V30 72 H -1.288921 -1.671852 0.746545 0
M  V30 END ATOM
M  V30 BEGIN BOND
M  V30 1 1 1 2
M  V30 2 1 2 3
M  V30 3 1 2 4
M  V30 4 2 4 5
M  V30 5 1 4 6
M  V30 6 2 6 7
M  V30 7 1 7 8
M  V30 8 2 8 9
M  V30 9 1 9 10
M  V30 10 2 10 11
M  V30 11 1 11 12
M  V30 12 1 12 13
M  V30 13 2 13 14
M  V30 14 1 14 15
M  V30 15 2 15 16
M  V30 16 1 16 17
M  V30 17 2 17 18
M  V30 18 1 17 19
M  V30 19 1 19 20
M  V30 20 1 20 21
M  V30 21 1 21 22
M  V30 22 1 22 23
M  V30 23 1 23 24
M  V30 24 1 24 25
M  V30 25 1 24 26
M  V30 26 1 16 27
M  V30 27 2 27 28
M  V30 28 1 11 29
M  V30 29 2 29 30
M  V30 30 1 30 31
M  V30 31 1 31 32
M  V30 32 1 32 33
M  V30 33 1 33 34
M  V30 34 1 34 35
M  V30 35 1 35 36
M  V30 36 1 36 37
M  V30 37 1 37 38
M  V30 38 1 31 6
M  V30 39 1 37 32
M  V30 40 1 30 8
M  V30 41 1 38 34
M  V30 42 1 28 13
M  V30 43 1 25 19
M  V30 44 1 26 21
M  V30 45 1 1 39
M  V30 46 1 1 40
M  V30 47 1 1 41
M  V30 48 1 3 42
M  V30 49 1 3 43
M  V30 50 1 3 44
M  V30 51 1 7 45
M  V30 52 1 9 46
M  V30 53 1 12 47
M  V30 54 1 14 48
M  V30 55 1 15 49
M  V30 56 1 20 50
M  V30 57 1 20 51
M  V30 58 1 21 52
M  V30 59 1 22 53
M  V30 60 1 22 54
M  V30 61 1 23 55
M  V30 62 1 23 56
M  V30 63 1 24 57
M  V30 64 1 25 58
M  V30 65 1 25 59
M  V30 66 1 26 60
M  V30 67 1 27 61
M  V30 68 1 32 62 CFG=1
M  V30 69 1 33 63
M  V30 70 1 33 64
M  V30 71 1 34 65 CFG=3
M  V30 72 1 35 66
M  V30 73 1 35 67
M  V30 74 1 36 68
M  V30 75 1 36 69
M  V30 76 1 37 70 CFG=3
M  V30 77 1 38 71
M  V30 78 1 38 72
M  V30 END BOND
M  V30 END CTAB
M  END
>  <Dataset>  (493) 
ChEMBL_Kinases

>  <Ligand_Instance>  (493) 
nan

>  <PDB_ID>  (493) 
nan

>  <Standardized_SMILES>  (493) 
CN(C)C(=O)c1cc2cnc(Nc3ccc(C(=O)N4CC5CCC(C4)N5)cn3)nc2n1[C@H]1C[C@@H]2CC[C@H]1C2

>  <Name>  (493) 
nan

>  <Pocket>  (493) 
nan

>  <ATP_Site>  (493) 
nan

>  <Peripheral>  (493) 
nan

>  <Num_H_Atoms_ProtBoundConf>  (493) 
nan

>  <Num_Resolved_Atoms>  (493) 
nan

>  <Num_Not_Resolved_Atoms>  (493) 
nan

$$$$
CHEMBL3691617
     RDKit          3D

  0  0  0  0  0  0  0  0  0  0999 V3000
M  V30 BEGIN CTAB
M  V30 COUNTS 63 68 0 0 0
M  V30 BEGIN ATOM
M  V30 1 C 2.227661 -1.584887 3.829967 0
M  V30 2 N 3.253554 -2.605678 3.551894 0
M  V30 3 C 3.391190 -3.504307 4.653809 0
M  V30 4 C 3.991477 -2.674678 2.323542 0
M  V30 5 O 4.838547 -3.634584 2.286697 0
M  V30 6 C 3.706388 -1.682583 1.292590 0
M  V30 7 C 4.501076 -0.578807 1.054345 0
M  V30 8 C 3.870779 0.076143 0.024353 0
M  V30 9 C 4.108636 1.235276 -0.682513 0
M  V30 10 N 3.315127 1.701333 -1.669631 0
M  V30 11 C 2.203905 0.988083 -1.998268 0
M  V30 12 N 1.139000 1.168230 -2.936861 0
M  V30 13 C -0.145440 1.427490 -2.332332 0
M  V30 14 C -0.270743 1.490596 -0.955146 0
M  V30 15 C -1.451372 1.698872 -0.263068 0
M  V30 16 C -2.588733 1.855166 -1.034527 0
M  V30 17 N -3.825442 2.041325 -0.394490 0
M  V30 18 C -4.174850 2.063457 1.014731 0
M  V30 19 C -5.277045 1.035694 1.149113 0
M  V30 20 C -5.470771 -0.020427 0.143183 0
M  V30 21 C -6.042410 1.303543 -0.122583 0
M  V30 22 N -7.434832 1.634206 0.093356 0
M  V30 23 C -5.161016 2.253163 -0.922460 0
M  V30 24 C -2.451816 1.790655 -2.403166 0
M  V30 25 N -1.291200 1.587097 -3.051346 0
M  V30 26 N 1.980872 -0.131947 -1.311486 0
M  V30 27 C 2.743354 -0.628511 -0.323816 0
M  V30 28 N 2.637724 -1.738223 0.473709 0
M  V30 29 C 1.555210 -2.699089 0.367446 0
M  V30 30 C 1.917195 -4.097707 0.706998 0
M  V30 31 C 0.692658 -4.863714 0.177935 0
M  V30 32 C 0.029384 -3.987396 -0.832999 0
M  V30 33 C 1.003453 -2.816282 -1.025638 0
M  V30 34 H 1.315289 -2.052829 4.261207 0
M  V30 35 H 2.695216 -0.902456 4.548172 0
M  V30 36 H 1.956429 -1.023161 2.929779 0
M  V30 37 H 4.002308 -4.376849 4.302198 0
M  V30 38 H 2.402062 -3.915954 4.963305 0
M  V30 39 H 3.855493 -2.962244 5.499512 0
M  V30 40 H 5.409252 -0.252198 1.525318 0
M  V30 41 H 4.960073 1.853172 -0.481037 0
M  V30 42 H 1.167786 1.130946 -3.973738 0
M  V30 43 H 0.582544 1.386772 -0.273262 0
M  V30 44 H -1.497273 1.737543 0.814762 0
M  V30 45 H -4.631660 3.056407 1.214903 0
M  V30 46 H -3.317129 1.929066 1.656767 0
M  V30 47 H -5.764744 0.984286 2.125366 0
M  V30 48 H -6.148206 -0.846751 0.404150 0
M  V30 49 H -4.628199 -0.363701 -0.508494 0
M  V30 50 H -7.417781 2.600075 0.549713 0
M  V30 51 H -7.830817 1.015953 0.863430 0
M  V30 52 H -5.163970 1.873002 -1.960896 0
M  V30 53 H -5.471884 3.309829 -0.846507 0
M  V30 54 H -3.339486 1.913859 -2.998658 0
M  V30 55 H 0.713839 -2.361377 1.018666 0
M  V30 56 H 2.778915 -4.460495 0.122284 0
M  V30 57 H 2.043195 -4.305581 1.797206 0
M  V30 58 H 0.027748 -5.063781 1.074286 0
M  V30 59 H 0.945513 -5.830695 -0.248246 0
M  V30 60 H -0.217557 -4.487841 -1.792336 0
M  V30 61 H -0.876119 -3.537754 -0.349957 0
M  V30 62 H 1.806251 -3.163021 -1.717030 0
M  V30 63 H 0.465926 -1.918298 -1.383911 0
M  V30 END ATOM
M  V30 BEGIN BOND
M  V30 1 1 1 2
M  V30 2 1 2 3
M  V30 3 1 2 4
M  V30 4 2 4 5
M  V30 5 1 4 6
M  V30 6 2 6 7
M  V30 7 1 7 8
M  V30 8 2 8 9
M  V30 9 1 9 10
M  V30 10 2 10 11
M  V30 11 1 11 12
M  V30 12 1 12 13
M  V30 13 2 13 14
M  V30 14 1 14 15
M  V30 15 2 15 16
M  V30 16 1 16 17
M  V30 17 1 17 18
M  V30 18 1 18 19
M  V30 19 1 19 20
M  V30 20 1 20 21
M  V30 21 1 21 22
M  V30 22 1 21 23
M  V30 23 1 16 24
M  V30 24 2 24 25
M  V30 25 1 11 26
M  V30 26 2 26 27
M  V30 27 1 27 28
M  V30 28 1 28 29
M  V30 29 1 29 30
M  V30 30 1 30 31
M  V30 31 1 31 32
M  V30 32 1 32 33
M  V30 33 1 28 6
M  V30 34 1 33 29
M  V30 35 1 27 8
M  V30 36 1 25 13
M  V30 37 1 23 17
M  V30 38 1 21 19
M  V30 39 1 1 34
M  V30 40 1 1 35
M  V30 41 1 1 36
M  V30 42 1 3 37
M  V30 43 1 3 38
M  V30 44 1 3 39
M  V30 45 1 7 40
M  V30 46 1 9 41
M  V30 47 1 12 42
M  V30 48 1 14 43
M  V30 49 1 15 44
M  V30 50 1 18 45
M  V30 51 1 18 46
M  V30 52 1 19 47
M  V30 53 1 20 48
M  V30 54 1 20 49
M  V30 55 1 22 50
M  V30 56 1 22 51
M  V30 57 1 23 52
M  V30 58 1 23 53
M  V30 59 1 24 54
M  V30 60 1 29 55
M  V30 61 1 30 56
M  V30 62 1 30 57
M  V30 63 1 31 58
M  V30 64 1 31 59
M  V30 65 1 32 60
M  V30 66 1 32 61
M  V30 67 1 33 62
M  V30 68 1 33 63
M  V30 END BOND
M  V30 END CTAB
M  END
>  <Dataset>  (494) 
ChEMBL_Kinases

>  <Ligand_Instance>  (494) 
nan

>  <PDB_ID>  (494) 
nan

>  <Standardized_SMILES>  (494) 
CN(C)C(=O)c1cc2cnc(Nc3ccc(N4CC5CC5(N)C4)cn3)nc2n1C1CCCC1

>  <Name>  (494) 
nan

>  <Pocket>  (494) 
nan

>  <ATP_Site>  (494) 
nan

>  <Peripheral>  (494) 
nan

>  <Num_H_Atoms_ProtBoundConf>  (494) 
nan

>  <Num_Resolved_Atoms>  (494) 
nan

>  <Num_Not_Resolved_Atoms>  (494) 
nan

$$$$
CHEMBL3691618
     RDKit          3D

  0  0  0  0  0  0  0  0  0  0999 V3000
M  V30 BEGIN CTAB
M  V30 COUNTS 67 72 0 0 0
M  V30 BEGIN ATOM
M  V30 1 C 7.055977 -2.265659 2.349690 0
M  V30 2 N 5.872323 -1.662587 1.753215 0
M  V30 3 C 4.889474 -2.525988 1.089553 0
M  V30 4 C 5.763054 -0.229351 1.868163 0
M  V30 5 O 6.776153 0.180167 2.492276 0
M  V30 6 C 4.557603 0.321542 1.253488 0
M  V30 7 C 4.571820 0.583401 -0.115153 0
M  V30 8 C 3.364992 1.086866 -0.490568 0
M  V30 9 C 2.715823 1.534917 -1.611809 0
M  V30 10 N 1.446767 1.979088 -1.579804 0
M  V30 11 C 0.761566 1.994016 -0.402870 0
M  V30 12 N -0.597701 2.444807 -0.257923 0
M  V30 13 C -1.608208 1.467026 -0.418615 0
M  V30 14 C -2.949262 1.763599 -0.304826 0
M  V30 15 C -3.878840 0.764539 -0.472001 0
M  V30 16 C -3.587340 -0.547042 -0.750963 0
M  V30 17 N -4.447446 -1.658072 -0.926467 0
M  V30 18 C -3.778483 -2.882327 -1.344558 0
M  V30 19 C -4.484533 -3.376268 -2.588196 0
M  V30 20 C -5.211545 -4.669546 -2.399715 0
M  V30 21 C -6.653806 -4.316035 -2.575982 0
M  V30 22 C -6.748218 -2.811165 -2.678585 0
M  V30 23 C -7.042999 -2.164732 -1.344259 0
M  V30 24 C -5.846408 -1.537856 -0.719715 0
M  V30 25 O -6.163860 -0.717759 0.198198 0
M  V30 26 N -5.438077 -2.418126 -3.091610 0
M  V30 27 N -2.263448 -0.755861 -0.846979 0
M  V30 28 N -1.347682 0.178720 -0.692468 0
M  V30 29 N 1.377617 1.559009 0.712901 0
M  V30 30 C 2.642934 1.112322 0.699779 0
M  V30 31 N 3.368188 0.652762 1.731218 0
M  V30 32 C 3.127286 0.466615 3.124398 0
M  V30 33 C 1.781145 0.972481 3.591288 0
M  V30 34 C 2.010652 1.422562 5.034029 0
M  V30 35 C 3.348509 2.076646 4.921080 0
M  V30 36 C 4.110174 1.196279 3.985680 0
M  V30 37 H 7.136503 -2.047640 3.427837 0
M  V30 38 H 7.996675 -1.929666 1.883262 0
M  V30 39 H 7.010133 -3.373690 2.221852 0
M  V30 40 H 3.902109 -2.024341 1.121753 0
M  V30 41 H 4.790409 -3.467273 1.670000 0
M  V30 42 H 5.168119 -2.729570 0.033349 0
M  V30 43 H 5.374183 0.441430 -0.851094 0
M  V30 44 H 3.267073 1.517185 -2.537040 0
M  V30 45 H -0.893372 3.421325 -0.047200 0
M  V30 46 H -3.285852 2.763061 -0.088005 0
M  V30 47 H -4.917019 1.039225 -0.383498 0
M  V30 48 H -2.693949 -2.704485 -1.528618 0
M  V30 49 H -3.836866 -3.608196 -0.512911 0
M  V30 50 H -3.691467 -3.467178 -3.385559 0
M  V30 51 H -5.019731 -5.148993 -1.407024 0
M  V30 52 H -4.833617 -5.400735 -3.170503 0
M  V30 53 H -7.319948 -4.750482 -1.808981 0
M  V30 54 H -6.998833 -4.728462 -3.561066 0
M  V30 55 H -7.524844 -2.513947 -3.431803 0
M  V30 56 H -7.845799 -1.398339 -1.417278 0
M  V30 57 H -7.416961 -2.995972 -0.673723 0
M  V30 58 H -5.357132 -2.213615 -4.108844 0
M  V30 59 H 3.154298 -0.623027 3.330402 0
M  V30 60 H 1.425102 1.867090 3.064488 0
M  V30 61 H 1.020198 0.177015 3.607732 0
M  V30 62 H 2.096359 0.546799 5.688520 0
M  V30 63 H 1.191973 2.096629 5.348840 0
M  V30 64 H 3.308513 3.119905 4.545675 0
M  V30 65 H 3.819032 2.117360 5.923109 0
M  V30 66 H 4.704667 0.453181 4.567211 0
M  V30 67 H 4.786603 1.846202 3.392002 0
M  V30 END ATOM
M  V30 BEGIN BOND
M  V30 1 1 1 2
M  V30 2 1 2 3
M  V30 3 1 2 4
M  V30 4 2 4 5
M  V30 5 1 4 6
M  V30 6 2 6 7
M  V30 7 1 7 8
M  V30 8 2 8 9
M  V30 9 1 9 10
M  V30 10 2 10 11
M  V30 11 1 11 12
M  V30 12 1 12 13
M  V30 13 2 13 14
M  V30 14 1 14 15
M  V30 15 2 15 16
M  V30 16 1 16 17
M  V30 17 1 17 18
M  V30 18 1 18 19
M  V30 19 1 19 20
M  V30 20 1 20 21
M  V30 21 1 21 22
M  V30 22 1 22 23
M  V30 23 1 23 24
M  V30 24 2 24 25
M  V30 25 1 22 26
M  V30 26 1 16 27
M  V30 27 2 27 28
M  V30 28 1 11 29
M  V30 29 2 29 30
M  V30 30 1 30 31
M  V30 31 1 31 32
M  V30 32 1 32 33
M  V30 33 1 33 34
M  V30 34 1 34 35
M  V30 35 1 35 36
M  V30 36 1 31 6
M  V30 37 1 36 32
M  V30 38 1 30 8
M  V30 39 1 28 13
M  V30 40 1 24 17
M  V30 41 1 26 19
M  V30 42 1 1 37
M  V30 43 1 1 38
M  V30 44 1 1 39
M  V30 45 1 3 40
M  V30 46 1 3 41
M  V30 47 1 3 42
M  V30 48 1 7 43
M  V30 49 1 9 44
M  V30 50 1 12 45
M  V30 51 1 14 46
M  V30 52 1 15 47
M  V30 53 1 18 48
M  V30 54 1 18 49
M  V30 55 1 19 50
M  V30 56 1 20 51
M  V30 57 1 20 52
M  V30 58 1 21 53
M  V30 59 1 21 54
M  V30 60 1 22 55
M  V30 61 1 23 56
M  V30 62 1 23 57
M  V30 63 1 26 58
M  V30 64 1 32 59
M  V30 65 1 33 60
M  V30 66 1 33 61
M  V30 67 1 34 62
M  V30 68 1 34 63
M  V30 69 1 35 64
M  V30 70 1 35 65
M  V30 71 1 36 66
M  V30 72 1 36 67
M  V30 END BOND
M  V30 END CTAB
M  END
>  <Dataset>  (495) 
ChEMBL_Kinases

>  <Ligand_Instance>  (495) 
nan

>  <PDB_ID>  (495) 
nan

>  <Standardized_SMILES>  (495) 
CN(C)C(=O)c1cc2cnc(Nc3ccc(N4CC5CCC(CC4=O)N5)nn3)nc2n1C1CCCC1

>  <Name>  (495) 
nan

>  <Pocket>  (495) 
nan

>  <ATP_Site>  (495) 
nan

>  <Peripheral>  (495) 
nan

>  <Num_H_Atoms_ProtBoundConf>  (495) 
nan

>  <Num_Resolved_Atoms>  (495) 
nan

>  <Num_Not_Resolved_Atoms>  (495) 
nan

$$$$
CHEMBL3691619
     RDKit          3D

  0  0  0  0  0  0  0  0  0  0999 V3000
M  V30 BEGIN CTAB
M  V30 COUNTS 71 76 0 0 0
M  V30 BEGIN ATOM
M  V30 1 C 2.398680 -3.410451 2.930733 0
M  V30 2 N 3.851457 -3.302579 2.795081 0
M  V30 3 C 4.552702 -4.587332 2.905480 0
M  V30 4 C 4.661755 -2.127903 2.569837 0
M  V30 5 O 5.933822 -2.049343 2.454566 0
M  V30 6 C 3.796663 -0.956113 2.484926 0
M  V30 7 C 3.582987 0.003407 3.469487 0
M  V30 8 C 2.691076 0.899320 2.918137 0
M  V30 9 C 2.132835 2.042859 3.451659 0
M  V30 10 N 1.261166 2.770658 2.694902 0
M  V30 11 C 0.965227 2.362119 1.450160 0
M  V30 12 N 0.105059 2.902039 0.458089 0
M  V30 13 C -1.216236 2.385252 0.355003 0
M  V30 14 C -1.641082 1.385802 1.207013 0
M  V30 15 C -2.933893 0.866263 1.097547 0
M  V30 16 C -3.835250 1.313293 0.152720 0
M  V30 17 N -5.141796 0.784835 0.018086 0
M  V30 18 C -5.621960 -0.318352 0.836144 0
M  V30 19 C -6.618706 -1.162713 0.058879 0
M  V30 20 C -6.020106 -1.838718 -1.136103 0
M  V30 21 C -6.232640 -0.831684 -2.248335 0
M  V30 22 C -7.014622 0.294979 -1.610657 0
M  V30 23 N -7.702767 -0.382908 -0.505389 0
M  V30 24 C -6.096552 1.269446 -0.920400 0
M  V30 25 O -6.123013 2.530041 -1.130237 0
M  V30 26 C -3.303811 2.304831 -0.636809 0
M  V30 27 N -2.087819 2.825432 -0.566903 0
M  V30 28 N 1.526129 1.234864 0.945943 0
M  V30 29 C 2.392277 0.471806 1.640615 0
M  V30 30 N 3.079648 -0.679296 1.374860 0
M  V30 31 C 3.011816 -1.418138 0.130317 0
M  V30 32 C 1.572163 -1.642646 -0.236430 0
M  V30 33 C 1.402293 -2.229977 -1.621812 0
M  V30 34 C 1.506597 -1.174755 -2.691200 0
M  V30 35 C 2.902914 -0.907580 -3.159705 0
M  V30 36 C 3.927646 -1.447014 -2.202791 0
M  V30 37 C 3.787525 -0.677579 -0.907423 0
M  V30 38 H 2.022986 -3.938139 2.046778 0
M  V30 39 H 2.102505 -3.902239 3.872805 0
M  V30 40 H 1.912030 -2.412848 2.949251 0
M  V30 41 H 4.451549 -4.950226 3.937326 0
M  V30 42 H 5.605361 -4.487974 2.563640 0
M  V30 43 H 4.027592 -5.291931 2.235231 0
M  V30 44 H 4.021685 0.032847 4.444319 0
M  V30 45 H 2.338723 2.405237 4.429622 0
M  V30 46 H 0.396651 3.657470 -0.200653 0
M  V30 47 H -0.964471 1.006188 1.966609 0
M  V30 48 H -3.200026 0.085158 1.802437 0
M  V30 49 H -6.220174 0.113745 1.686598 0
M  V30 50 H -4.800167 -0.951052 1.163811 0
M  V30 51 H -7.028220 -1.909377 0.763230 0
M  V30 52 H -4.968205 -2.134448 -1.023485 0
M  V30 53 H -6.619378 -2.739527 -1.356495 0
M  V30 54 H -5.218232 -0.515048 -2.603253 0
M  V30 55 H -6.737975 -1.264552 -3.129209 0
M  V30 56 H -7.684287 0.797871 -2.304230 0
M  V30 57 H -8.346091 -1.059397 -0.954879 0
M  V30 58 H -3.884896 2.750342 -1.424365 0
M  V30 59 H 3.481768 -2.422060 0.282000 0
M  V30 60 H 1.150220 -2.384899 0.467682 0
M  V30 61 H 0.930280 -0.760579 -0.193637 0
M  V30 62 H 0.340568 -2.596345 -1.644727 0
M  V30 63 H 2.005520 -3.128932 -1.808722 0
M  V30 64 H 0.859563 -1.431754 -3.575980 0
M  V30 65 H 1.033917 -0.245046 -2.257260 0
M  V30 66 H 3.043948 0.210041 -3.158118 0
M  V30 67 H 3.084865 -1.227953 -4.207790 0
M  V30 68 H 4.933720 -1.188035 -2.651762 0
M  V30 69 H 3.933711 -2.530581 -2.096440 0
M  V30 70 H 4.819988 -0.550710 -0.496087 0
M  V30 71 H 3.360065 0.333156 -1.080643 0
M  V30 END ATOM
M  V30 BEGIN BOND
M  V30 1 1 1 2
M  V30 2 1 2 3
M  V30 3 1 2 4
M  V30 4 2 4 5
M  V30 5 1 4 6
M  V30 6 2 6 7
M  V30 7 1 7 8
M  V30 8 2 8 9
M  V30 9 1 9 10
M  V30 10 2 10 11
M  V30 11 1 11 12
M  V30 12 1 12 13
M  V30 13 2 13 14
M  V30 14 1 14 15
M  V30 15 2 15 16
M  V30 16 1 16 17
M  V30 17 1 17 18
M  V30 18 1 18 19
M  V30 19 1 19 20
M  V30 20 1 20 21
M  V30 21 1 21 22
M  V30 22 1 22 23
M  V30 23 1 22 24
M  V30 24 2 24 25
M  V30 25 1 16 26
M  V30 26 2 26 27
M  V30 27 1 11 28
M  V30 28 2 28 29
M  V30 29 1 29 30
M  V30 30 1 30 31
M  V30 31 1 31 32
M  V30 32 1 32 33
M  V30 33 1 33 34
M  V30 34 1 34 35
M  V30 35 1 35 36
M  V30 36 1 36 37
M  V30 37 1 30 6
M  V30 38 1 37 31
M  V30 39 1 29 8
M  V30 40 1 27 13
M  V30 41 1 24 17
M  V30 42 1 23 19
M  V30 43 1 1 38
M  V30 44 1 1 39
M  V30 45 1 1 40
M  V30 46 1 3 41
M  V30 47 1 3 42
M  V30 48 1 3 43
M  V30 49 1 7 44
M  V30 50 1 9 45
M  V30 51 1 12 46
M  V30 52 1 14 47
M  V30 53 1 15 48
M  V30 54 1 18 49
M  V30 55 1 18 50
M  V30 56 1 19 51
M  V30 57 1 20 52
M  V30 58 1 20 53
M  V30 59 1 21 54
M  V30 60 1 21 55
M  V30 61 1 22 56
M  V30 62 1 23 57
M  V30 63 1 26 58
M  V30 64 1 31 59
M  V30 65 1 32 60
M  V30 66 1 32 61
M  V30 67 1 33 62
M  V30 68 1 33 63
M  V30 69 1 34 64
M  V30 70 1 34 65
M  V30 71 1 35 66
M  V30 72 1 35 67
M  V30 73 1 36 68
M  V30 74 1 36 69
M  V30 75 1 37 70
M  V30 76 1 37 71
M  V30 END BOND
M  V30 END CTAB
M  END
>  <Dataset>  (496) 
ChEMBL_Kinases

>  <Ligand_Instance>  (496) 
nan

>  <PDB_ID>  (496) 
nan

>  <Standardized_SMILES>  (496) 
CN(C)C(=O)c1cc2cnc(Nc3ccc(N4CC5CCC(N5)C4=O)cn3)nc2n1C1CCCCCC1

>  <Name>  (496) 
nan

>  <Pocket>  (496) 
nan

>  <ATP_Site>  (496) 
nan

>  <Peripheral>  (496) 
nan

>  <Num_H_Atoms_ProtBoundConf>  (496) 
nan

>  <Num_Resolved_Atoms>  (496) 
nan

>  <Num_Not_Resolved_Atoms>  (496) 
nan

$$$$
CHEMBL3691622
     RDKit          3D

  0  0  0  0  0  0  0  0  0  0999 V3000
M  V30 BEGIN CTAB
M  V30 COUNTS 65 70 0 0 0
M  V30 BEGIN ATOM
M  V30 1 C 4.106179 -0.882578 6.591795 0
M  V30 2 N 4.488207 0.018998 5.520440 0
M  V30 3 C 5.285065 1.200646 5.885159 0
M  V30 4 C 4.144501 -0.203992 4.210950 0
M  V30 5 O 3.671324 -1.189713 4.877370 0
M  V30 6 C 3.817158 -0.379916 2.831837 0
M  V30 7 C 4.846156 -0.690326 1.969010 0
M  V30 8 C 4.226192 -0.799930 0.742016 0
M  V30 9 C 4.766443 -1.095064 -0.495825 0
M  V30 10 N 3.900711 -1.131581 -1.517731 0
M  V30 11 C 2.570315 -0.888789 -1.318699 0
M  V30 12 N 1.752855 -0.916351 -2.469428 0
M  V30 13 C 0.335258 -0.959534 -2.559715 0
M  V30 14 C -0.517547 -1.087925 -1.483914 0
M  V30 15 C -1.900449 -1.097245 -1.596482 0
M  V30 16 C -2.487470 -0.973436 -2.836406 0
M  V30 17 N -3.907474 -0.980796 -2.985313 0
M  V30 18 C -4.497214 -0.797419 -4.293584 0
M  V30 19 C -5.900374 -1.264742 -4.138557 0 CFG=1
M  V30 20 C -6.174291 -2.600819 -4.798547 0
M  V30 21 N -6.950033 -3.365368 -3.841235 0
M  V30 22 C -6.521068 -2.962198 -2.537689 0
M  V30 23 C -6.185935 -1.506475 -2.700604 0 CFG=1
M  V30 24 C -4.926181 -1.134077 -2.022068 0
M  V30 25 O -4.774949 -0.975083 -0.777182 0
M  V30 26 C -1.619750 -0.846675 -3.900577 0
M  V30 27 N -0.292912 -0.844702 -3.731412 0
M  V30 28 N 2.101074 -0.606609 -0.093015 0
M  V30 29 C 2.894178 -0.546175 0.991266 0
M  V30 30 N 2.615119 -0.282932 2.273855 0
M  V30 31 C 1.332514 0.041279 2.873867 0
M  V30 32 C 1.488538 0.985295 4.037882 0
M  V30 33 C 0.165360 1.727798 4.121358 0
M  V30 34 C -0.188621 1.949939 2.678580 0
M  V30 35 C 0.506840 0.871339 1.893945 0
M  V30 36 H 3.002189 -1.055108 6.615877 0
M  V30 37 H 4.584252 -1.859099 6.386311 0
M  V30 38 H 4.471590 -0.520033 7.574592 0
M  V30 39 H 4.711688 1.974845 6.387097 0
M  V30 40 H 6.027236 0.786306 6.634908 0
M  V30 41 H 5.902979 1.538181 5.021533 0
M  V30 42 H 5.897263 -0.831378 2.128461 0
M  V30 43 H 5.818546 -1.278450 -0.606986 0
M  V30 44 H 2.232124 -0.903526 -3.418311 0
M  V30 45 H -0.106379 -1.201499 -0.497828 0
M  V30 46 H -2.473843 -1.204889 -0.687337 0
M  V30 47 H -4.415575 0.281629 -4.550540 0
M  V30 48 H -4.008325 -1.426152 -5.071894 0
M  V30 49 H -6.590222 -0.477488 -4.548996 0
M  V30 50 H -6.794595 -2.412570 -5.695479 0
M  V30 51 H -5.239502 -3.146421 -5.002591 0
M  V30 52 H -7.975669 -3.132117 -3.970500 0
M  V30 53 H -5.709311 -3.562075 -2.113486 0
M  V30 54 H -7.412760 -2.998492 -1.849710 0
M  V30 55 H -7.026079 -0.847821 -2.387939 0
M  V30 56 H -2.008409 -0.747971 -4.896440 0
M  V30 57 H 0.754378 -0.855417 3.140152 0
M  V30 58 H 2.322601 1.680855 3.817889 0
M  V30 59 H 1.588757 0.481650 5.022888 0
M  V30 60 H -0.571772 1.114422 4.666625 0
M  V30 61 H 0.346783 2.705628 4.635301 0
M  V30 62 H 0.139671 2.977149 2.401656 0
M  V30 63 H -1.292825 1.909921 2.542470 0
M  V30 64 H -0.218180 0.247621 1.343955 0
M  V30 65 H 1.192608 1.369654 1.181764 0
M  V30 END ATOM
M  V30 BEGIN BOND
M  V30 1 1 1 2
M  V30 2 1 2 3
M  V30 3 1 2 4
M  V30 4 2 4 5
M  V30 5 1 4 6
M  V30 6 2 6 7
M  V30 7 1 7 8
M  V30 8 2 8 9
M  V30 9 1 9 10
M  V30 10 2 10 11
M  V30 11 1 11 12
M  V30 12 1 12 13
M  V30 13 2 13 14
M  V30 14 1 14 15
M  V30 15 2 15 16
M  V30 16 1 16 17
M  V30 17 1 17 18
M  V30 18 1 18 19
M  V30 19 1 19 20
M  V30 20 1 20 21
M  V30 21 1 21 22
M  V30 22 1 22 23
M  V30 23 1 23 24
M  V30 24 2 24 25
M  V30 25 1 16 26
M  V30 26 2 26 27
M  V30 27 1 11 28
M  V30 28 2 28 29
M  V30 29 1 29 30
M  V30 30 1 30 31
M  V30 31 1 31 32
M  V30 32 1 32 33
M  V30 33 1 33 34
M  V30 34 1 34 35
M  V30 35 1 30 6
M  V30 36 1 35 31
M  V30 37 1 29 8
M  V30 38 1 27 13
M  V30 39 1 24 17
M  V30 40 1 23 19
M  V30 41 1 1 36
M  V30 42 1 1 37
M  V30 43 1 1 38
M  V30 44 1 3 39
M  V30 45 1 3 40
M  V30 46 1 3 41
M  V30 47 1 7 42
M  V30 48 1 9 43
M  V30 49 1 12 44
M  V30 50 1 14 45
M  V30 51 1 15 46
M  V30 52 1 18 47
M  V30 53 1 18 48
M  V30 54 1 19 49 CFG=3
M  V30 55 1 20 50
M  V30 56 1 20 51
M  V30 57 1 21 52
M  V30 58 1 22 53
M  V30 59 1 22 54
M  V30 60 1 23 55 CFG=1
M  V30 61 1 26 56
M  V30 62 1 31 57
M  V30 63 1 32 58
M  V30 64 1 32 59
M  V30 65 1 33 60
M  V30 66 1 33 61
M  V30 67 1 34 62
M  V30 68 1 34 63
M  V30 69 1 35 64
M  V30 70 1 35 65
M  V30 END BOND
M  V30 END CTAB
M  END
>  <Dataset>  (497) 
ChEMBL_Kinases

>  <Ligand_Instance>  (497) 
nan

>  <PDB_ID>  (497) 
nan

>  <Standardized_SMILES>  (497) 
CN(C)C(=O)c1cc2cnc(Nc3ccc(N4C[C@H]5CNC[C@H]5C4=O)cn3)nc2n1C1CCCC1

>  <Name>  (497) 
nan

>  <Pocket>  (497) 
nan

>  <ATP_Site>  (497) 
nan

>  <Peripheral>  (497) 
nan

>  <Num_H_Atoms_ProtBoundConf>  (497) 
nan

>  <Num_Resolved_Atoms>  (497) 
nan

>  <Num_Not_Resolved_Atoms>  (497) 
nan

$$$$
CHEMBL3691624
     RDKit          3D

  0  0  0  0  0  0  0  0  0  0999 V3000
M  V30 BEGIN CTAB
M  V30 COUNTS 74 79 0 0 0
M  V30 BEGIN ATOM
M  V30 1 C 6.838758 1.971964 2.358170 0
M  V30 2 N 5.429206 1.603238 2.221807 0
M  V30 3 C 4.716760 1.034468 3.349189 0
M  V30 4 C 4.891925 1.860556 0.931159 0
M  V30 5 O 5.731633 2.366350 0.107900 0
M  V30 6 C 3.484130 1.519055 0.744086 0
M  V30 7 C 3.300010 0.146307 0.536739 0
M  V30 8 C 1.908464 0.020523 0.404628 0
M  V30 9 C 1.151113 -1.130721 0.195385 0
M  V30 10 N -0.192007 -0.970250 0.120271 0
M  V30 11 C -0.787059 0.251158 0.241156 0
M  V30 12 N -2.205294 0.240124 0.175162 0
M  V30 13 C -2.848529 -1.045158 0.221446 0
M  V30 14 C -4.198708 -1.268825 0.162577 0
M  V30 15 C -4.731747 -2.536528 0.257557 0
M  V30 16 C -3.964513 -3.660009 0.416600 0
M  V30 17 N -4.364977 -5.008876 0.555031 0
M  V30 18 C -3.505896 -6.152270 0.724666 0
M  V30 19 C -3.649924 -7.180740 -0.380457 0
M  V30 20 C -2.984048 -6.672437 -1.611946 0
M  V30 21 N -3.998574 -5.901459 -2.276870 0
M  V30 22 C -5.254974 -6.596677 -2.036328 0
M  V30 23 C -5.095441 -7.361574 -0.770950 0
M  V30 24 C -6.013318 -6.867794 0.333895 0
M  V30 25 C -5.751244 -5.398336 0.552042 0
M  V30 26 O -6.690835 -4.608916 0.716204 0
M  V30 27 C -2.622520 -3.401460 0.468297 0
M  V30 28 N -2.069333 -2.161189 0.377962 0
M  V30 29 N -0.024351 1.336545 0.440891 0
M  V30 30 C 1.331168 1.281882 0.532034 0
M  V30 31 N 2.334169 2.174150 0.739666 0
M  V30 32 C 2.113235 3.566615 0.944633 0
M  V30 33 C 3.246603 4.494903 0.784500 0
M  V30 34 C 3.703677 4.906076 -0.544675 0
M  V30 35 C 2.891257 4.512901 -1.728750 0
M  V30 36 C 1.499783 5.098341 -1.705638 0
M  V30 37 C 0.635942 4.005438 -1.074257 0
M  V30 38 C 0.823214 4.073709 0.391646 0
M  V30 39 H 6.951029 2.512857 3.328511 0
M  V30 40 H 7.151753 2.712100 1.593191 0
M  V30 41 H 7.443168 1.070504 2.394094 0
M  V30 42 H 5.052036 1.463331 4.310701 0
M  V30 43 H 4.869217 -0.083137 3.300337 0
M  V30 44 H 3.627805 1.208820 3.135935 0
M  V30 45 H 3.958328 -0.711056 0.471040 0
M  V30 46 H 1.604808 -2.107203 0.099325 0
M  V30 47 H -2.871900 1.030640 0.093450 0
M  V30 48 H -4.820682 -0.412780 0.039919 0
M  V30 49 H -5.794365 -2.647814 0.202571 0
M  V30 50 H -2.451099 -5.858099 0.816569 0
M  V30 51 H -3.728994 -6.692639 1.687543 0
M  V30 52 H -3.222213 -8.139253 -0.059574 0
M  V30 53 H -2.097441 -6.048373 -1.367011 0
M  V30 54 H -2.670865 -7.474845 -2.319021 0
M  V30 55 H -3.772291 -5.871494 -3.300781 0
M  V30 56 H -5.478324 -7.292164 -2.875967 0
M  V30 57 H -6.104225 -5.884933 -1.980487 0
M  V30 58 H -5.275421 -8.444304 -0.912549 0
M  V30 59 H -5.801951 -7.470714 1.235211 0
M  V30 60 H -7.048435 -6.941220 -0.044104 0
M  V30 61 H -1.790669 -4.076030 0.580464 0
M  V30 62 H 1.908859 3.603759 2.096310 0
M  V30 63 H 4.114251 4.119881 1.381829 0
M  V30 64 H 2.959773 5.437258 1.373963 0
M  V30 65 H 3.731793 6.050502 -0.582984 0
M  V30 66 H 4.770357 4.658945 -0.804086 0
M  V30 67 H 3.387239 4.992273 -2.627289 0
M  V30 68 H 2.850338 3.450996 -1.953263 0
M  V30 69 H 1.461298 5.966350 -1.013078 0
M  V30 70 H 1.146750 5.332714 -2.718854 0
M  V30 71 H -0.414019 4.321997 -1.290384 0
M  V30 72 H 0.796505 3.043357 -1.558671 0
M  V30 73 H 0.783796 5.171057 0.666686 0
M  V30 74 H -0.067748 3.652427 0.916492 0
M  V30 END ATOM
M  V30 BEGIN BOND
M  V30 1 1 1 2
M  V30 2 1 2 3
M  V30 3 1 2 4
M  V30 4 2 4 5
M  V30 5 1 4 6
M  V30 6 2 6 7
M  V30 7 1 7 8
M  V30 8 2 8 9
M  V30 9 1 9 10
M  V30 10 2 10 11
M  V30 11 1 11 12
M  V30 12 1 12 13
M  V30 13 2 13 14
M  V30 14 1 14 15
M  V30 15 2 15 16
M  V30 16 1 16 17
M  V30 17 1 17 18
M  V30 18 1 18 19
M  V30 19 1 19 20
M  V30 20 1 20 21
M  V30 21 1 21 22
M  V30 22 1 22 23
M  V30 23 1 23 24
M  V30 24 1 24 25
M  V30 25 2 25 26
M  V30 26 1 16 27
M  V30 27 2 27 28
M  V30 28 1 11 29
M  V30 29 2 29 30
M  V30 30 1 30 31
M  V30 31 1 31 32
M  V30 32 1 32 33
M  V30 33 1 33 34
M  V30 34 1 34 35
M  V30 35 1 35 36
M  V30 36 1 36 37
M  V30 37 1 37 38
M  V30 38 1 31 6
M  V30 39 1 38 32
M  V30 40 1 30 8
M  V30 41 1 28 13
M  V30 42 1 25 17
M  V30 43 1 23 19
M  V30 44 1 1 39
M  V30 45 1 1 40
M  V30 46 1 1 41
M  V30 47 1 3 42
M  V30 48 1 3 43
M  V30 49 1 3 44
M  V30 50 1 7 45
M  V30 51 1 9 46
M  V30 52 1 12 47
M  V30 53 1 14 48
M  V30 54 1 15 49
M  V30 55 1 18 50
M  V30 56 1 18 51
M  V30 57 1 19 52
M  V30 58 1 20 53
M  V30 59 1 20 54
M  V30 60 1 21 55
M  V30 61 1 22 56
M  V30 62 1 22 57
M  V30 63 1 23 58
M  V30 64 1 24 59
M  V30 65 1 24 60
M  V30 66 1 27 61
M  V30 67 1 32 62
M  V30 68 1 33 63
M  V30 69 1 33 64
M  V30 70 1 34 65
M  V30 71 1 34 66
M  V30 72 1 35 67
M  V30 73 1 35 68
M  V30 74 1 36 69
M  V30 75 1 36 70
M  V30 76 1 37 71
M  V30 77 1 37 72
M  V30 78 1 38 73
M  V30 79 1 38 74
M  V30 END BOND
M  V30 END CTAB
M  END
>  <Dataset>  (498) 
ChEMBL_Kinases

>  <Ligand_Instance>  (498) 
nan

>  <PDB_ID>  (498) 
nan

>  <Standardized_SMILES>  (498) 
CN(C)C(=O)c1cc2cnc(Nc3ccc(N4CC5CNCC5CC4=O)cn3)nc2n1C1CCCCCC1

>  <Name>  (498) 
nan

>  <Pocket>  (498) 
nan

>  <ATP_Site>  (498) 
nan

>  <Peripheral>  (498) 
nan

>  <Num_H_Atoms_ProtBoundConf>  (498) 
nan

>  <Num_Resolved_Atoms>  (498) 
nan

>  <Num_Not_Resolved_Atoms>  (498) 
nan

$$$$
CHEMBL3691613
     RDKit          3D

  0  0  0  0  0  0  0  0  0  0999 V3000
M  V30 BEGIN CTAB
M  V30 COUNTS 67 72 0 0 0
M  V30 BEGIN ATOM
M  V30 1 C 5.700690 -3.228732 1.510656 0
M  V30 2 N 4.621922 -2.492082 0.826003 0
M  V30 3 C 3.620743 -3.290380 0.156067 0
M  V30 4 C 4.752946 -1.087598 0.946685 0
M  V30 5 O 5.741481 -0.699169 1.609372 0
M  V30 6 C 3.731958 -0.255158 0.293477 0
M  V30 7 C 3.782404 -0.109324 -1.101213 0
M  V30 8 C 2.750687 0.695478 -1.463193 0
M  V30 9 C 2.223329 1.224671 -2.618401 0
M  V30 10 N 1.120180 2.025107 -2.639603 0
M  V30 11 C 0.504255 2.320428 -1.458214 0
M  V30 12 N -0.680935 3.080981 -1.133561 0
M  V30 13 C -1.705908 2.239487 -0.544999 0
M  V30 14 C -2.938701 2.692007 -0.141288 0
M  V30 15 C -3.882702 1.881142 0.430666 0
M  V30 16 C -3.659128 0.553014 0.638792 0
M  V30 17 C -4.315605 -0.617886 1.184450 0
M  V30 18 O -4.586570 -0.502046 2.405342 0
M  V30 19 N -4.534054 -1.699409 0.251768 0
M  V30 20 C -4.288664 -1.903935 -1.175355 0
M  V30 21 C -3.571617 -3.219558 -1.369381 0
M  V30 22 C -4.521563 -4.373219 -1.641833 0
M  V30 23 C -4.437344 -5.139880 -0.311162 0
M  V30 24 C -3.955459 -4.031752 0.590728 0
M  V30 25 C -5.066495 -2.986728 0.683719 0
M  V30 26 O -2.899190 -3.518731 -0.183920 0
M  V30 27 C -2.391947 0.101861 0.218051 0
M  V30 28 N -1.459602 0.901124 -0.345818 0
M  V30 29 N 1.033994 1.798715 -0.359074 0
M  V30 30 C 2.099826 1.021309 -0.304342 0
M  V30 31 N 2.703987 0.437588 0.755367 0
M  V30 32 C 2.362862 0.492782 2.160182 0
M  V30 33 C 1.152134 1.262906 2.499493 0
M  V30 34 C 1.648840 2.628713 2.849016 0
M  V30 35 C 2.800587 2.225406 3.789022 0
M  V30 36 C 3.462265 1.100393 2.998517 0
M  V30 37 H 6.058566 -2.725207 2.408864 0
M  V30 38 H 5.364677 -4.241464 1.773127 0
M  V30 39 H 6.570468 -3.342640 0.801076 0
M  V30 40 H 3.683571 -4.361591 0.455354 0
M  V30 41 H 3.748474 -3.305745 -0.962624 0
M  V30 42 H 2.577528 -2.989949 0.388386 0
M  V30 43 H 4.479411 -0.525315 -1.829968 0
M  V30 44 H 2.677445 1.019143 -3.568479 0
M  V30 45 H -0.871516 4.076326 -1.257259 0
M  V30 46 H -3.179729 3.716441 -0.273626 0
M  V30 47 H -4.853678 2.114216 0.782526 0
M  V30 48 H -3.613581 -1.106198 -1.534905 0
M  V30 49 H -5.243634 -1.945779 -1.737917 0
M  V30 50 H -2.885721 -3.122121 -2.248793 0
M  V30 51 H -5.530026 -3.992339 -1.800691 0
M  V30 52 H -4.163965 -5.046223 -2.433614 0
M  V30 53 H -3.637901 -5.927756 -0.410596 0
M  V30 54 H -5.387761 -5.586110 -0.019631 0
M  V30 55 H -3.554729 -4.346372 1.546401 0
M  V30 56 H -5.932393 -3.314976 0.093903 0
M  V30 57 H -5.359836 -2.929265 1.743894 0
M  V30 58 H -1.930752 -0.900357 0.243299 0
M  V30 59 H 2.180130 -0.575284 2.499621 0
M  V30 60 H 0.313204 1.247926 1.788526 0
M  V30 61 H 0.734788 0.838097 3.455344 0
M  V30 62 H 0.895327 3.251886 3.360079 0
M  V30 63 H 2.118468 3.187244 2.027298 0
M  V30 64 H 3.440993 3.090735 3.955903 0
M  V30 65 H 2.299326 1.847363 4.707723 0
M  V30 66 H 3.786414 0.361561 3.746250 0
M  V30 67 H 4.307589 1.506013 2.399289 0
M  V30 END ATOM
M  V30 BEGIN BOND
M  V30 1 1 1 2
M  V30 2 1 2 3
M  V30 3 1 2 4
M  V30 4 2 4 5
M  V30 5 1 4 6
M  V30 6 2 6 7
M  V30 7 1 7 8
M  V30 8 2 8 9
M  V30 9 1 9 10
M  V30 10 2 10 11
M  V30 11 1 11 12
M  V30 12 1 12 13
M  V30 13 2 13 14
M  V30 14 1 14 15
M  V30 15 2 15 16
M  V30 16 1 16 17
M  V30 17 2 17 18
M  V30 18 1 17 19
M  V30 19 1 19 20
M  V30 20 1 20 21
M  V30 21 1 21 22
M  V30 22 1 22 23
M  V30 23 1 23 24
M  V30 24 1 24 25
M  V30 25 1 24 26
M  V30 26 1 16 27
M  V30 27 2 27 28
M  V30 28 1 11 29
M  V30 29 2 29 30
M  V30 30 1 30 31
M  V30 31 1 31 32
M  V30 32 1 32 33
M  V30 33 1 33 34
M  V30 34 1 34 35
M  V30 35 1 35 36
M  V30 36 1 31 6
M  V30 37 1 36 32
M  V30 38 1 30 8
M  V30 39 1 28 13
M  V30 40 1 25 19
M  V30 41 1 26 21
M  V30 42 1 1 37
M  V30 43 1 1 38
M  V30 44 1 1 39
M  V30 45 1 3 40
M  V30 46 1 3 41
M  V30 47 1 3 42
M  V30 48 1 7 43
M  V30 49 1 9 44
M  V30 50 1 12 45
M  V30 51 1 14 46
M  V30 52 1 15 47
M  V30 53 1 20 48
M  V30 54 1 20 49
M  V30 55 1 21 50
M  V30 56 1 22 51
M  V30 57 1 22 52
M  V30 58 1 23 53
M  V30 59 1 23 54
M  V30 60 1 24 55
M  V30 61 1 25 56
M  V30 62 1 25 57
M  V30 63 1 27 58
M  V30 64 1 32 59
M  V30 65 1 33 60
M  V30 66 1 33 61
M  V30 67 1 34 62
M  V30 68 1 34 63
M  V30 69 1 35 64
M  V30 70 1 35 65
M  V30 71 1 36 66
M  V30 72 1 36 67
M  V30 END BOND
M  V30 END CTAB
M  END
>  <Dataset>  (499) 
ChEMBL_Kinases

>  <Ligand_Instance>  (499) 
nan

>  <PDB_ID>  (499) 
nan

>  <Standardized_SMILES>  (499) 
CN(C)C(=O)c1cc2cnc(Nc3ccc(C(=O)N4CC5CCC(C4)O5)cn3)nc2n1C1CCCC1

>  <Name>  (499) 
nan

>  <Pocket>  (499) 
nan

>  <ATP_Site>  (499) 
nan

>  <Peripheral>  (499) 
nan

>  <Num_H_Atoms_ProtBoundConf>  (499) 
nan

>  <Num_Resolved_Atoms>  (499) 
nan

>  <Num_Not_Resolved_Atoms>  (499) 
nan

$$$$
CHEMBL3689495
     RDKit          3D

  0  0  0  0  0  0  0  0  0  0999 V3000
M  V30 BEGIN CTAB
M  V30 COUNTS 46 49 0 0 0
M  V30 BEGIN ATOM
M  V30 1 C 0.493132 -7.972175 0.001350 0
M  V30 2 C 0.857674 -6.817178 -0.001417 0
M  V30 3 C 1.281549 -5.446525 0.018537 0
M  V30 4 C 1.862943 -4.855016 -1.081603 0
M  V30 5 C 2.277891 -3.540662 -1.085969 0
M  V30 6 C 2.127263 -2.744884 0.029135 0
M  V30 7 C 2.501744 -1.324203 0.214831 0
M  V30 8 N 1.457428 -0.393712 -0.096171 0
M  V30 9 C 0.977305 -0.407691 -1.434176 0
M  V30 10 C 0.827854 1.055009 -1.864207 0
M  V30 11 C 0.783142 1.745095 -0.496647 0 CFG=1
M  V30 12 N -0.478336 1.368070 0.114468 0
M  V30 13 C -0.781986 1.991169 1.339418 0
M  V30 14 C 0.059456 2.926710 1.898340 0
M  V30 15 C -0.179791 3.564086 3.096136 0
M  V30 16 C -1.326298 3.274288 3.813104 0
M  V30 17 C -2.209137 2.344540 3.303880 0
M  V30 18 C -3.352709 2.052020 4.013832 0
M  V30 19 N -4.227400 1.132941 3.512823 0
M  V30 20 C -3.978124 0.519522 2.341286 0
M  V30 21 C -2.827926 0.833557 1.656959 0
M  V30 22 C -1.903993 1.746924 2.099895 0
M  V30 23 C 1.937434 0.966146 0.159622 0
M  V30 24 C 1.534197 -3.378145 1.125502 0
M  V30 25 C 1.110070 -4.690011 1.157820 0
M  V30 26 H 0.163844 -8.985441 0.001301 0
M  V30 27 H 2.011397 -5.431170 -1.998938 0
M  V30 28 H 2.739396 -3.051086 -1.931623 0
M  V30 29 H 3.426509 -1.069398 -0.345044 0
M  V30 30 H 2.785225 -1.169245 1.291216 0
M  V30 31 H -0.069892 -0.806726 -1.438071 0
M  V30 32 H 1.625430 -0.959154 -2.113303 0
M  V30 33 H -0.076259 1.228609 -2.450695 0
M  V30 34 H 1.756862 1.416118 -2.344769 0
M  V30 35 H 0.963472 2.814095 -0.539470 0
M  V30 36 H -1.092986 0.678556 -0.351243 0
M  V30 37 H 0.978652 3.252932 1.449537 0
M  V30 38 H 0.464570 4.296815 3.549151 0
M  V30 39 H -1.554215 3.749756 4.756320 0
M  V30 40 H -3.529996 2.566037 4.963769 0
M  V30 41 H -4.717903 -0.208369 1.991786 0
M  V30 42 H -2.699387 0.305400 0.735138 0
M  V30 43 H 2.049746 1.165825 1.218310 0
M  V30 44 H 2.802627 1.146111 -0.478913 0
M  V30 45 H 1.375870 -2.822635 2.052230 0
M  V30 46 H 0.661954 -5.113372 2.034465 0
M  V30 END ATOM
M  V30 BEGIN BOND
M  V30 1 3 1 2
M  V30 2 1 2 3
M  V30 3 2 3 4
M  V30 4 1 4 5
M  V30 5 2 5 6
M  V30 6 1 6 7
M  V30 7 1 7 8
M  V30 8 1 8 9
M  V30 9 1 9 10
M  V30 10 1 10 11
M  V30 11 1 11 12
M  V30 12 1 12 13
M  V30 13 2 13 14
M  V30 14 1 14 15
M  V30 15 2 15 16
M  V30 16 1 16 17
M  V30 17 2 17 18
M  V30 18 1 18 19
M  V30 19 2 19 20
M  V30 20 1 20 21
M  V30 21 2 21 22
M  V30 22 1 11 23
M  V30 23 1 6 24
M  V30 24 2 24 25
M  V30 25 1 25 3
M  V30 26 1 23 8
M  V30 27 1 22 13
M  V30 28 1 22 17
M  V30 29 1 1 26
M  V30 30 1 4 27
M  V30 31 1 5 28
M  V30 32 1 7 29
M  V30 33 1 7 30
M  V30 34 1 9 31
M  V30 35 1 9 32
M  V30 36 1 10 33
M  V30 37 1 10 34
M  V30 38 1 11 35 CFG=3
M  V30 39 1 12 36
M  V30 40 1 14 37
M  V30 41 1 15 38
M  V30 42 1 16 39
M  V30 43 1 18 40
M  V30 44 1 20 41
M  V30 45 1 21 42
M  V30 46 1 23 43
M  V30 47 1 23 44
M  V30 48 1 24 45
M  V30 49 1 25 46
M  V30 END BOND
M  V30 END CTAB
M  END
>  <Dataset>  (500) 
ChEMBL_Kinases

>  <Ligand_Instance>  (500) 
nan

>  <PDB_ID>  (500) 
nan

>  <Standardized_SMILES>  (500) 
C#Cc1ccc(CN2CC[C@@H](Nc3cccc4cnccc34)C2)cc1

>  <Name>  (500) 
nan

>  <Pocket>  (500) 
nan

>  <ATP_Site>  (500) 
nan

>  <Peripheral>  (500) 
nan

>  <Num_H_Atoms_ProtBoundConf>  (500) 
nan

>  <Num_Resolved_Atoms>  (500) 
nan

>  <Num_Not_Resolved_Atoms>  (500) 
nan

$$$$
CHEMBL3689494
     RDKit          3D

  0  0  0  0  0  0  0  0  0  0999 V3000
M  V30 BEGIN CTAB
M  V30 COUNTS 44 47 0 0 0
M  V30 BEGIN ATOM
M  V30 1 Cl -2.023881 -4.003412 4.393303 0
M  V30 2 C -0.932738 -3.952351 3.030466 0
M  V30 3 C -1.292583 -4.437990 1.811627 0
M  V30 4 C -0.395730 -4.372519 0.775028 0
M  V30 5 C 0.892088 -3.834982 0.863906 0
M  V30 6 C 1.821031 -3.786542 -0.281988 0
M  V30 7 N 1.713398 -2.567541 -1.006065 0
M  V30 8 C 0.448341 -2.235871 -1.555797 0
M  V30 9 C 0.387170 -0.690609 -1.502176 0
M  V30 10 C 1.107614 -0.501951 -0.191775 0 CFG=2
M  V30 11 N 1.376171 0.807723 0.204645 0
M  V30 12 C 1.086674 2.108138 0.653703 0
M  V30 13 C 2.064124 3.100660 0.820800 0
M  V30 14 C 1.773308 4.362681 1.263255 0
M  V30 15 C 0.458837 4.611806 1.539284 0
M  V30 16 C -0.582207 3.721400 1.414647 0
M  V30 17 C -1.861455 4.118322 1.740291 0
M  V30 18 N -2.844405 3.205400 1.609444 0
M  V30 19 C -2.596027 1.951295 1.178186 0
M  V30 20 C -1.296963 1.620829 0.870007 0
M  V30 21 C -0.202399 2.469423 0.962210 0
M  V30 22 C 2.317723 -1.413441 -0.412799 0
M  V30 23 C 1.172263 -3.369676 2.123944 0
M  V30 24 C 0.315697 -3.407568 3.202037 0
M  V30 25 H -2.275116 -4.863996 1.686587 0
M  V30 26 H -0.750877 -4.784700 -0.165655 0
M  V30 27 H 1.530428 -4.606426 -0.998954 0
M  V30 28 H 2.861389 -3.985350 0.078247 0
M  V30 29 H 0.270994 -2.601135 -2.581523 0
M  V30 30 H -0.365703 -2.559599 -0.883845 0
M  V30 31 H -0.626886 -0.334366 -1.489289 0
M  V30 32 H 1.013828 -0.284463 -2.327219 0
M  V30 33 H 0.480438 -1.009132 0.606570 0
M  V30 34 H 2.399485 0.755780 0.077856 0
M  V30 35 H 3.118331 2.877288 0.591911 0
M  V30 36 H 2.581605 5.062714 1.363108 0
M  V30 37 H 0.248758 5.613185 1.886761 0
M  V30 38 H -2.038475 5.130067 2.084753 0
M  V30 39 H -3.402838 1.241489 1.083499 0
M  V30 40 H -1.150427 0.612641 0.542874 0
M  V30 41 H 2.961210 -0.887734 -1.165295 0
M  V30 42 H 2.897273 -1.594095 0.495731 0
M  V30 43 H 2.139959 -2.931228 2.321593 0
M  V30 44 H 0.598457 -3.024981 4.163695 0
M  V30 END ATOM
M  V30 BEGIN BOND
M  V30 1 1 1 2
M  V30 2 2 2 3
M  V30 3 1 3 4
M  V30 4 2 4 5
M  V30 5 1 5 6
M  V30 6 1 6 7
M  V30 7 1 7 8
M  V30 8 1 8 9
M  V30 9 1 9 10
M  V30 10 1 10 11
M  V30 11 1 11 12
M  V30 12 2 12 13
M  V30 13 1 13 14
M  V30 14 2 14 15
M  V30 15 1 15 16
M  V30 16 2 16 17
M  V30 17 1 17 18
M  V30 18 2 18 19
M  V30 19 1 19 20
M  V30 20 2 20 21
M  V30 21 1 10 22
M  V30 22 1 5 23
M  V30 23 2 23 24
M  V30 24 1 24 2
M  V30 25 1 22 7
M  V30 26 1 21 12
M  V30 27 1 21 16
M  V30 28 1 3 25
M  V30 29 1 4 26
M  V30 30 1 6 27
M  V30 31 1 6 28
M  V30 32 1 8 29
M  V30 33 1 8 30
M  V30 34 1 9 31
M  V30 35 1 9 32
M  V30 36 1 10 33 CFG=1
M  V30 37 1 11 34
M  V30 38 1 13 35
M  V30 39 1 14 36
M  V30 40 1 15 37
M  V30 41 1 17 38
M  V30 42 1 19 39
M  V30 43 1 20 40
M  V30 44 1 22 41
M  V30 45 1 22 42
M  V30 46 1 23 43
M  V30 47 1 24 44
M  V30 END BOND
M  V30 END CTAB
M  END
>  <Dataset>  (501) 
ChEMBL_Kinases

>  <Ligand_Instance>  (501) 
nan

>  <PDB_ID>  (501) 
nan

>  <Standardized_SMILES>  (501) 
Clc1ccc(CN2CC[C@H](Nc3cccc4cnccc34)C2)cc1

>  <Name>  (501) 
nan

>  <Pocket>  (501) 
nan

>  <ATP_Site>  (501) 
nan

>  <Peripheral>  (501) 
nan

>  <Num_H_Atoms_ProtBoundConf>  (501) 
nan

>  <Num_Resolved_Atoms>  (501) 
nan

>  <Num_Not_Resolved_Atoms>  (501) 
nan

$$$$
CHEMBL3689493
     RDKit          3D

  0  0  0  0  0  0  0  0  0  0999 V3000
M  V30 BEGIN CTAB
M  V30 COUNTS 48 51 0 0 0
M  V30 BEGIN ATOM
M  V30 1 C -2.348165 -7.078581 0.766531 0
M  V30 2 S -3.459735 -5.642888 0.797735 0
M  V30 3 C -2.676845 -4.330056 -0.162474 0
M  V30 4 C -1.450793 -4.512490 -0.762193 0
M  V30 5 C -0.909043 -3.475798 -1.478442 0
M  V30 6 C -1.539339 -2.265884 -1.620907 0
M  V30 7 C -1.039935 -1.086642 -2.371178 0
M  V30 8 N -0.255965 -0.239664 -1.493254 0
M  V30 9 C 0.261546 0.928819 -2.169499 0
M  V30 10 C 0.771682 1.774085 -1.025945 0
M  V30 11 C -0.200910 1.468727 0.085242 0 CFG=2
M  V30 12 N 0.425611 1.041889 1.294630 0
M  V30 13 C 1.306093 1.846571 2.057753 0
M  V30 14 C 1.648055 3.138484 1.733147 0
M  V30 15 C 2.494533 3.945389 2.437423 0
M  V30 16 C 3.076555 3.445774 3.586936 0
M  V30 17 C 2.777591 2.166078 3.965775 0
M  V30 18 C 3.377511 1.703130 5.117863 0
M  V30 19 N 3.117793 0.441582 5.541414 0
M  V30 20 C 2.272386 -0.364524 4.837994 0
M  V30 21 C 1.697700 0.142610 3.694207 0
M  V30 22 C 1.911676 1.395313 3.210683 0
M  V30 23 C -1.125958 0.423646 -0.506765 0
M  V30 24 C -2.768124 -2.069318 -1.025413 0
M  V30 25 C -3.333254 -3.106693 -0.296051 0
M  V30 26 H -2.431137 -7.574982 -0.222434 0
M  V30 27 H -1.272734 -6.779495 0.907079 0
M  V30 28 H -2.562197 -7.782993 1.607961 0
M  V30 29 H -0.934318 -5.458463 -0.663808 0
M  V30 30 H 0.048914 -3.570275 -1.966476 0
M  V30 31 H -0.397496 -1.460895 -3.190817 0
M  V30 32 H -1.874388 -0.527477 -2.849521 0
M  V30 33 H 1.070557 0.681103 -2.886229 0
M  V30 34 H -0.589371 1.427722 -2.709503 0
M  V30 35 H 0.768258 2.844433 -1.327193 0
M  V30 36 H 1.793670 1.399792 -0.790859 0
M  V30 37 H -0.808769 2.401580 0.239708 0
M  V30 38 H 0.172663 0.074647 1.566583 0
M  V30 39 H 1.237315 3.609452 0.854987 0
M  V30 40 H 2.741660 4.952107 2.156461 0
M  V30 41 H 3.749509 4.053713 4.168045 0
M  V30 42 H 4.048403 2.324487 5.687515 0
M  V30 43 H 2.097459 -1.368232 5.220459 0
M  V30 44 H 1.050327 -0.551423 3.203767 0
M  V30 45 H -1.563945 -0.261467 0.212069 0
M  V30 46 H -1.930398 0.899088 -1.096568 0
M  V30 47 H -3.401197 -1.169516 -1.041138 0
M  V30 48 H -4.299426 -3.019678 0.199426 0
M  V30 END ATOM
M  V30 BEGIN BOND
M  V30 1 1 1 2
M  V30 2 1 2 3
M  V30 3 2 3 4
M  V30 4 1 4 5
M  V30 5 2 5 6
M  V30 6 1 6 7
M  V30 7 1 7 8
M  V30 8 1 8 9
M  V30 9 1 9 10
M  V30 10 1 10 11
M  V30 11 1 11 12
M  V30 12 1 12 13
M  V30 13 2 13 14
M  V30 14 1 14 15
M  V30 15 2 15 16
M  V30 16 1 16 17
M  V30 17 2 17 18
M  V30 18 1 18 19
M  V30 19 2 19 20
M  V30 20 1 20 21
M  V30 21 2 21 22
M  V30 22 1 11 23
M  V30 23 1 6 24
M  V30 24 2 24 25
M  V30 25 1 25 3
M  V30 26 1 23 8
M  V30 27 1 22 13
M  V30 28 1 22 17
M  V30 29 1 1 26
M  V30 30 1 1 27
M  V30 31 1 1 28
M  V30 32 1 4 29
M  V30 33 1 5 30
M  V30 34 1 7 31
M  V30 35 1 7 32
M  V30 36 1 9 33
M  V30 37 1 9 34
M  V30 38 1 10 35
M  V30 39 1 10 36
M  V30 40 1 11 37 CFG=1
M  V30 41 1 12 38
M  V30 42 1 14 39
M  V30 43 1 15 40
M  V30 44 1 16 41
M  V30 45 1 18 42
M  V30 46 1 20 43
M  V30 47 1 21 44
M  V30 48 1 23 45
M  V30 49 1 23 46
M  V30 50 1 24 47
M  V30 51 1 25 48
M  V30 END BOND
M  V30 END CTAB
M  END
>  <Dataset>  (502) 
ChEMBL_Kinases

>  <Ligand_Instance>  (502) 
nan

>  <PDB_ID>  (502) 
nan

>  <Standardized_SMILES>  (502) 
CSc1ccc(CN2CC[C@H](Nc3cccc4cnccc34)C2)cc1

>  <Name>  (502) 
nan

>  <Pocket>  (502) 
nan

>  <ATP_Site>  (502) 
nan

>  <Peripheral>  (502) 
nan

>  <Num_H_Atoms_ProtBoundConf>  (502) 
nan

>  <Num_Resolved_Atoms>  (502) 
nan

>  <Num_Not_Resolved_Atoms>  (502) 
nan

$$$$
CHEMBL3689492
     RDKit          3D

  0  0  0  0  0  0  0  0  0  0999 V3000
M  V30 BEGIN CTAB
M  V30 COUNTS 47 50 0 0 0
M  V30 BEGIN ATOM
M  V30 1 C -1.325427 -6.927787 0.468851 0
M  V30 2 C -0.619223 -5.714951 0.012759 0
M  V30 3 C 0.616058 -5.393478 0.561156 0
M  V30 4 C 1.287316 -4.244105 0.130235 0
M  V30 5 C 0.762404 -3.388058 -0.845161 0
M  V30 6 C 1.499029 -2.194535 -1.267331 0
M  V30 7 N 1.211592 -0.997130 -0.511032 0
M  V30 8 C 2.018913 0.075411 -1.057708 0
M  V30 9 C 1.341137 1.382088 -0.713355 0
M  V30 10 C -0.050466 0.963200 -0.338934 0 CFG=2
M  V30 11 N -0.285803 1.091481 1.068038 0
M  V30 12 C -0.223362 2.348339 1.699932 0
M  V30 13 C 0.048881 3.505840 1.007385 0
M  V30 14 C 0.125639 4.761512 1.574550 0
M  V30 15 C -0.079006 4.910948 2.930695 0
M  V30 16 C -0.354903 3.783442 3.669041 0
M  V30 17 C -0.565380 3.891141 5.026064 0
M  V30 18 N -0.841987 2.809248 5.806496 0
M  V30 19 C -0.914019 1.574293 5.228280 0
M  V30 20 C -0.700348 1.486702 3.868488 0
M  V30 21 C -0.418386 2.555625 3.045120 0
M  V30 22 C -0.134701 -0.490968 -0.822114 0
M  V30 23 C -0.477580 -3.714049 -1.393185 0
M  V30 24 C -1.095297 -4.854302 -0.934892 0
M  V30 25 H -0.573255 -7.640668 0.879490 0
M  V30 26 H -1.834757 -7.430825 -0.378211 0
M  V30 27 H -2.090404 -6.654660 1.218109 0
M  V30 28 H 1.096998 -6.014845 1.332960 0
M  V30 29 H 2.258120 -4.044798 0.601105 0
M  V30 30 H 2.583577 -2.400350 -1.151228 0
M  V30 31 H 1.374805 -1.965894 -2.358719 0
M  V30 32 H 1.965758 -0.041811 -2.167464 0
M  V30 33 H 3.070099 0.027561 -0.713542 0
M  V30 34 H 1.926189 1.843764 0.087481 0
M  V30 35 H 1.344299 2.082755 -1.583829 0
M  V30 36 H -0.808077 1.539773 -0.941722 0
M  V30 37 H -0.497770 0.194674 1.545339 0
M  V30 38 H 0.223679 3.519352 -0.055785 0
M  V30 39 H 0.337640 5.655021 1.029452 0
M  V30 40 H -0.029898 5.858160 3.411533 0
M  V30 41 H -0.522543 4.831836 5.539021 0
M  V30 42 H -1.133750 0.718143 5.850913 0
M  V30 43 H -0.773193 0.487398 3.488794 0
M  V30 44 H -0.234552 -0.517240 -1.911450 0
M  V30 45 H -0.929175 -1.027120 -0.294665 0
M  V30 46 H -0.923803 -3.076215 -2.155140 0
M  V30 47 H -2.064980 -5.108190 -1.364225 0
M  V30 END ATOM
M  V30 BEGIN BOND
M  V30 1 1 1 2
M  V30 2 2 2 3
M  V30 3 1 3 4
M  V30 4 2 4 5
M  V30 5 1 5 6
M  V30 6 1 6 7
M  V30 7 1 7 8
M  V30 8 1 8 9
M  V30 9 1 9 10
M  V30 10 1 10 11
M  V30 11 1 11 12
M  V30 12 2 12 13
M  V30 13 1 13 14
M  V30 14 2 14 15
M  V30 15 1 15 16
M  V30 16 2 16 17
M  V30 17 1 17 18
M  V30 18 2 18 19
M  V30 19 1 19 20
M  V30 20 2 20 21
M  V30 21 1 10 22
M  V30 22 1 5 23
M  V30 23 2 23 24
M  V30 24 1 24 2
M  V30 25 1 22 7
M  V30 26 1 21 12
M  V30 27 1 21 16
M  V30 28 1 1 25
M  V30 29 1 1 26
M  V30 30 1 1 27
M  V30 31 1 3 28
M  V30 32 1 4 29
M  V30 33 1 6 30
M  V30 34 1 6 31
M  V30 35 1 8 32
M  V30 36 1 8 33
M  V30 37 1 9 34
M  V30 38 1 9 35
M  V30 39 1 10 36 CFG=3
M  V30 40 1 11 37
M  V30 41 1 13 38
M  V30 42 1 14 39
M  V30 43 1 15 40
M  V30 44 1 17 41
M  V30 45 1 19 42
M  V30 46 1 20 43
M  V30 47 1 22 44
M  V30 48 1 22 45
M  V30 49 1 23 46
M  V30 50 1 24 47
M  V30 END BOND
M  V30 END CTAB
M  END
>  <Dataset>  (503) 
ChEMBL_Kinases

>  <Ligand_Instance>  (503) 
nan

>  <PDB_ID>  (503) 
nan

>  <Standardized_SMILES>  (503) 
Cc1ccc(CN2CC[C@H](Nc3cccc4cnccc34)C2)cc1

>  <Name>  (503) 
nan

>  <Pocket>  (503) 
nan

>  <ATP_Site>  (503) 
nan

>  <Peripheral>  (503) 
nan

>  <Num_H_Atoms_ProtBoundConf>  (503) 
nan

>  <Num_Resolved_Atoms>  (503) 
nan

>  <Num_Not_Resolved_Atoms>  (503) 
nan

$$$$
CHEMBL3689491
     RDKit          3D

  0  0  0  0  0  0  0  0  0  0999 V3000
M  V30 BEGIN CTAB
M  V30 COUNTS 44 47 0 0 0
M  V30 BEGIN ATOM
M  V30 1 Cl -1.699106 -6.876841 3.862702 0
M  V30 2 C -0.716758 -5.743704 2.960243 0
M  V30 3 C -0.510439 -5.969988 1.616067 0
M  V30 4 C 0.258105 -5.096368 0.877906 0
M  V30 5 C 0.856635 -3.972398 1.404999 0
M  V30 6 C 1.682002 -2.961615 0.751325 0
M  V30 7 N 0.953580 -1.829762 0.275802 0
M  V30 8 C -0.006116 -2.165003 -0.715382 0
M  V30 9 C 0.121578 -1.167157 -1.825231 0
M  V30 10 C 0.838574 -0.015803 -1.212204 0 CFG=1
M  V30 11 N -0.007737 0.922766 -0.505129 0
M  V30 12 C 0.524514 2.123869 0.022291 0
M  V30 13 C 1.834076 2.457949 -0.139417 0
M  V30 14 C 2.374964 3.619861 0.373136 0
M  V30 15 C 1.597053 4.510193 1.084873 0
M  V30 16 C 0.272582 4.205661 1.266922 0
M  V30 17 C -0.563128 5.063910 1.975891 0
M  V30 18 N -1.873497 4.800304 2.177430 0
M  V30 19 C -2.391839 3.657681 1.669946 0
M  V30 20 C -1.561309 2.810571 0.968658 0
M  V30 21 C -0.221946 3.033918 0.736585 0
M  V30 22 C 1.762744 -0.752339 -0.234269 0
M  V30 23 C 0.607957 -3.801214 2.773297 0
M  V30 24 C -0.148715 -4.638553 3.557356 0
M  V30 25 H -0.922475 -6.813477 1.078948 0
M  V30 26 H 0.431296 -5.266970 -0.173804 0
M  V30 27 H 2.270467 -3.469205 -0.046097 0
M  V30 28 H 2.424823 -2.565729 1.505310 0
M  V30 29 H 0.084131 -3.160031 -1.176190 0
M  V30 30 H -1.006381 -2.149425 -0.230314 0
M  V30 31 H 0.774781 -1.581785 -2.614257 0
M  V30 32 H -0.842145 -0.901868 -2.294440 0
M  V30 33 H 1.417230 0.518183 -1.963717 0
M  V30 34 H -0.993484 0.599056 -0.450523 0
M  V30 35 H 2.544116 1.870125 -0.670188 0
M  V30 36 H 3.406881 3.904312 0.257987 0
M  V30 37 H 2.013093 5.421886 1.489278 0
M  V30 38 H -0.166094 5.988019 2.392253 0
M  V30 39 H -3.434324 3.466967 1.841043 0
M  V30 40 H -2.053689 1.924626 0.599443 0
M  V30 41 H 2.153809 -0.101913 0.560611 0
M  V30 42 H 2.565777 -1.199152 -0.855152 0
M  V30 43 H 1.038982 -2.935240 3.294502 0
M  V30 44 H -0.292684 -4.435137 4.609098 0
M  V30 END ATOM
M  V30 BEGIN BOND
M  V30 1 1 1 2
M  V30 2 2 2 3
M  V30 3 1 3 4
M  V30 4 2 4 5
M  V30 5 1 5 6
M  V30 6 1 6 7
M  V30 7 1 7 8
M  V30 8 1 8 9
M  V30 9 1 9 10
M  V30 10 1 10 11
M  V30 11 1 11 12
M  V30 12 2 12 13
M  V30 13 1 13 14
M  V30 14 2 14 15
M  V30 15 1 15 16
M  V30 16 2 16 17
M  V30 17 1 17 18
M  V30 18 2 18 19
M  V30 19 1 19 20
M  V30 20 2 20 21
M  V30 21 1 10 22
M  V30 22 1 5 23
M  V30 23 2 23 24
M  V30 24 1 24 2
M  V30 25 1 22 7
M  V30 26 1 21 12
M  V30 27 1 21 16
M  V30 28 1 3 25
M  V30 29 1 4 26
M  V30 30 1 6 27
M  V30 31 1 6 28
M  V30 32 1 8 29
M  V30 33 1 8 30
M  V30 34 1 9 31
M  V30 35 1 9 32
M  V30 36 1 10 33 CFG=3
M  V30 37 1 11 34
M  V30 38 1 13 35
M  V30 39 1 14 36
M  V30 40 1 15 37
M  V30 41 1 17 38
M  V30 42 1 19 39
M  V30 43 1 20 40
M  V30 44 1 22 41
M  V30 45 1 22 42
M  V30 46 1 23 43
M  V30 47 1 24 44
M  V30 END BOND
M  V30 END CTAB
M  END
>  <Dataset>  (504) 
ChEMBL_Kinases

>  <Ligand_Instance>  (504) 
nan

>  <PDB_ID>  (504) 
nan

>  <Standardized_SMILES>  (504) 
Clc1ccc(CN2CC[C@@H](Nc3cccc4cnccc34)C2)cc1

>  <Name>  (504) 
nan

>  <Pocket>  (504) 
nan

>  <ATP_Site>  (504) 
nan

>  <Peripheral>  (504) 
nan

>  <Num_H_Atoms_ProtBoundConf>  (504) 
nan

>  <Num_Resolved_Atoms>  (504) 
nan

>  <Num_Not_Resolved_Atoms>  (504) 
nan

$$$$
CHEMBL3689490
     RDKit          3D

  0  0  0  0  0  0  0  0  0  0999 V3000
M  V30 BEGIN CTAB
M  V30 COUNTS 48 51 0 0 0
M  V30 BEGIN ATOM
M  V30 1 C -2.717542 -6.790873 1.884273 0
M  V30 2 S -3.047116 -5.057940 2.298794 0
M  V30 3 C -2.391208 -3.950115 1.069960 0
M  V30 4 C -1.091967 -3.487737 1.231451 0
M  V30 5 C -0.634884 -2.633840 0.252441 0
M  V30 6 C -1.386583 -2.239227 -0.833201 0
M  V30 7 C -0.911658 -1.320205 -1.897605 0
M  V30 8 N -1.159617 0.057279 -1.662045 0
M  V30 9 C -0.705784 0.959842 -2.684902 0
M  V30 10 C 0.103455 2.029539 -2.026156 0
M  V30 11 C 0.519164 1.307654 -0.741062 0 CFG=1
M  V30 12 N 0.996790 2.122489 0.300405 0
M  V30 13 C 1.593639 2.357478 1.567775 0
M  V30 14 C 1.748496 3.660540 2.067545 0
M  V30 15 C 2.329188 3.874531 3.289080 0
M  V30 16 C 2.745186 2.771025 3.988261 0
M  V30 17 C 2.638428 1.459441 3.584698 0
M  V30 18 C 3.100551 0.424717 4.372062 0
M  V30 19 N 2.971889 -0.833722 3.912522 0
M  V30 20 C 2.403057 -1.086577 2.705638 0
M  V30 21 C 1.962564 -0.011613 1.969363 0
M  V30 22 C 2.043927 1.308476 2.343285 0
M  V30 23 C -0.773580 0.581523 -0.398209 0
M  V30 24 C -2.687102 -2.722756 -0.963863 0
M  V30 25 C -3.185916 -3.585360 0.000751 0
M  V30 26 H -3.274774 -7.092407 0.981197 0
M  V30 27 H -3.058952 -7.394491 2.751438 0
M  V30 28 H -1.616760 -6.985852 1.801821 0
M  V30 29 H -0.456302 -3.764892 2.064783 0
M  V30 30 H 0.364698 -2.257619 0.345886 0
M  V30 31 H 0.197133 -1.456455 -2.064228 0
M  V30 32 H -1.355845 -1.569713 -2.886571 0
M  V30 33 H -0.140058 0.422956 -3.477125 0
M  V30 34 H -1.587511 1.430901 -3.153112 0
M  V30 35 H -0.424855 2.962862 -1.829245 0
M  V30 36 H 0.985275 2.216328 -2.673146 0
M  V30 37 H 1.245401 0.555290 -1.088150 0
M  V30 38 H 0.764557 3.039264 -0.132737 0
M  V30 39 H 1.413713 4.530635 1.502418 0
M  V30 40 H 2.424377 4.892682 3.626923 0
M  V30 41 H 3.195107 2.996170 4.943796 0
M  V30 42 H 3.547832 0.673557 5.328438 0
M  V30 43 H 2.315324 -2.109075 2.365999 0
M  V30 44 H 1.533286 -0.275439 1.025046 0
M  V30 45 H -0.717259 -0.113677 0.424126 0
M  V30 46 H -1.503096 1.413094 -0.165922 0
M  V30 47 H -3.370960 -2.483058 -1.772814 0
M  V30 48 H -4.199683 -3.992838 -0.055358 0
M  V30 END ATOM
M  V30 BEGIN BOND
M  V30 1 1 1 2
M  V30 2 1 2 3
M  V30 3 2 3 4
M  V30 4 1 4 5
M  V30 5 2 5 6
M  V30 6 1 6 7
M  V30 7 1 7 8
M  V30 8 1 8 9
M  V30 9 1 9 10
M  V30 10 1 10 11
M  V30 11 1 11 12
M  V30 12 1 12 13
M  V30 13 2 13 14
M  V30 14 1 14 15
M  V30 15 2 15 16
M  V30 16 1 16 17
M  V30 17 2 17 18
M  V30 18 1 18 19
M  V30 19 2 19 20
M  V30 20 1 20 21
M  V30 21 2 21 22
M  V30 22 1 11 23
M  V30 23 1 6 24
M  V30 24 2 24 25
M  V30 25 1 25 3
M  V30 26 1 23 8
M  V30 27 1 22 13
M  V30 28 1 22 17
M  V30 29 1 1 26
M  V30 30 1 1 27
M  V30 31 1 1 28
M  V30 32 1 4 29
M  V30 33 1 5 30
M  V30 34 1 7 31
M  V30 35 1 7 32
M  V30 36 1 9 33
M  V30 37 1 9 34
M  V30 38 1 10 35
M  V30 39 1 10 36
M  V30 40 1 11 37 CFG=3
M  V30 41 1 12 38
M  V30 42 1 14 39
M  V30 43 1 15 40
M  V30 44 1 16 41
M  V30 45 1 18 42
M  V30 46 1 20 43
M  V30 47 1 21 44
M  V30 48 1 23 45
M  V30 49 1 23 46
M  V30 50 1 24 47
M  V30 51 1 25 48
M  V30 END BOND
M  V30 END CTAB
M  END
>  <Dataset>  (505) 
ChEMBL_Kinases

>  <Ligand_Instance>  (505) 
nan

>  <PDB_ID>  (505) 
nan

>  <Standardized_SMILES>  (505) 
CSc1ccc(CN2CC[C@@H](Nc3cccc4cnccc34)C2)cc1

>  <Name>  (505) 
nan

>  <Pocket>  (505) 
nan

>  <ATP_Site>  (505) 
nan

>  <Peripheral>  (505) 
nan

>  <Num_H_Atoms_ProtBoundConf>  (505) 
nan

>  <Num_Resolved_Atoms>  (505) 
nan

>  <Num_Not_Resolved_Atoms>  (505) 
nan

$$$$
CHEMBL3689489
     RDKit          3D

  0  0  0  0  0  0  0  0  0  0999 V3000
M  V30 BEGIN CTAB
M  V30 COUNTS 47 50 0 0 0
M  V30 BEGIN ATOM
M  V30 1 C -3.816150 -4.481187 3.177715 0
M  V30 2 C -3.555210 -3.334095 2.271163 0
M  V30 3 C -3.155170 -3.540602 0.972345 0
M  V30 4 C -2.904606 -2.511477 0.105204 0
M  V30 5 C -3.041739 -1.193552 0.493100 0
M  V30 6 C -2.815989 0.029490 -0.288442 0
M  V30 7 N -1.491172 0.569342 -0.207807 0
M  V30 8 C -1.317986 1.766900 -0.970541 0
M  V30 9 C 0.172681 1.899170 -1.187831 0
M  V30 10 C 0.600164 0.462228 -1.275507 0 CFG=1
M  V30 11 N 1.945938 0.266074 -0.748376 0
M  V30 12 C 2.408454 0.512270 0.561890 0
M  V30 13 C 1.645869 0.990094 1.603455 0
M  V30 14 C 2.080772 1.237381 2.887038 0
M  V30 15 C 3.403953 0.988957 3.177460 0
M  V30 16 C 4.210090 0.509335 2.168673 0
M  V30 17 C 5.526159 0.274047 2.499975 0
M  V30 18 N 6.414434 -0.199499 1.586582 0
M  V30 19 C 5.985004 -0.441698 0.326159 0
M  V30 20 C 4.661484 -0.194690 0.030513 0
M  V30 21 C 3.716137 0.282479 0.905785 0
M  V30 22 C -0.427274 -0.291381 -0.501681 0
M  V30 23 C -3.450549 -1.022260 1.822022 0
M  V30 24 C -3.710042 -2.040617 2.717669 0
M  V30 25 H -4.617224 -4.290001 3.897776 0
M  V30 26 H -4.098785 -5.345788 2.508678 0
M  V30 27 H -2.853976 -4.814056 3.653022 0
M  V30 28 H -3.031957 -4.559016 0.616509 0
M  V30 29 H -2.593791 -2.653025 -0.913126 0
M  V30 30 H -2.994986 -0.167714 -1.385790 0
M  V30 31 H -3.594882 0.763556 0.015272 0
M  V30 32 H -1.744869 2.655831 -0.486162 0
M  V30 33 H -1.769352 1.603684 -1.980106 0
M  V30 34 H 0.698778 2.518967 -0.471528 0
M  V30 35 H 0.373666 2.343264 -2.213324 0
M  V30 36 H 0.628463 0.129624 -2.353041 0
M  V30 37 H 2.619711 -0.099608 -1.447849 0
M  V30 38 H 0.599793 1.212229 1.471586 0
M  V30 39 H 1.457729 1.609429 3.671619 0
M  V30 40 H 3.792531 1.166016 4.165812 0
M  V30 41 H 5.892164 0.459643 3.498977 0
M  V30 42 H 6.711706 -0.817029 -0.377484 0
M  V30 43 H 4.429949 -0.420721 -0.994102 0
M  V30 44 H -0.807520 -1.104855 -1.212030 0
M  V30 45 H 0.012349 -0.808227 0.393955 0
M  V30 46 H -3.586891 -0.016898 2.221379 0
M  V30 47 H -4.017775 -1.846286 3.714991 0
M  V30 END ATOM
M  V30 BEGIN BOND
M  V30 1 1 1 2
M  V30 2 2 2 3
M  V30 3 1 3 4
M  V30 4 2 4 5
M  V30 5 1 5 6
M  V30 6 1 6 7
M  V30 7 1 7 8
M  V30 8 1 8 9
M  V30 9 1 9 10
M  V30 10 1 10 11
M  V30 11 1 11 12
M  V30 12 2 12 13
M  V30 13 1 13 14
M  V30 14 2 14 15
M  V30 15 1 15 16
M  V30 16 2 16 17
M  V30 17 1 17 18
M  V30 18 2 18 19
M  V30 19 1 19 20
M  V30 20 2 20 21
M  V30 21 1 10 22
M  V30 22 1 5 23
M  V30 23 2 23 24
M  V30 24 1 24 2
M  V30 25 1 22 7
M  V30 26 1 21 12
M  V30 27 1 21 16
M  V30 28 1 1 25
M  V30 29 1 1 26
M  V30 30 1 1 27
M  V30 31 1 3 28
M  V30 32 1 4 29
M  V30 33 1 6 30
M  V30 34 1 6 31
M  V30 35 1 8 32
M  V30 36 1 8 33
M  V30 37 1 9 34
M  V30 38 1 9 35
M  V30 39 1 10 36 CFG=3
M  V30 40 1 11 37
M  V30 41 1 13 38
M  V30 42 1 14 39
M  V30 43 1 15 40
M  V30 44 1 17 41
M  V30 45 1 19 42
M  V30 46 1 20 43
M  V30 47 1 22 44
M  V30 48 1 22 45
M  V30 49 1 23 46
M  V30 50 1 24 47
M  V30 END BOND
M  V30 END CTAB
M  END
>  <Dataset>  (506) 
ChEMBL_Kinases

>  <Ligand_Instance>  (506) 
nan

>  <PDB_ID>  (506) 
nan

>  <Standardized_SMILES>  (506) 
Cc1ccc(CN2CC[C@@H](Nc3cccc4cnccc34)C2)cc1

>  <Name>  (506) 
nan

>  <Pocket>  (506) 
nan

>  <ATP_Site>  (506) 
nan

>  <Peripheral>  (506) 
nan

>  <Num_H_Atoms_ProtBoundConf>  (506) 
nan

>  <Num_Resolved_Atoms>  (506) 
nan

>  <Num_Not_Resolved_Atoms>  (506) 
nan

$$$$
CHEMBL3689488
     RDKit          3D

  0  0  0  0  0  0  0  0  0  0999 V3000
M  V30 BEGIN CTAB
M  V30 COUNTS 52 56 0 0 0
M  V30 BEGIN ATOM
M  V30 1 C 1.548864 -3.231825 2.112741 0
M  V30 2 C 1.121479 -2.791036 0.862850 0
M  V30 3 C 0.246905 -3.484962 0.053970 0
M  V30 4 N -0.171537 -3.011994 -1.199398 0
M  V30 5 C 0.275634 -1.739034 -1.706873 0 CFG=1
M  V30 6 C -0.238950 -1.552947 -3.146800 0
M  V30 7 C 0.026322 -0.075193 -3.311747 0
M  V30 8 N 0.048715 0.513776 -1.990417 0
M  V30 9 C -0.844466 1.654113 -1.939985 0
M  V30 10 C -0.809288 2.259096 -0.580025 0
M  V30 11 C 0.131288 3.263794 -0.335008 0
M  V30 12 C 0.288986 3.922047 0.871330 0
M  V30 13 C -0.542430 3.564221 1.916056 0
M  V30 14 S -0.295519 4.439253 3.435270 0
M  V30 15 C 0.903499 3.629973 4.510412 0
M  V30 16 C 0.642460 2.316660 5.115830 0
M  V30 17 C 1.646153 2.432228 4.011133 0
M  V30 18 C -1.485481 2.567279 1.694897 0
M  V30 19 C -1.619481 1.928404 0.480716 0
M  V30 20 C -0.415701 -0.549130 -1.083091 0
M  V30 21 C -0.164986 -4.674099 0.616745 0
M  V30 22 C -1.042001 -5.491365 -0.062864 0
M  V30 23 C -1.496768 -6.684887 0.427197 0
M  V30 24 N -1.095378 -7.127933 1.632614 0
M  V30 25 C -0.226215 -6.358756 2.350733 0
M  V30 26 C 0.230306 -5.157871 1.855646 0
M  V30 27 C 1.099087 -4.421409 2.608439 0
M  V30 28 H 2.235853 -2.667571 2.727653 0
M  V30 29 H 1.544559 -1.852251 0.578371 0
M  V30 30 H -0.815169 -3.547154 -1.815569 0
M  V30 31 H 1.346815 -1.576561 -1.716061 0
M  V30 32 H 0.300688 -2.184785 -3.859376 0
M  V30 33 H -1.333275 -1.762797 -3.077519 0
M  V30 34 H -0.637010 0.433007 -4.009859 0
M  V30 35 H 1.088222 -0.012904 -3.695520 0
M  V30 36 H -1.859869 1.405002 -2.258670 0
M  V30 37 H -0.429956 2.391649 -2.662701 0
M  V30 38 H 0.794479 3.552121 -1.161302 0
M  V30 39 H 1.046796 4.689422 0.968677 0
M  V30 40 H 1.472893 4.347070 5.156690 0
M  V30 41 H -0.241793 1.698100 4.895650 0
M  V30 42 H 1.076418 2.063362 6.126739 0
M  V30 43 H 1.433925 2.047530 3.001340 0
M  V30 44 H 2.736027 2.384793 4.282566 0
M  V30 45 H -2.116734 2.315334 2.534642 0
M  V30 46 H -2.341749 1.164864 0.311413 0
M  V30 47 H -1.513565 -0.593907 -1.200696 0
M  V30 48 H -0.086709 -0.284555 -0.082137 0
M  V30 49 H -1.420935 -5.235679 -1.023086 0
M  V30 50 H -2.196651 -7.325424 -0.128127 0
M  V30 51 H 0.103393 -6.710369 3.327535 0
M  V30 52 H 1.416191 -4.773245 3.562664 0
M  V30 END ATOM
M  V30 BEGIN BOND
M  V30 1 2 1 2
M  V30 2 1 2 3
M  V30 3 1 3 4
M  V30 4 1 4 5
M  V30 5 1 5 6
M  V30 6 1 6 7
M  V30 7 1 7 8
M  V30 8 1 8 9
M  V30 9 1 9 10
M  V30 10 2 10 11
M  V30 11 1 11 12
M  V30 12 2 12 13
M  V30 13 1 13 14
M  V30 14 1 14 15
M  V30 15 1 15 16
M  V30 16 1 16 17
M  V30 17 1 13 18
M  V30 18 2 18 19
M  V30 19 1 8 20
M  V30 20 2 3 21
M  V30 21 1 21 22
M  V30 22 2 22 23
M  V30 23 1 23 24
M  V30 24 2 24 25
M  V30 25 1 25 26
M  V30 26 2 26 27
M  V30 27 1 27 1
M  V30 28 1 20 5
M  V30 29 1 26 21
M  V30 30 1 19 10
M  V30 31 1 17 15
M  V30 32 1 1 28
M  V30 33 1 2 29
M  V30 34 1 4 30
M  V30 35 1 5 31 CFG=3
M  V30 36 1 6 32
M  V30 37 1 6 33
M  V30 38 1 7 34
M  V30 39 1 7 35
M  V30 40 1 9 36
M  V30 41 1 9 37
M  V30 42 1 11 38
M  V30 43 1 12 39
M  V30 44 1 15 40
M  V30 45 1 16 41
M  V30 46 1 16 42
M  V30 47 1 17 43
M  V30 48 1 17 44
M  V30 49 1 18 45
M  V30 50 1 19 46
M  V30 51 1 20 47
M  V30 52 1 20 48
M  V30 53 1 22 49
M  V30 54 1 23 50
M  V30 55 1 25 51
M  V30 56 1 27 52
M  V30 END BOND
M  V30 END CTAB
M  END
>  <Dataset>  (507) 
ChEMBL_Kinases

>  <Ligand_Instance>  (507) 
nan

>  <PDB_ID>  (507) 
nan

>  <Standardized_SMILES>  (507) 
c1cc(N[C@H]2CCN(Cc3ccc(SC4CC4)cc3)C2)c2ccncc2c1

>  <Name>  (507) 
nan

>  <Pocket>  (507) 
nan

>  <ATP_Site>  (507) 
nan

>  <Peripheral>  (507) 
nan

>  <Num_H_Atoms_ProtBoundConf>  (507) 
nan

>  <Num_Resolved_Atoms>  (507) 
nan

>  <Num_Not_Resolved_Atoms>  (507) 
nan

$$$$
CHEMBL3689486
     RDKit          3D

  0  0  0  0  0  0  0  0  0  0999 V3000
M  V30 BEGIN CTAB
M  V30 COUNTS 51 55 0 0 0
M  V30 BEGIN ATOM
M  V30 1 C -1.086533 -3.979074 2.146994 0
M  V30 2 C -1.630647 -2.968635 1.357981 0
M  V30 3 C -1.753398 -3.069435 -0.009770 0
M  V30 4 N -2.310226 -2.016527 -0.770459 0
M  V30 5 C -2.711639 -0.861641 0.007875 0 CFG=2
M  V30 6 C -3.317512 0.144504 -0.942245 0
M  V30 7 C -2.041341 0.675412 -1.606554 0
M  V30 8 N -1.288340 1.016947 -0.384622 0
M  V30 9 C 0.076467 1.223109 -0.797840 0
M  V30 10 C 1.001544 1.596378 0.271472 0
M  V30 11 C 1.054351 2.981371 0.450121 0
M  V30 12 C 1.878631 3.558537 1.419115 0
M  V30 13 C 2.663230 2.759166 2.224827 0
M  V30 14 C 3.553533 3.335506 3.267457 0
M  V30 15 C 4.706202 2.615115 3.807982 0
M  V30 16 C 3.435193 2.604096 4.620663 0
M  V30 17 C 2.607800 1.393694 2.044865 0
M  V30 18 C 1.795196 0.826312 1.089668 0
M  V30 19 C -1.486440 -0.091329 0.503560 0
M  V30 20 C -1.289009 -4.260314 -0.523996 0
M  V30 21 C -1.358292 -4.476478 -1.871842 0
M  V30 22 C -0.924330 -5.627814 -2.491798 0
M  V30 23 N -0.393216 -6.615328 -1.725591 0
M  V30 24 C -0.308503 -6.441372 -0.404413 0
M  V30 25 C -0.745341 -5.281893 0.221468 0
M  V30 26 C -0.638693 -5.147979 1.576690 0
M  V30 27 H -0.996830 -3.884892 3.220179 0
M  V30 28 H -1.945721 -2.107888 1.917584 0
M  V30 29 H -2.440252 -2.025478 -1.802097 0
M  V30 30 H -3.393786 -1.123573 0.836733 0
M  V30 31 H -3.994867 -0.309930 -1.680483 0
M  V30 32 H -3.776426 0.941566 -0.349297 0
M  V30 33 H -2.205768 1.537160 -2.245514 0
M  V30 34 H -1.487805 -0.168225 -2.055073 0
M  V30 35 H 0.082902 1.919831 -1.653732 0
M  V30 36 H 0.412842 0.235897 -1.217080 0
M  V30 37 H 0.484869 3.726961 -0.120377 0
M  V30 38 H 1.930271 4.631548 1.569479 0
M  V30 39 H 3.502614 4.445919 3.306724 0
M  V30 40 H 5.069109 1.670872 3.376232 0
M  V30 41 H 5.547494 3.257242 4.177647 0
M  V30 42 H 2.893803 1.654758 4.648287 0
M  V30 43 H 3.328887 3.269888 5.491307 0
M  V30 44 H 3.205126 0.724177 2.652978 0
M  V30 45 H 1.703264 -0.229446 0.892849 0
M  V30 46 H -0.589275 -0.751537 0.496714 0
M  V30 47 H -1.729562 0.286413 1.516816 0
M  V30 48 H -1.761222 -3.748626 -2.530575 0
M  V30 49 H -0.984886 -5.787050 -3.562419 0
M  V30 50 H 0.126701 -7.264727 0.172145 0
M  V30 51 H -0.222464 -5.919896 2.184024 0
M  V30 END ATOM
M  V30 BEGIN BOND
M  V30 1 2 1 2
M  V30 2 1 2 3
M  V30 3 1 3 4
M  V30 4 1 4 5
M  V30 5 1 5 6
M  V30 6 1 6 7
M  V30 7 1 7 8
M  V30 8 1 8 9
M  V30 9 1 9 10
M  V30 10 2 10 11
M  V30 11 1 11 12
M  V30 12 2 12 13
M  V30 13 1 13 14
M  V30 14 1 14 15
M  V30 15 1 15 16
M  V30 16 1 13 17
M  V30 17 2 17 18
M  V30 18 1 8 19
M  V30 19 2 3 20
M  V30 20 1 20 21
M  V30 21 2 21 22
M  V30 22 1 22 23
M  V30 23 2 23 24
M  V30 24 1 24 25
M  V30 25 2 25 26
M  V30 26 1 26 1
M  V30 27 1 19 5
M  V30 28 1 25 20
M  V30 29 1 18 10
M  V30 30 1 16 14
M  V30 31 1 1 27
M  V30 32 1 2 28
M  V30 33 1 4 29
M  V30 34 1 5 30 CFG=1
M  V30 35 1 6 31
M  V30 36 1 6 32
M  V30 37 1 7 33
M  V30 38 1 7 34
M  V30 39 1 9 35
M  V30 40 1 9 36
M  V30 41 1 11 37
M  V30 42 1 12 38
M  V30 43 1 14 39
M  V30 44 1 15 40
M  V30 45 1 15 41
M  V30 46 1 16 42
M  V30 47 1 16 43
M  V30 48 1 17 44
M  V30 49 1 18 45
M  V30 50 1 19 46
M  V30 51 1 19 47
M  V30 52 1 21 48
M  V30 53 1 22 49
M  V30 54 1 24 50
M  V30 55 1 26 51
M  V30 END BOND
M  V30 END CTAB
M  END
>  <Dataset>  (508) 
ChEMBL_Kinases

>  <Ligand_Instance>  (508) 
nan

>  <PDB_ID>  (508) 
nan

>  <Standardized_SMILES>  (508) 
c1cc(N[C@@H]2CCN(Cc3ccc(C4CC4)cc3)C2)c2ccncc2c1

>  <Name>  (508) 
nan

>  <Pocket>  (508) 
nan

>  <ATP_Site>  (508) 
nan

>  <Peripheral>  (508) 
nan

>  <Num_H_Atoms_ProtBoundConf>  (508) 
nan

>  <Num_Resolved_Atoms>  (508) 
nan

>  <Num_Not_Resolved_Atoms>  (508) 
nan

$$$$
CHEMBL3689485
     RDKit          3D

  0  0  0  0  0  0  0  0  0  0999 V3000
M  V30 BEGIN CTAB
M  V30 COUNTS 52 56 0 0 0
M  V30 BEGIN ATOM
M  V30 1 C 0.318405 -3.791460 3.020966 0
M  V30 2 C 0.683141 -2.865168 2.100814 0
M  V30 3 C 0.244767 -2.994983 0.774414 0
M  V30 4 N 0.606471 -2.044638 -0.227098 0
M  V30 5 C 0.553202 -1.542742 -1.571343 0 CFG=2
M  V30 6 C 1.499069 -0.352595 -1.786396 0
M  V30 7 C 0.703813 0.647740 -2.587882 0
M  V30 8 N -0.658173 0.389885 -2.349834 0
M  V30 9 C -1.473850 1.380677 -1.778486 0
M  V30 10 C -1.122798 1.889890 -0.452960 0
M  V30 11 C -0.268580 2.992662 -0.301906 0
M  V30 12 C 0.093471 3.511815 0.931863 0
M  V30 13 C -0.412448 2.913765 2.089004 0
M  V30 14 S 0.133616 3.680291 3.607415 0
M  V30 15 C 1.661483 2.908761 4.193435 0
M  V30 16 C 1.692314 1.500039 4.653007 0
M  V30 17 C 2.215556 1.837945 3.301589 0
M  V30 18 C -1.258232 1.823492 1.974203 0
M  V30 19 C -1.594369 1.337037 0.726689 0
M  V30 20 C -0.789154 -0.942502 -1.908054 0
M  V30 21 C -0.547738 -4.074178 0.461580 0
M  V30 22 C -1.042813 -4.332885 -0.797833 0
M  V30 23 C -1.830879 -5.407331 -1.132331 0
M  V30 24 N -2.161903 -6.297251 -0.168919 0
M  V30 25 C -1.730535 -6.138137 1.093043 0
M  V30 26 C -0.944010 -5.045493 1.375088 0
M  V30 27 C -0.467686 -4.835468 2.648147 0
M  V30 28 H 0.675354 -3.648328 4.008241 0
M  V30 29 H 1.320622 -2.019131 2.404247 0
M  V30 30 H 1.228314 -1.330442 0.209752 0
M  V30 31 H 0.861275 -2.302828 -2.333622 0
M  V30 32 H 2.435519 -0.673838 -2.249880 0
M  V30 33 H 1.674961 0.107113 -0.785882 0
M  V30 34 H 0.905611 0.380157 -3.667259 0
M  V30 35 H 1.059799 1.669693 -2.483062 0
M  V30 36 H -1.447838 2.274174 -2.468411 0
M  V30 37 H -2.533901 1.033435 -1.853655 0
M  V30 38 H 0.131784 3.467025 -1.191867 0
M  V30 39 H 0.770145 4.380773 0.939932 0
M  V30 40 H 2.409001 3.601984 4.631157 0
M  V30 41 H 0.741469 0.922883 4.718193 0
M  V30 42 H 2.451420 1.209837 5.404117 0
M  V30 43 H 1.610150 1.453200 2.445924 0
M  V30 44 H 3.305550 1.810050 3.101554 0
M  V30 45 H -1.601552 1.424475 2.911924 0
M  V30 46 H -2.256871 0.485379 0.688550 0
M  V30 47 H -1.204940 -1.556303 -2.761281 0
M  V30 48 H -1.534128 -1.096036 -1.099238 0
M  V30 49 H -0.818094 -3.683208 -1.601557 0
M  V30 50 H -2.202846 -5.578467 -2.137228 0
M  V30 51 H -2.007630 -6.858049 1.836484 0
M  V30 52 H -0.710970 -5.519260 3.428341 0
M  V30 END ATOM
M  V30 BEGIN BOND
M  V30 1 2 1 2
M  V30 2 1 2 3
M  V30 3 1 3 4
M  V30 4 1 4 5
M  V30 5 1 5 6
M  V30 6 1 6 7
M  V30 7 1 7 8
M  V30 8 1 8 9
M  V30 9 1 9 10
M  V30 10 2 10 11
M  V30 11 1 11 12
M  V30 12 2 12 13
M  V30 13 1 13 14
M  V30 14 1 14 15
M  V30 15 1 15 16
M  V30 16 1 16 17
M  V30 17 1 13 18
M  V30 18 2 18 19
M  V30 19 1 8 20
M  V30 20 2 3 21
M  V30 21 1 21 22
M  V30 22 2 22 23
M  V30 23 1 23 24
M  V30 24 2 24 25
M  V30 25 1 25 26
M  V30 26 2 26 27
M  V30 27 1 27 1
M  V30 28 1 20 5
M  V30 29 1 26 21
M  V30 30 1 19 10
M  V30 31 1 17 15
M  V30 32 1 1 28
M  V30 33 1 2 29
M  V30 34 1 4 30
M  V30 35 1 5 31 CFG=3
M  V30 36 1 6 32
M  V30 37 1 6 33
M  V30 38 1 7 34
M  V30 39 1 7 35
M  V30 40 1 9 36
M  V30 41 1 9 37
M  V30 42 1 11 38
M  V30 43 1 12 39
M  V30 44 1 15 40
M  V30 45 1 16 41
M  V30 46 1 16 42
M  V30 47 1 17 43
M  V30 48 1 17 44
M  V30 49 1 18 45
M  V30 50 1 19 46
M  V30 51 1 20 47
M  V30 52 1 20 48
M  V30 53 1 22 49
M  V30 54 1 23 50
M  V30 55 1 25 51
M  V30 56 1 27 52
M  V30 END BOND
M  V30 END CTAB
M  END
>  <Dataset>  (509) 
ChEMBL_Kinases

>  <Ligand_Instance>  (509) 
nan

>  <PDB_ID>  (509) 
nan

>  <Standardized_SMILES>  (509) 
c1cc(N[C@@H]2CCN(Cc3ccc(SC4CC4)cc3)C2)c2ccncc2c1

>  <Name>  (509) 
nan

>  <Pocket>  (509) 
nan

>  <ATP_Site>  (509) 
nan

>  <Peripheral>  (509) 
nan

>  <Num_H_Atoms_ProtBoundConf>  (509) 
nan

>  <Num_Resolved_Atoms>  (509) 
nan

>  <Num_Not_Resolved_Atoms>  (509) 
nan

$$$$
CHEMBL3689484
     RDKit          3D

  0  0  0  0  0  0  0  0  0  0999 V3000
M  V30 BEGIN CTAB
M  V30 COUNTS 51 55 0 0 0
M  V30 BEGIN ATOM
M  V30 1 C -1.168174 -5.033079 0.988147 0
M  V30 2 C -0.780322 -3.723465 1.177687 0
M  V30 3 C -1.648429 -2.677077 0.981155 0
M  V30 4 C -1.409660 -1.220568 1.124958 0
M  V30 5 N -1.019201 -0.562227 -0.093224 0
M  V30 6 C 0.209266 -1.031919 -0.644189 0
M  V30 7 C 1.101269 0.227003 -0.757251 0
M  V30 8 C 0.618513 0.917107 0.517134 0 CFG=1
M  V30 9 N 1.110664 2.201198 0.748675 0
M  V30 10 C 2.103245 3.151353 1.058482 0
M  V30 11 C 1.879236 4.536407 1.069807 0
M  V30 12 C 2.861045 5.433763 1.380665 0
M  V30 13 C 4.094111 4.927477 1.686831 0
M  V30 14 C 4.417527 3.607617 1.706516 0
M  V30 15 C 5.693571 3.213438 2.040631 0
M  V30 16 N 5.990171 1.903819 2.065764 0
M  V30 17 C 5.050709 0.993454 1.768326 0
M  V30 18 C 3.786701 1.420999 1.438693 0
M  V30 19 C 3.381028 2.745967 1.383001 0
M  V30 20 C -0.886935 0.847387 0.196981 0
M  V30 21 C -2.925801 -3.060334 0.582346 0
M  V30 22 C -3.341573 -4.347080 0.386024 0
M  V30 23 C -4.726671 -4.678273 -0.041558 0
M  V30 24 C -5.200899 -6.062169 0.240501 0
M  V30 25 C -4.754966 -5.764076 -1.134361 0
M  V30 26 C -2.444971 -5.369499 0.592029 0
M  V30 27 H -0.378095 -5.770224 1.179075 0
M  V30 28 H 0.215303 -3.449238 1.493726 0
M  V30 29 H -2.356569 -0.773616 1.520577 0
M  V30 30 H -0.598923 -1.140269 1.908884 0
M  V30 31 H 0.128054 -1.532293 -1.626703 0
M  V30 32 H 0.788062 -1.693878 0.027952 0
M  V30 33 H 0.704291 0.752013 -1.667323 0
M  V30 34 H 2.152352 0.001967 -0.798274 0
M  V30 35 H 0.821260 0.207982 1.355681 0
M  V30 36 H 0.227335 2.734476 0.609135 0
M  V30 37 H 0.895462 4.919803 0.824327 0
M  V30 38 H 2.602400 6.479223 1.364857 0
M  V30 39 H 4.842489 5.663231 1.925836 0
M  V30 40 H 6.437808 3.961411 2.277666 0
M  V30 41 H 5.315128 -0.048162 1.796625 0
M  V30 42 H 3.084086 0.647865 1.226271 0
M  V30 43 H -1.486479 1.174100 1.053076 0
M  V30 44 H -1.068614 1.415028 -0.728074 0
M  V30 45 H -3.686242 -2.308669 0.401016 0
M  V30 46 H -5.438468 -3.854991 -0.204218 0
M  V30 47 H -6.313526 -6.126144 0.368104 0
M  V30 48 H -4.632444 -6.730944 0.908592 0
M  V30 49 H -3.818660 -6.194893 -1.487660 0
M  V30 50 H -5.512975 -5.638611 -1.935242 0
M  V30 51 H -2.664785 -6.419097 0.466985 0
M  V30 END ATOM
M  V30 BEGIN BOND
M  V30 1 2 1 2
M  V30 2 1 2 3
M  V30 3 1 3 4
M  V30 4 1 4 5
M  V30 5 1 5 6
M  V30 6 1 6 7
M  V30 7 1 7 8
M  V30 8 1 8 9
M  V30 9 1 9 10
M  V30 10 2 10 11
M  V30 11 1 11 12
M  V30 12 2 12 13
M  V30 13 1 13 14
M  V30 14 2 14 15
M  V30 15 1 15 16
M  V30 16 2 16 17
M  V30 17 1 17 18
M  V30 18 2 18 19
M  V30 19 1 8 20
M  V30 20 2 3 21
M  V30 21 1 21 22
M  V30 22 1 22 23
M  V30 23 1 23 24
M  V30 24 1 24 25
M  V30 25 2 22 26
M  V30 26 1 26 1
M  V30 27 1 20 5
M  V30 28 1 25 23
M  V30 29 1 19 10
M  V30 30 1 19 14
M  V30 31 1 1 27
M  V30 32 1 2 28
M  V30 33 1 4 29
M  V30 34 1 4 30
M  V30 35 1 6 31
M  V30 36 1 6 32
M  V30 37 1 7 33
M  V30 38 1 7 34
M  V30 39 1 8 35 CFG=1
M  V30 40 1 9 36
M  V30 41 1 11 37
M  V30 42 1 12 38
M  V30 43 1 13 39
M  V30 44 1 15 40
M  V30 45 1 17 41
M  V30 46 1 18 42
M  V30 47 1 20 43
M  V30 48 1 20 44
M  V30 49 1 21 45
M  V30 50 1 23 46
M  V30 51 1 24 47
M  V30 52 1 24 48
M  V30 53 1 25 49
M  V30 54 1 25 50
M  V30 55 1 26 51
M  V30 END BOND
M  V30 END CTAB
M  END
>  <Dataset>  (510) 
ChEMBL_Kinases

>  <Ligand_Instance>  (510) 
nan

>  <PDB_ID>  (510) 
nan

>  <Standardized_SMILES>  (510) 
c1cc(CN2CC[C@@H](Nc3cccc4cnccc34)C2)cc(C2CC2)c1

>  <Name>  (510) 
nan

>  <Pocket>  (510) 
nan

>  <ATP_Site>  (510) 
nan

>  <Peripheral>  (510) 
nan

>  <Num_H_Atoms_ProtBoundConf>  (510) 
nan

>  <Num_Resolved_Atoms>  (510) 
nan

>  <Num_Not_Resolved_Atoms>  (510) 
nan

$$$$
CHEMBL3689483
     RDKit          3D

  0  0  0  0  0  0  0  0  0  0999 V3000
M  V30 BEGIN CTAB
M  V30 COUNTS 51 55 0 0 0
M  V30 BEGIN ATOM
M  V30 1 C -1.385312 -5.764606 -1.244023 0
M  V30 2 C -1.052482 -4.473950 -0.890893 0
M  V30 3 C -1.831099 -3.632497 -0.125621 0
M  V30 4 N -1.421055 -2.323925 0.186144 0
M  V30 5 C -0.167736 -1.846659 -0.326462 0 CFG=1
M  V30 6 C -0.085531 -1.761303 -1.821082 0
M  V30 7 C 0.012697 -0.267841 -2.120165 0
M  V30 8 N 0.756069 0.202922 -0.965736 0
M  V30 9 C 0.760096 1.645087 -0.884536 0
M  V30 10 C 1.500604 2.160163 0.269078 0
M  V30 11 C 2.838419 2.490751 0.339613 0
M  V30 12 C 3.348327 2.962917 1.531215 0
M  V30 13 C 2.606907 3.132898 2.680677 0
M  V30 14 C 3.196534 3.645490 3.947494 0
M  V30 15 C 4.571803 3.237202 4.354947 0
M  V30 16 C 4.303898 4.647392 3.866407 0
M  V30 17 C 1.253646 2.794940 2.597221 0
M  V30 18 C 0.702498 2.313968 1.407969 0
M  V30 19 C 0.041959 -0.419083 0.108072 0
M  V30 20 C -3.012712 -4.213416 0.270306 0
M  V30 21 C -3.891197 -3.488303 1.041812 0
M  V30 22 C -5.099992 -3.976198 1.490823 0
M  V30 23 N -5.429023 -5.253555 1.141103 0
M  V30 24 C -4.621766 -6.022112 0.389984 0
M  V30 25 C -3.417780 -5.492150 -0.039059 0
M  V30 26 C -2.599818 -6.287289 -0.806584 0
M  V30 27 H -0.781861 -6.417863 -1.837645 0
M  V30 28 H -0.088679 -4.189331 -1.285688 0
M  V30 29 H -1.982853 -1.675939 0.774835 0
M  V30 30 H 0.657618 -2.477819 0.101817 0
M  V30 31 H -0.905693 -2.233306 -2.369657 0
M  V30 32 H 0.873676 -2.190901 -2.160779 0
M  V30 33 H -0.988510 0.208568 -2.092085 0
M  V30 34 H 0.552829 -0.086893 -3.065873 0
M  V30 35 H 1.304124 2.003543 -1.800590 0
M  V30 36 H -0.257656 2.072767 -0.983338 0
M  V30 37 H 3.395183 2.350967 -0.564645 0
M  V30 38 H 4.405232 3.216926 1.562130 0
M  V30 39 H 2.457606 3.722403 4.789306 0
M  V30 40 H 4.789501 3.132027 5.421606 0
M  V30 41 H 5.230124 2.646842 3.694795 0
M  V30 42 H 4.389641 5.479387 4.595865 0
M  V30 43 H 4.660428 4.919306 2.841606 0
M  V30 44 H 0.624490 2.912610 3.482908 0
M  V30 45 H -0.368947 2.081091 1.458465 0
M  V30 46 H 0.607483 -0.437222 1.060130 0
M  V30 47 H -0.954669 0.046015 0.213722 0
M  V30 48 H -3.688785 -2.485076 1.346558 0
M  V30 49 H -5.799773 -3.411979 2.099938 0
M  V30 50 H -4.872994 -7.038635 0.105926 0
M  V30 51 H -2.887767 -7.285039 -1.063352 0
M  V30 END ATOM
M  V30 BEGIN BOND
M  V30 1 2 1 2
M  V30 2 1 2 3
M  V30 3 1 3 4
M  V30 4 1 4 5
M  V30 5 1 5 6
M  V30 6 1 6 7
M  V30 7 1 7 8
M  V30 8 1 8 9
M  V30 9 1 9 10
M  V30 10 2 10 11
M  V30 11 1 11 12
M  V30 12 2 12 13
M  V30 13 1 13 14
M  V30 14 1 14 15
M  V30 15 1 15 16
M  V30 16 1 13 17
M  V30 17 2 17 18
M  V30 18 1 8 19
M  V30 19 2 3 20
M  V30 20 1 20 21
M  V30 21 2 21 22
M  V30 22 1 22 23
M  V30 23 2 23 24
M  V30 24 1 24 25
M  V30 25 2 25 26
M  V30 26 1 26 1
M  V30 27 1 19 5
M  V30 28 1 25 20
M  V30 29 1 18 10
M  V30 30 1 16 14
M  V30 31 1 1 27
M  V30 32 1 2 28
M  V30 33 1 4 29
M  V30 34 1 5 30 CFG=1
M  V30 35 1 6 31
M  V30 36 1 6 32
M  V30 37 1 7 33
M  V30 38 1 7 34
M  V30 39 1 9 35
M  V30 40 1 9 36
M  V30 41 1 11 37
M  V30 42 1 12 38
M  V30 43 1 14 39
M  V30 44 1 15 40
M  V30 45 1 15 41
M  V30 46 1 16 42
M  V30 47 1 16 43
M  V30 48 1 17 44
M  V30 49 1 18 45
M  V30 50 1 19 46
M  V30 51 1 19 47
M  V30 52 1 21 48
M  V30 53 1 22 49
M  V30 54 1 24 50
M  V30 55 1 26 51
M  V30 END BOND
M  V30 END CTAB
M  END
>  <Dataset>  (511) 
ChEMBL_Kinases

>  <Ligand_Instance>  (511) 
nan

>  <PDB_ID>  (511) 
nan

>  <Standardized_SMILES>  (511) 
c1cc(N[C@H]2CCN(Cc3ccc(C4CC4)cc3)C2)c2ccncc2c1

>  <Name>  (511) 
nan

>  <Pocket>  (511) 
nan

>  <ATP_Site>  (511) 
nan

>  <Peripheral>  (511) 
nan

>  <Num_H_Atoms_ProtBoundConf>  (511) 
nan

>  <Num_Resolved_Atoms>  (511) 
nan

>  <Num_Not_Resolved_Atoms>  (511) 
nan

$$$$
CHEMBL3689482
     RDKit          3D

  0  0  0  0  0  0  0  0  0  0999 V3000
M  V30 BEGIN CTAB
M  V30 COUNTS 47 50 0 0 0
M  V30 BEGIN ATOM
M  V30 1 F 6.494813 0.454947 1.979696 0
M  V30 2 C 6.540225 -0.554001 1.056620 0
M  V30 3 F 6.393892 -1.818053 1.613516 0
M  V30 4 F 7.773570 -0.522965 0.435135 0
M  V30 5 C 5.493117 -0.321306 0.008486 0
M  V30 6 C 5.763692 0.409578 -1.147139 0
M  V30 7 C 4.720700 0.569757 -2.061995 0
M  V30 8 C 3.457021 0.037339 -1.860326 0
M  V30 9 C 3.201972 -0.687498 -0.706287 0
M  V30 10 C 1.880061 -1.283018 -0.425749 0
M  V30 11 N 0.967734 -0.488827 0.274978 0
M  V30 12 C 1.237796 -0.013915 1.534193 0
M  V30 13 C 0.047434 0.819935 1.917276 0
M  V30 14 C -0.825426 0.880998 0.683597 0
M  V30 15 N -2.231601 0.651543 0.965748 0
M  V30 16 C -2.806112 -0.507369 1.502878 0
M  V30 17 C -2.127260 -1.645190 1.850437 0
M  V30 18 C -2.677868 -2.791987 2.382390 0
M  V30 19 C -4.041409 -2.815385 2.592067 0
M  V30 20 C -4.773372 -1.695941 2.259441 0
M  V30 21 C -6.127949 -1.773814 2.489262 0
M  V30 22 N -6.939553 -0.718593 2.193698 0
M  V30 23 C -6.398782 0.419651 1.666618 0
M  V30 24 C -5.034549 0.440198 1.457917 0
M  V30 25 C -4.157315 -0.579006 1.729659 0
M  V30 26 C -0.249104 -0.149684 -0.273912 0
M  V30 27 C 4.239275 -0.846604 0.203215 0
M  V30 28 H 6.741307 0.817541 -1.296070 0
M  V30 29 H 4.969784 1.140197 -2.941184 0
M  V30 30 H 2.666794 0.178373 -2.588946 0
M  V30 31 H 2.066601 -2.209833 0.181756 0
M  V30 32 H 1.440051 -1.637564 -1.373378 0
M  V30 33 H 1.498609 -0.769399 2.297467 0
M  V30 34 H 2.127626 0.678864 1.519092 0
M  V30 35 H 0.354005 1.850259 2.220939 0
M  V30 36 H -0.578241 0.352307 2.727486 0
M  V30 37 H -0.674599 1.897420 0.244286 0
M  V30 38 H -2.813279 1.460881 0.724147 0
M  V30 39 H -1.065148 -1.727044 1.723850 0
M  V30 40 H -2.118214 -3.672032 2.646200 0
M  V30 41 H -4.515632 -3.690960 3.006129 0
M  V30 42 H -6.590233 -2.654459 2.903516 0
M  V30 43 H -7.068505 1.214852 1.452433 0
M  V30 44 H -4.707305 1.361167 1.047764 0
M  V30 45 H -0.945851 -0.968567 -0.518625 0
M  V30 46 H -0.073092 0.363904 -1.268632 0
M  V30 47 H 4.054405 -1.400967 1.091948 0
M  V30 END ATOM
M  V30 BEGIN BOND
M  V30 1 1 1 2
M  V30 2 1 2 3
M  V30 3 1 2 4
M  V30 4 1 2 5
M  V30 5 2 5 6
M  V30 6 1 6 7
M  V30 7 2 7 8
M  V30 8 1 8 9
M  V30 9 1 9 10
M  V30 10 1 10 11
M  V30 11 1 11 12
M  V30 12 1 12 13
M  V30 13 1 13 14
M  V30 14 1 14 15
M  V30 15 1 15 16
M  V30 16 2 16 17
M  V30 17 1 17 18
M  V30 18 2 18 19
M  V30 19 1 19 20
M  V30 20 2 20 21
M  V30 21 1 21 22
M  V30 22 2 22 23
M  V30 23 1 23 24
M  V30 24 2 24 25
M  V30 25 1 14 26
M  V30 26 2 9 27
M  V30 27 1 27 5
M  V30 28 1 26 11
M  V30 29 1 25 16
M  V30 30 1 25 20
M  V30 31 1 6 28
M  V30 32 1 7 29
M  V30 33 1 8 30
M  V30 34 1 10 31
M  V30 35 1 10 32
M  V30 36 1 12 33
M  V30 37 1 12 34
M  V30 38 1 13 35
M  V30 39 1 13 36
M  V30 40 1 14 37
M  V30 41 1 15 38
M  V30 42 1 17 39
M  V30 43 1 18 40
M  V30 44 1 19 41
M  V30 45 1 21 42
M  V30 46 1 23 43
M  V30 47 1 24 44
M  V30 48 1 26 45
M  V30 49 1 26 46
M  V30 50 1 27 47
M  V30 END BOND
M  V30 END CTAB
M  END
>  <Dataset>  (512) 
ChEMBL_Kinases

>  <Ligand_Instance>  (512) 
nan

>  <PDB_ID>  (512) 
nan

>  <Standardized_SMILES>  (512) 
FC(F)(F)c1cccc(CN2CCC(Nc3cccc4cnccc34)C2)c1

>  <Name>  (512) 
nan

>  <Pocket>  (512) 
nan

>  <ATP_Site>  (512) 
nan

>  <Peripheral>  (512) 
nan

>  <Num_H_Atoms_ProtBoundConf>  (512) 
nan

>  <Num_Resolved_Atoms>  (512) 
nan

>  <Num_Not_Resolved_Atoms>  (512) 
nan

$$$$
CHEMBL3689481
     RDKit          3D

  0  0  0  0  0  0  0  0  0  0999 V3000
M  V30 BEGIN CTAB
M  V30 COUNTS 48 51 0 0 0
M  V30 BEGIN ATOM
M  V30 1 C -1.679169 -6.183862 2.175028 0
M  V30 2 O -2.546244 -5.621677 1.188173 0
M  V30 3 C -2.160954 -4.501329 0.464388 0
M  V30 4 C -0.942330 -3.882822 0.656471 0
M  V30 5 C -0.575229 -2.769636 -0.071949 0
M  V30 6 C -1.426668 -2.244220 -1.018354 0
M  V30 7 C -1.217918 -1.062023 -1.894540 0
M  V30 8 N -1.688657 0.169962 -1.352708 0
M  V30 9 C -1.454769 1.227003 -2.290727 0
M  V30 10 C -0.152142 1.872560 -1.903470 0
M  V30 11 C 0.269624 1.168524 -0.618230 0
M  V30 12 N 0.914093 1.972315 0.346642 0
M  V30 13 C 1.611453 2.252386 1.552439 0
M  V30 14 C 1.958472 3.561563 1.917344 0
M  V30 15 C 2.632190 3.812192 3.079744 0
M  V30 16 C 2.948357 2.732775 3.862152 0
M  V30 17 C 2.655500 1.415939 3.595245 0
M  V30 18 C 3.033594 0.412840 4.462398 0
M  V30 19 N 2.723280 -0.856500 4.141543 0
M  V30 20 C 2.053465 -1.146076 2.990977 0
M  V30 21 C 1.702195 -0.105770 2.165427 0
M  V30 22 C 1.971266 1.209231 2.404922 0
M  V30 23 C -1.065132 0.621338 -0.153662 0
M  V30 24 C -2.655181 -2.892944 -1.190679 0
M  V30 25 C -3.042975 -4.006328 -0.474324 0
M  V30 26 H -0.657991 -6.222753 1.735291 0
M  V30 27 H -1.608810 -5.530066 3.066635 0
M  V30 28 H -1.958492 -7.204690 2.430660 0
M  V30 29 H -0.239192 -4.257085 1.387581 0
M  V30 30 H 0.359711 -2.236221 0.022888 0
M  V30 31 H -0.134855 -1.006093 -2.215184 0
M  V30 32 H -1.752810 -1.198426 -2.868345 0
M  V30 33 H -1.369632 0.785893 -3.323616 0
M  V30 34 H -2.283609 1.949827 -2.357740 0
M  V30 35 H -0.322189 2.961229 -1.714870 0
M  V30 36 H 0.616200 1.715946 -2.702122 0
M  V30 37 H 0.908026 0.291802 -0.877129 0
M  V30 38 H 0.770891 2.873493 -0.150199 0
M  V30 39 H 1.696912 4.416441 1.277692 0
M  V30 40 H 2.869258 4.836472 3.303561 0
M  V30 41 H 3.475144 2.972117 4.763139 0
M  V30 42 H 3.563769 0.696508 5.362675 0
M  V30 43 H 1.817767 -2.179764 2.759744 0
M  V30 44 H 1.192624 -0.390356 1.286535 0
M  V30 45 H -1.024348 -0.101761 0.649560 0
M  V30 46 H -1.651330 1.523959 0.181710 0
M  V30 47 H -3.386593 -2.541923 -1.918670 0
M  V30 48 H -4.002546 -4.477201 -0.639322 0
M  V30 END ATOM
M  V30 BEGIN BOND
M  V30 1 1 1 2
M  V30 2 1 2 3
M  V30 3 2 3 4
M  V30 4 1 4 5
M  V30 5 2 5 6
M  V30 6 1 6 7
M  V30 7 1 7 8
M  V30 8 1 8 9
M  V30 9 1 9 10
M  V30 10 1 10 11
M  V30 11 1 11 12
M  V30 12 1 12 13
M  V30 13 2 13 14
M  V30 14 1 14 15
M  V30 15 2 15 16
M  V30 16 1 16 17
M  V30 17 2 17 18
M  V30 18 1 18 19
M  V30 19 2 19 20
M  V30 20 1 20 21
M  V30 21 2 21 22
M  V30 22 1 11 23
M  V30 23 1 6 24
M  V30 24 2 24 25
M  V30 25 1 25 3
M  V30 26 1 23 8
M  V30 27 1 22 13
M  V30 28 1 22 17
M  V30 29 1 1 26
M  V30 30 1 1 27
M  V30 31 1 1 28
M  V30 32 1 4 29
M  V30 33 1 5 30
M  V30 34 1 7 31
M  V30 35 1 7 32
M  V30 36 1 9 33
M  V30 37 1 9 34
M  V30 38 1 10 35
M  V30 39 1 10 36
M  V30 40 1 11 37
M  V30 41 1 12 38
M  V30 42 1 14 39
M  V30 43 1 15 40
M  V30 44 1 16 41
M  V30 45 1 18 42
M  V30 46 1 20 43
M  V30 47 1 21 44
M  V30 48 1 23 45
M  V30 49 1 23 46
M  V30 50 1 24 47
M  V30 51 1 25 48
M  V30 END BOND
M  V30 END CTAB
M  END
>  <Dataset>  (513) 
ChEMBL_Kinases

>  <Ligand_Instance>  (513) 
nan

>  <PDB_ID>  (513) 
nan

>  <Standardized_SMILES>  (513) 
COc1ccc(CN2CCC(Nc3cccc4cnccc34)C2)cc1

>  <Name>  (513) 
nan

>  <Pocket>  (513) 
nan

>  <ATP_Site>  (513) 
nan

>  <Peripheral>  (513) 
nan

>  <Num_H_Atoms_ProtBoundConf>  (513) 
nan

>  <Num_Resolved_Atoms>  (513) 
nan

>  <Num_Not_Resolved_Atoms>  (513) 
nan

$$$$
CHEMBL3689480
     RDKit          3D

  0  0  0  0  0  0  0  0  0  0999 V3000
M  V30 BEGIN CTAB
M  V30 COUNTS 44 47 0 0 0
M  V30 BEGIN ATOM
M  V30 1 Cl -1.700099 -5.990910 1.597092 0
M  V30 2 C -0.523159 -4.902527 0.908989 0
M  V30 3 C 0.098186 -3.990476 1.743293 0
M  V30 4 C 1.015672 -3.145446 1.194730 0
M  V30 5 C 1.398498 -3.104947 -0.141722 0
M  V30 6 C 2.366204 -2.212723 -0.716917 0
M  V30 7 N 2.138463 -0.984238 -1.248395 0
M  V30 8 C 1.345436 -0.623285 -2.295995 0
M  V30 9 C 1.224391 0.901778 -2.165910 0
M  V30 10 C 1.393010 1.210640 -0.710465 0
M  V30 11 N 0.103913 1.247625 -0.053534 0
M  V30 12 C 0.107323 1.565046 1.309480 0
M  V30 13 C 1.289384 1.835486 1.966956 0
M  V30 14 C 1.360499 2.152630 3.310814 0
M  V30 15 C 0.221431 2.214486 4.074670 0
M  V30 16 C -0.978694 1.954111 3.468243 0
M  V30 17 C -2.174606 1.994990 4.165817 0
M  V30 18 N -3.383743 1.743743 3.603020 0
M  V30 19 C -3.420062 1.434364 2.277922 0
M  V30 20 C -2.234662 1.394567 1.589607 0
M  V30 21 C -1.000799 1.642425 2.126939 0
M  V30 22 C 2.243882 0.063223 -0.247722 0
M  V30 23 C 0.742971 -4.037799 -0.917678 0
M  V30 24 C -0.202916 -4.934441 -0.442465 0
M  V30 25 Cl -0.983831 -6.086008 -1.509807 0
M  V30 26 H -0.125607 -3.932938 2.812772 0
M  V30 27 H 1.497175 -2.428585 1.877013 0
M  V30 28 H 2.908028 -2.823996 -1.504052 0
M  V30 29 H 3.179771 -2.103188 0.059072 0
M  V30 30 H 0.272756 -0.964216 -2.229488 0
M  V30 31 H 1.736562 -0.739747 -3.338729 0
M  V30 32 H 0.279197 1.283124 -2.572889 0
M  V30 33 H 2.065807 1.408451 -2.682326 0
M  V30 34 H 1.935985 2.150427 -0.501438 0
M  V30 35 H -0.736096 1.039232 -0.624711 0
M  V30 36 H 2.261086 1.826532 1.494395 0
M  V30 37 H 2.283703 2.365652 3.832485 0
M  V30 38 H 0.254922 2.457510 5.113607 0
M  V30 39 H -2.180844 2.239486 5.228228 0
M  V30 40 H -4.383274 1.233713 1.827405 0
M  V30 41 H -2.349112 1.143617 0.551867 0
M  V30 42 H 3.291901 0.310014 -0.040842 0
M  V30 43 H 1.803175 -0.371945 0.672807 0
M  V30 44 H 0.956057 -4.106278 -1.984551 0
M  V30 END ATOM
M  V30 BEGIN BOND
M  V30 1 1 1 2
M  V30 2 2 2 3
M  V30 3 1 3 4
M  V30 4 2 4 5
M  V30 5 1 5 6
M  V30 6 1 6 7
M  V30 7 1 7 8
M  V30 8 1 8 9
M  V30 9 1 9 10
M  V30 10 1 10 11
M  V30 11 1 11 12
M  V30 12 2 12 13
M  V30 13 1 13 14
M  V30 14 2 14 15
M  V30 15 1 15 16
M  V30 16 2 16 17
M  V30 17 1 17 18
M  V30 18 2 18 19
M  V30 19 1 19 20
M  V30 20 2 20 21
M  V30 21 1 10 22
M  V30 22 1 5 23
M  V30 23 2 23 24
M  V30 24 1 24 25
M  V30 25 1 24 2
M  V30 26 1 22 7
M  V30 27 1 21 12
M  V30 28 1 21 16
M  V30 29 1 3 26
M  V30 30 1 4 27
M  V30 31 1 6 28
M  V30 32 1 6 29
M  V30 33 1 8 30
M  V30 34 1 8 31
M  V30 35 1 9 32
M  V30 36 1 9 33
M  V30 37 1 10 34
M  V30 38 1 11 35
M  V30 39 1 13 36
M  V30 40 1 14 37
M  V30 41 1 15 38
M  V30 42 1 17 39
M  V30 43 1 19 40
M  V30 44 1 20 41
M  V30 45 1 22 42
M  V30 46 1 22 43
M  V30 47 1 23 44
M  V30 END BOND
M  V30 END CTAB
M  END
>  <Dataset>  (514) 
ChEMBL_Kinases

>  <Ligand_Instance>  (514) 
nan

>  <PDB_ID>  (514) 
nan

>  <Standardized_SMILES>  (514) 
Clc1ccc(CN2CCC(Nc3cccc4cnccc34)C2)cc1Cl

>  <Name>  (514) 
nan

>  <Pocket>  (514) 
nan

>  <ATP_Site>  (514) 
nan

>  <Peripheral>  (514) 
nan

>  <Num_H_Atoms_ProtBoundConf>  (514) 
nan

>  <Num_Resolved_Atoms>  (514) 
nan

>  <Num_Not_Resolved_Atoms>  (514) 
nan

$$$$
CHEMBL3691571
     RDKit          3D

  0  0  0  0  0  0  0  0  0  0999 V3000
M  V30 BEGIN CTAB
M  V30 COUNTS 75 80 0 0 0
M  V30 BEGIN ATOM
M  V30 1 C 2.153873 1.723945 4.103304 0
M  V30 2 N 3.196238 2.729628 4.026704 0
M  V30 3 C 3.646076 3.107029 5.374852 0
M  V30 4 C 3.796732 3.363493 2.869964 0
M  V30 5 O 4.698469 4.212559 3.080064 0
M  V30 6 C 3.228000 2.888069 1.613144 0
M  V30 7 C 1.907839 3.300037 1.377287 0
M  V30 8 C 1.462882 2.798071 0.176118 0
M  V30 9 C 0.319617 2.823885 -0.593719 0
M  V30 10 N 0.284564 2.157140 -1.771277 0
M  V30 11 C 1.359181 1.448086 -2.230414 0
M  V30 12 N 0.947298 0.884824 -3.458819 0
M  V30 13 C 0.300306 -0.384497 -3.239688 0
M  V30 14 C 0.191820 -0.957953 -1.966809 0
M  V30 15 C -0.467679 -2.170255 -1.738193 0
M  V30 16 C -1.037976 -2.833375 -2.803072 0
M  V30 17 C -1.732175 -4.050618 -2.439114 0
M  V30 18 O -1.184798 -5.128291 -2.706743 0
M  V30 19 N -3.002743 -3.787685 -1.794821 0
M  V30 20 C -3.493909 -2.419285 -1.563380 0
M  V30 21 C -4.728145 -2.556886 -0.681682 0
M  V30 22 C -5.813091 -3.124484 -1.595048 0
M  V30 23 C -6.060268 -4.532087 -1.066272 0
M  V30 24 C -4.736370 -4.781466 -0.368723 0
M  V30 25 C -3.685971 -5.021158 -1.428700 0
M  V30 26 N -4.406031 -3.540398 0.301929 0
M  V30 27 C -5.017611 -3.403286 1.576492 0
M  V30 28 C -4.562556 -2.118999 2.225528 0
M  V30 29 O -5.150301 -1.959854 3.493043 0
M  V30 30 C -0.896043 -2.223105 -4.018311 0
M  V30 31 N -0.276166 -1.071179 -4.283266 0
M  V30 32 N 2.458114 1.444005 -1.457597 0
M  V30 33 C 2.539873 2.081870 -0.297751 0
M  V30 34 N 3.576164 2.135585 0.548158 0
M  V30 35 C 4.901583 1.584484 0.536112 0
M  V30 36 C 5.196313 0.678611 -0.618644 0
M  V30 37 C 4.704323 -0.655500 -0.201787 0
M  V30 38 C 4.574417 -0.578914 1.300777 0
M  V30 39 C 5.254061 0.714485 1.683579 0
M  V30 40 H 1.414247 1.977679 4.913127 0
M  V30 41 H 2.599110 0.770590 4.385808 0
M  V30 42 H 1.563781 1.697654 3.176869 0
M  V30 43 H 2.791205 3.105499 6.097071 0
M  V30 44 H 4.361418 2.376967 5.778954 0
M  V30 45 H 4.130921 4.101912 5.390493 0
M  V30 46 H 1.213163 3.920995 1.955119 0
M  V30 47 H -0.495541 3.405289 -0.163182 0
M  V30 48 H 1.010317 1.191676 -4.451138 0
M  V30 49 H 0.626798 -0.465483 -1.109637 0
M  V30 50 H -0.488350 -2.534495 -0.704990 0
M  V30 51 H -3.676282 -1.900557 -2.503422 0
M  V30 52 H -2.751697 -1.894613 -0.905104 0
M  V30 53 H -5.047316 -1.583117 -0.289451 0
M  V30 54 H -6.716245 -2.503820 -1.637612 0
M  V30 55 H -5.460269 -3.246979 -2.647554 0
M  V30 56 H -6.246930 -5.261056 -1.859517 0
M  V30 57 H -6.900392 -4.477185 -0.370559 0
M  V30 58 H -4.770707 -5.617405 0.333585 0
M  V30 59 H -2.917184 -5.673557 -0.940703 0
M  V30 60 H -4.088550 -5.482791 -2.358100 0
M  V30 61 H -4.617531 -4.222149 2.227139 0
M  V30 62 H -6.120959 -3.502150 1.565752 0
M  V30 63 H -4.760405 -1.222040 1.641439 0
M  V30 64 H -3.446356 -2.202011 2.357269 0
M  V30 65 H -4.990151 -1.008189 3.719937 0
M  V30 66 H -1.368444 -2.783325 -4.832527 0
M  V30 67 H 5.683163 2.391397 0.497186 0
M  V30 68 H 4.803727 1.037602 -1.583260 0
M  V30 69 H 6.305433 0.615725 -0.741408 0
M  V30 70 H 3.663032 -0.886434 -0.574225 0
M  V30 71 H 5.375138 -1.491967 -0.514214 0
M  V30 72 H 3.523834 -0.626932 1.650499 0
M  V30 73 H 5.121900 -1.443980 1.727388 0
M  V30 74 H 5.034330 1.052792 2.685600 0
M  V30 75 H 6.351999 0.526806 1.620991 0
M  V30 END ATOM
M  V30 BEGIN BOND
M  V30 1 1 1 2
M  V30 2 1 2 3
M  V30 3 1 2 4
M  V30 4 2 4 5
M  V30 5 1 4 6
M  V30 6 2 6 7
M  V30 7 1 7 8
M  V30 8 2 8 9
M  V30 9 1 9 10
M  V30 10 2 10 11
M  V30 11 1 11 12
M  V30 12 1 12 13
M  V30 13 2 13 14
M  V30 14 1 14 15
M  V30 15 2 15 16
M  V30 16 1 16 17
M  V30 17 2 17 18
M  V30 18 1 17 19
M  V30 19 1 19 20
M  V30 20 1 20 21
M  V30 21 1 21 22
M  V30 22 1 22 23
M  V30 23 1 23 24
M  V30 24 1 24 25
M  V30 25 1 24 26
M  V30 26 1 26 27
M  V30 27 1 27 28
M  V30 28 1 28 29
M  V30 29 1 16 30
M  V30 30 2 30 31
M  V30 31 1 11 32
M  V30 32 2 32 33
M  V30 33 1 33 34
M  V30 34 1 34 35
M  V30 35 1 35 36
M  V30 36 1 36 37
M  V30 37 1 37 38
M  V30 38 1 38 39
M  V30 39 1 34 6
M  V30 40 1 39 35
M  V30 41 1 33 8
M  V30 42 1 31 13
M  V30 43 1 25 19
M  V30 44 1 26 21
M  V30 45 1 1 40
M  V30 46 1 1 41
M  V30 47 1 1 42
M  V30 48 1 3 43
M  V30 49 1 3 44
M  V30 50 1 3 45
M  V30 51 1 7 46
M  V30 52 1 9 47
M  V30 53 1 12 48
M  V30 54 1 14 49
M  V30 55 1 15 50
M  V30 56 1 20 51
M  V30 57 1 20 52
M  V30 58 1 21 53
M  V30 59 1 22 54
M  V30 60 1 22 55
M  V30 61 1 23 56
M  V30 62 1 23 57
M  V30 63 1 24 58
M  V30 64 1 25 59
M  V30 65 1 25 60
M  V30 66 1 27 61
M  V30 67 1 27 62
M  V30 68 1 28 63
M  V30 69 1 28 64
M  V30 70 1 29 65
M  V30 71 1 30 66
M  V30 72 1 35 67
M  V30 73 1 36 68
M  V30 74 1 36 69
M  V30 75 1 37 70
M  V30 76 1 37 71
M  V30 77 1 38 72
M  V30 78 1 38 73
M  V30 79 1 39 74
M  V30 80 1 39 75
M  V30 END BOND
M  V30 END CTAB
M  END
>  <Dataset>  (515) 
ChEMBL_Kinases

>  <Ligand_Instance>  (515) 
nan

>  <PDB_ID>  (515) 
nan

>  <Standardized_SMILES>  (515) 
CN(C)C(=O)c1cc2cnc(Nc3ccc(C(=O)N4CC5CCC(C4)N5CCO)cn3)nc2n1C1CCCC1

>  <Name>  (515) 
nan

>  <Pocket>  (515) 
nan

>  <ATP_Site>  (515) 
nan

>  <Peripheral>  (515) 
nan

>  <Num_H_Atoms_ProtBoundConf>  (515) 
nan

>  <Num_Resolved_Atoms>  (515) 
nan

>  <Num_Not_Resolved_Atoms>  (515) 
nan

$$$$
CHEMBL3689462
     RDKit          3D

  0  0  0  0  0  0  0  0  0  0999 V3000
M  V30 BEGIN CTAB
M  V30 COUNTS 56 59 0 0 0
M  V30 BEGIN ATOM
M  V30 1 C 0.621362 -2.085910 4.231702 0
M  V30 2 C 1.814830 -1.405270 4.835312 0
M  V30 3 S 3.327329 -2.045806 4.159697 0
M  V30 4 O 3.331949 -3.519032 4.438370 0
M  V30 5 O 4.510846 -1.437520 4.836248 0
M  V30 6 N 3.419306 -1.824644 2.469005 0
M  V30 7 C 3.414933 -0.568386 1.800654 0
M  V30 8 C 4.178081 0.505421 2.219792 0
M  V30 9 C 4.121682 1.691802 1.520322 0
M  V30 10 C 3.326181 1.844107 0.411960 0
M  V30 11 C 2.532985 0.793444 -0.057825 0
M  V30 12 C 1.627495 0.822016 -1.235350 0
M  V30 13 N 0.334367 1.197029 -0.817371 0
M  V30 14 C 0.150326 2.445887 -0.189058 0
M  V30 15 C -1.097770 2.512703 0.662873 0
M  V30 16 C -2.284681 1.815072 0.117238 0
M  V30 17 C -1.987630 0.665779 -0.824278 0 CFG=2
M  V30 18 N -2.921776 -0.425686 -0.642673 0
M  V30 19 C -3.031207 -1.601225 -1.423302 0
M  V30 20 C -2.260316 -1.875542 -2.529368 0
M  V30 21 C -2.345786 -3.019511 -3.296243 0
M  V30 22 C -3.284861 -3.952630 -2.909330 0
M  V30 23 N -3.674838 -5.153299 -3.363966 0
M  V30 24 N -4.655685 -5.665092 -2.608898 0
M  V30 25 C -4.950080 -4.792376 -1.605307 0
M  V30 26 C -4.087551 -3.736797 -1.811029 0
M  V30 27 C -3.948499 -2.572322 -1.090827 0
M  V30 28 C -0.593016 0.183529 -0.480862 0
M  V30 29 C 2.636182 -0.368578 0.689063 0
M  V30 30 H -0.197536 -2.271229 4.971983 0
M  V30 31 H 0.186171 -1.471940 3.413137 0
M  V30 32 H 0.964911 -3.081494 3.831764 0
M  V30 33 H 1.777548 -0.299035 4.701421 0
M  V30 34 H 1.788250 -1.592004 5.918136 0
M  V30 35 H 3.486535 -2.621453 1.794459 0
M  V30 36 H 4.805957 0.393802 3.090336 0
M  V30 37 H 4.720939 2.555461 1.838729 0
M  V30 38 H 3.255975 2.771474 -0.173072 0
M  V30 39 H 2.075500 1.512230 -1.984275 0
M  V30 40 H 1.676844 -0.210796 -1.665160 0
M  V30 41 H 0.992138 2.592382 0.550482 0
M  V30 42 H 0.237911 3.345465 -0.850000 0
M  V30 43 H -0.887594 2.205536 1.725885 0
M  V30 44 H -1.337318 3.602999 0.749443 0
M  V30 45 H -2.862538 1.379712 0.970745 0
M  V30 46 H -2.968435 2.538853 -0.392321 0
M  V30 47 H -2.076973 1.030655 -1.847623 0
M  V30 48 H -3.590709 -0.316698 0.168745 0
M  V30 49 H -1.522477 -1.165117 -2.864996 0
M  V30 50 H -1.720496 -3.198717 -4.160131 0
M  V30 51 H -3.267978 -5.642774 -4.208053 0
M  V30 52 H -5.699806 -4.960109 -0.858508 0
M  V30 53 H -4.582694 -2.404405 -0.224639 0
M  V30 54 H -0.312650 -0.777211 -0.886069 0
M  V30 55 H -0.583947 0.066203 0.638335 0
M  V30 56 H 2.041813 -1.214816 0.367542 0
M  V30 END ATOM
M  V30 BEGIN BOND
M  V30 1 1 1 2
M  V30 2 1 2 3
M  V30 3 2 3 4
M  V30 4 2 3 5
M  V30 5 1 3 6
M  V30 6 1 6 7
M  V30 7 2 7 8
M  V30 8 1 8 9
M  V30 9 2 9 10
M  V30 10 1 10 11
M  V30 11 1 11 12
M  V30 12 1 12 13
M  V30 13 1 13 14
M  V30 14 1 14 15
M  V30 15 1 15 16
M  V30 16 1 16 17
M  V30 17 1 17 18
M  V30 18 1 18 19
M  V30 19 2 19 20
M  V30 20 1 20 21
M  V30 21 2 21 22
M  V30 22 1 22 23
M  V30 23 1 23 24
M  V30 24 2 24 25
M  V30 25 1 25 26
M  V30 26 2 26 27
M  V30 27 1 17 28
M  V30 28 2 11 29
M  V30 29 1 29 7
M  V30 30 1 28 13
M  V30 31 1 27 19
M  V30 32 1 26 22
M  V30 33 1 1 30
M  V30 34 1 1 31
M  V30 35 1 1 32
M  V30 36 1 2 33
M  V30 37 1 2 34
M  V30 38 1 6 35
M  V30 39 1 8 36
M  V30 40 1 9 37
M  V30 41 1 10 38
M  V30 42 1 12 39
M  V30 43 1 12 40
M  V30 44 1 14 41
M  V30 45 1 14 42
M  V30 46 1 15 43
M  V30 47 1 15 44
M  V30 48 1 16 45
M  V30 49 1 16 46
M  V30 50 1 17 47 CFG=3
M  V30 51 1 18 48
M  V30 52 1 20 49
M  V30 53 1 21 50
M  V30 54 1 23 51
M  V30 55 1 25 52
M  V30 56 1 27 53
M  V30 57 1 28 54
M  V30 58 1 28 55
M  V30 59 1 29 56
M  V30 END BOND
M  V30 END CTAB
M  END
>  <Dataset>  (516) 
ChEMBL_Kinases

>  <Ligand_Instance>  (516) 
nan

>  <PDB_ID>  (516) 
nan

>  <Standardized_SMILES>  (516) 
CCS(=O)(=O)Nc1cccc(CN2CCC[C@H](Nc3ccc4[nH]ncc4c3)C2)c1

>  <Name>  (516) 
nan

>  <Pocket>  (516) 
nan

>  <ATP_Site>  (516) 
nan

>  <Peripheral>  (516) 
nan

>  <Num_H_Atoms_ProtBoundConf>  (516) 
nan

>  <Num_Resolved_Atoms>  (516) 
nan

>  <Num_Not_Resolved_Atoms>  (516) 
nan

$$$$
CHEMBL3689463
     RDKit          3D

  0  0  0  0  0  0  0  0  0  0999 V3000
M  V30 BEGIN CTAB
M  V30 COUNTS 52 55 0 0 0
M  V30 BEGIN ATOM
M  V30 1 O 0.611032 -6.254456 -0.957952 0
M  V30 2 C 1.077505 -5.459102 -0.084924 0
M  V30 3 O 1.237196 -5.894577 1.224530 0
M  V30 4 C 1.499311 -4.056889 -0.270840 0
M  V30 5 O 1.349123 -3.583526 -1.595070 0
M  V30 6 C 1.713078 -2.278057 -1.891837 0
M  V30 7 C 1.580854 -1.779438 -3.175116 0
M  V30 8 C 1.956514 -0.462617 -3.437665 0
M  V30 9 C 2.458783 0.357208 -2.443488 0
M  V30 10 C 2.600933 -0.120792 -1.146885 0
M  V30 11 C 3.116607 0.630012 0.003408 0
M  V30 12 N 2.185739 1.346051 0.778641 0
M  V30 13 C 1.422128 2.357173 0.155780 0
M  V30 14 C 0.679450 3.137317 1.229265 0
M  V30 15 C -0.321064 2.244823 1.942981 0
M  V30 16 C 0.256888 0.905457 2.271697 0 CFG=1
M  V30 17 N -0.438508 -0.199687 1.621641 0
M  V30 18 C -1.807137 -0.481197 1.863510 0
M  V30 19 C -2.601892 0.227368 2.714654 0
M  V30 20 C -3.929951 -0.026384 2.962276 0
M  V30 21 C -4.536230 -1.088981 2.301961 0
M  V30 22 N -5.791656 -1.592849 2.320452 0
M  V30 23 N -5.866628 -2.624635 1.503371 0
M  V30 24 C -4.649939 -2.786941 0.953999 0
M  V30 25 C -3.757489 -1.830573 1.429431 0
M  V30 26 C -2.428575 -1.524412 1.224264 0
M  V30 27 C 1.735606 0.811073 1.999449 0
M  V30 28 C 2.219867 -1.441208 -0.902515 0
M  V30 29 H 1.109583 -6.867989 1.510564 0
M  V30 30 H 2.572880 -3.903823 0.038459 0
M  V30 31 H 0.866805 -3.413916 0.377626 0
M  V30 32 H 1.195411 -2.378282 -3.981320 0
M  V30 33 H 1.857585 -0.064587 -4.433450 0
M  V30 34 H 2.765709 1.383369 -2.586937 0
M  V30 35 H 3.889799 1.373813 -0.349363 0
M  V30 36 H 3.692018 -0.048250 0.666471 0
M  V30 37 H 2.126647 3.096218 -0.309409 0
M  V30 38 H 0.684376 2.038865 -0.587179 0
M  V30 39 H 1.444276 3.489343 1.951782 0
M  V30 40 H 0.153037 4.004571 0.818120 0
M  V30 41 H -0.580811 2.784847 2.875619 0
M  V30 42 H -1.266505 2.160337 1.355645 0
M  V30 43 H 0.144372 0.727747 3.384003 0
M  V30 44 H 0.092665 -0.797691 0.959398 0
M  V30 45 H -2.200833 1.063536 3.262977 0
M  V30 46 H -4.525994 0.574839 3.657487 0
M  V30 47 H -6.526041 -1.157597 2.927531 0
M  V30 48 H -4.358677 -3.553969 0.227707 0
M  V30 49 H -1.903325 -2.172579 0.514876 0
M  V30 50 H 2.247103 1.365557 2.833700 0
M  V30 51 H 2.007575 -0.249101 2.178860 0
M  V30 52 H 2.305142 -1.881962 0.095503 0
M  V30 END ATOM
M  V30 BEGIN BOND
M  V30 1 2 1 2
M  V30 2 1 2 3
M  V30 3 1 2 4
M  V30 4 1 4 5
M  V30 5 1 5 6
M  V30 6 2 6 7
M  V30 7 1 7 8
M  V30 8 2 8 9
M  V30 9 1 9 10
M  V30 10 1 10 11
M  V30 11 1 11 12
M  V30 12 1 12 13
M  V30 13 1 13 14
M  V30 14 1 14 15
M  V30 15 1 15 16
M  V30 16 1 16 17
M  V30 17 1 17 18
M  V30 18 2 18 19
M  V30 19 1 19 20
M  V30 20 2 20 21
M  V30 21 1 21 22
M  V30 22 1 22 23
M  V30 23 2 23 24
M  V30 24 1 24 25
M  V30 25 2 25 26
M  V30 26 1 16 27
M  V30 27 2 10 28
M  V30 28 1 28 6
M  V30 29 1 27 12
M  V30 30 1 26 18
M  V30 31 1 25 21
M  V30 32 1 3 29
M  V30 33 1 4 30
M  V30 34 1 4 31
M  V30 35 1 7 32
M  V30 36 1 8 33
M  V30 37 1 9 34
M  V30 38 1 11 35
M  V30 39 1 11 36
M  V30 40 1 13 37
M  V30 41 1 13 38
M  V30 42 1 14 39
M  V30 43 1 14 40
M  V30 44 1 15 41
M  V30 45 1 15 42
M  V30 46 1 16 43 CFG=1
M  V30 47 1 17 44
M  V30 48 1 19 45
M  V30 49 1 20 46
M  V30 50 1 22 47
M  V30 51 1 24 48
M  V30 52 1 26 49
M  V30 53 1 27 50
M  V30 54 1 27 51
M  V30 55 1 28 52
M  V30 END BOND
M  V30 END CTAB
M  END
>  <Dataset>  (517) 
ChEMBL_Kinases

>  <Ligand_Instance>  (517) 
nan

>  <PDB_ID>  (517) 
nan

>  <Standardized_SMILES>  (517) 
O=C(O)COc1cccc(CN2CCC[C@@H](Nc3ccc4[nH]ncc4c3)C2)c1

>  <Name>  (517) 
nan

>  <Pocket>  (517) 
nan

>  <ATP_Site>  (517) 
nan

>  <Peripheral>  (517) 
nan

>  <Num_H_Atoms_ProtBoundConf>  (517) 
nan

>  <Num_Resolved_Atoms>  (517) 
nan

>  <Num_Not_Resolved_Atoms>  (517) 
nan

$$$$
CHEMBL3689464
     RDKit          3D

  0  0  0  0  0  0  0  0  0  0999 V3000
M  V30 BEGIN CTAB
M  V30 COUNTS 53 56 0 0 0
M  V30 BEGIN ATOM
M  V30 1 O 1.863751 -4.168374 4.649225 0
M  V30 2 C 1.399044 -4.822369 3.499730 0
M  V30 3 C 1.539766 -3.910345 2.297098 0
M  V30 4 O 2.879383 -3.537682 2.076746 0
M  V30 5 C 3.196851 -2.704100 1.017522 0
M  V30 6 C 4.498612 -2.319326 0.772794 0
M  V30 7 C 4.779415 -1.487911 -0.291385 0
M  V30 8 C 3.765318 -1.048981 -1.098951 0
M  V30 9 C 2.435643 -1.387020 -0.923002 0
M  V30 10 C 1.293515 -0.958031 -1.736721 0
M  V30 11 N 0.712316 0.229135 -1.204572 0
M  V30 12 C -0.422067 0.695733 -1.996721 0
M  V30 13 C -0.809323 2.060708 -1.409893 0
M  V30 14 C -0.476784 2.076715 0.064827 0
M  V30 15 N -1.067946 0.967075 0.754135 0
M  V30 16 C -2.411256 0.676512 1.003479 0
M  V30 17 C -3.487099 1.453172 0.645269 0
M  V30 18 C -4.815556 1.166883 0.880557 0
M  V30 19 C -5.083763 -0.014493 1.539858 0
M  V30 20 N -6.226225 -0.593329 1.923421 0
M  V30 21 N -5.968827 -1.755559 2.540948 0
M  V30 22 C -4.632207 -1.952077 2.568009 0
M  V30 23 C -4.059541 -0.847740 1.932349 0
M  V30 24 C -2.763838 -0.484111 1.656723 0
M  V30 25 C 1.018806 2.135762 0.201922 0
M  V30 26 C 1.592442 1.324105 -0.969836 0
M  V30 27 C 2.215431 -2.231321 0.171253 0
M  V30 28 H 1.706326 -3.198975 4.530385 0
M  V30 29 H 0.317006 -5.020733 3.641306 0
M  V30 30 H 1.948503 -5.766316 3.315513 0
M  V30 31 H 1.153466 -4.449379 1.409819 0
M  V30 32 H 0.951700 -2.980617 2.485185 0
M  V30 33 H 5.269057 -2.689270 1.435628 0
M  V30 34 H 5.808246 -1.199422 -0.463735 0
M  V30 35 H 3.983362 -0.397491 -1.939194 0
M  V30 36 H 1.555399 -0.885091 -2.813399 0
M  V30 37 H 0.498945 -1.755118 -1.652765 0
M  V30 38 H -0.101818 0.832134 -3.060127 0
M  V30 39 H -1.295983 0.021255 -1.925328 0
M  V30 40 H -0.178115 2.862446 -1.901121 0
M  V30 41 H -1.833112 2.310763 -1.667845 0
M  V30 42 H -0.905331 3.007644 0.501430 0
M  V30 43 H -0.354879 0.287754 1.112885 0
M  V30 44 H -3.325082 2.386452 0.137105 0
M  V30 45 H -5.616857 1.823448 0.570942 0
M  V30 46 H -7.167162 -0.174925 1.751850 0
M  V30 47 H -4.055050 -2.779782 2.984228 0
M  V30 48 H -2.008156 -1.181877 1.991510 0
M  V30 49 H 1.388103 3.184522 0.103165 0
M  V30 50 H 1.383859 1.646746 1.127566 0
M  V30 51 H 2.613935 1.088136 -0.677760 0
M  V30 52 H 1.681286 1.994623 -1.873976 0
M  V30 53 H 1.202556 -2.543939 0.379552 0
M  V30 END ATOM
M  V30 BEGIN BOND
M  V30 1 1 1 2
M  V30 2 1 2 3
M  V30 3 1 3 4
M  V30 4 1 4 5
M  V30 5 2 5 6
M  V30 6 1 6 7
M  V30 7 2 7 8
M  V30 8 1 8 9
M  V30 9 1 9 10
M  V30 10 1 10 11
M  V30 11 1 11 12
M  V30 12 1 12 13
M  V30 13 1 13 14
M  V30 14 1 14 15
M  V30 15 1 15 16
M  V30 16 2 16 17
M  V30 17 1 17 18
M  V30 18 2 18 19
M  V30 19 1 19 20
M  V30 20 1 20 21
M  V30 21 2 21 22
M  V30 22 1 22 23
M  V30 23 2 23 24
M  V30 24 1 14 25
M  V30 25 1 25 26
M  V30 26 2 9 27
M  V30 27 1 27 5
M  V30 28 1 26 11
M  V30 29 1 24 16
M  V30 30 1 23 19
M  V30 31 1 1 28
M  V30 32 1 2 29
M  V30 33 1 2 30
M  V30 34 1 3 31
M  V30 35 1 3 32
M  V30 36 1 6 33
M  V30 37 1 7 34
M  V30 38 1 8 35
M  V30 39 1 10 36
M  V30 40 1 10 37
M  V30 41 1 12 38
M  V30 42 1 12 39
M  V30 43 1 13 40
M  V30 44 1 13 41
M  V30 45 1 14 42
M  V30 46 1 15 43
M  V30 47 1 17 44
M  V30 48 1 18 45
M  V30 49 1 20 46
M  V30 50 1 22 47
M  V30 51 1 24 48
M  V30 52 1 25 49
M  V30 53 1 25 50
M  V30 54 1 26 51
M  V30 55 1 26 52
M  V30 56 1 27 53
M  V30 END BOND
M  V30 END CTAB
M  END
>  <Dataset>  (518) 
ChEMBL_Kinases

>  <Ligand_Instance>  (518) 
nan

>  <PDB_ID>  (518) 
nan

>  <Standardized_SMILES>  (518) 
OCCOc1cccc(CN2CCC(Nc3ccc4[nH]ncc4c3)CC2)c1

>  <Name>  (518) 
nan

>  <Pocket>  (518) 
nan

>  <ATP_Site>  (518) 
nan

>  <Peripheral>  (518) 
nan

>  <Num_H_Atoms_ProtBoundConf>  (518) 
nan

>  <Num_Resolved_Atoms>  (518) 
nan

>  <Num_Not_Resolved_Atoms>  (518) 
nan

$$$$
CHEMBL3689465
     RDKit          3D

  0  0  0  0  0  0  0  0  0  0999 V3000
M  V30 BEGIN CTAB
M  V30 COUNTS 51 54 0 0 0
M  V30 BEGIN ATOM
M  V30 1 C -1.752860 -7.300161 1.801478 0
M  V30 2 O -0.443416 -7.114462 1.244834 0
M  V30 3 C -0.127182 -5.947908 0.561837 0
M  V30 4 C -1.042943 -4.921936 0.386126 0
M  V30 5 C -0.620031 -3.808838 -0.308662 0
M  V30 6 C 0.636394 -3.624204 -0.845961 0
M  V30 7 C 1.122124 -2.464374 -1.580537 0
M  V30 8 N 1.763544 -1.444119 -0.815929 0
M  V30 9 C 2.150330 -0.406554 -1.711565 0
M  V30 10 C 2.807739 0.783232 -1.096096 0
M  V30 11 C 2.230604 1.129849 0.255816 0
M  V30 12 C 0.861014 0.471698 0.304413 0
M  V30 13 N 0.018395 1.000866 1.334479 0
M  V30 14 C -0.493095 2.320466 1.305811 0
M  V30 15 C -0.250670 3.182045 0.263067 0
M  V30 16 C -0.726301 4.475446 0.209963 0
M  V30 17 C -1.493878 4.974389 1.241189 0
M  V30 18 C -1.761244 4.142303 2.307323 0
M  V30 19 C -2.535766 4.633142 3.356159 0
M  V30 20 N -2.821620 3.838320 4.429623 0
M  V30 21 C -2.349217 2.564241 4.475271 0
M  V30 22 C -1.588710 2.124576 3.415718 0
M  V30 23 C -1.260773 2.852032 2.313767 0
M  V30 24 C 1.098517 -1.003000 0.359053 0
M  V30 25 C 1.527451 -4.685353 -0.644366 0
M  V30 26 C 1.150785 -5.838202 0.053290 0
M  V30 27 H -2.056755 -6.392908 2.374331 0
M  V30 28 H -1.777819 -8.152855 2.480990 0
M  V30 29 H -2.463051 -7.424571 0.952423 0
M  V30 30 H -2.044411 -5.005278 0.783607 0
M  V30 31 H -1.333374 -3.013054 -0.449161 0
M  V30 32 H 0.294435 -2.062093 -2.223565 0
M  V30 33 H 1.889017 -2.808995 -2.335022 0
M  V30 34 H 1.293495 -0.117025 -2.387365 0
M  V30 35 H 2.899567 -0.837533 -2.433914 0
M  V30 36 H 3.892611 0.636912 -1.027954 0
M  V30 37 H 2.574975 1.654018 -1.772718 0
M  V30 38 H 2.250895 2.178503 0.520061 0
M  V30 39 H 2.853486 0.605072 1.042441 0
M  V30 40 H 0.426790 0.667491 -0.723360 0
M  V30 41 H -0.157101 0.304003 2.077644 0
M  V30 42 H 0.324021 2.908395 -0.599740 0
M  V30 43 H -0.531942 5.145911 -0.611773 0
M  V30 44 H -1.865236 5.984923 1.199100 0
M  V30 45 H -2.913042 5.647286 3.322255 0
M  V30 46 H -2.588897 1.944911 5.342435 0
M  V30 47 H -1.253735 1.109330 3.527626 0
M  V30 48 H 0.201800 -1.574180 0.656997 0
M  V30 49 H 1.815168 -1.157745 1.223534 0
M  V30 50 H 2.555019 -4.651363 -1.026836 0
M  V30 51 H 1.862593 -6.649356 0.196522 0
M  V30 END ATOM
M  V30 BEGIN BOND
M  V30 1 1 1 2
M  V30 2 1 2 3
M  V30 3 2 3 4
M  V30 4 1 4 5
M  V30 5 2 5 6
M  V30 6 1 6 7
M  V30 7 1 7 8
M  V30 8 1 8 9
M  V30 9 1 9 10
M  V30 10 1 10 11
M  V30 11 1 11 12
M  V30 12 1 12 13
M  V30 13 1 13 14
M  V30 14 2 14 15
M  V30 15 1 15 16
M  V30 16 2 16 17
M  V30 17 1 17 18
M  V30 18 2 18 19
M  V30 19 1 19 20
M  V30 20 2 20 21
M  V30 21 1 21 22
M  V30 22 2 22 23
M  V30 23 1 12 24
M  V30 24 1 6 25
M  V30 25 2 25 26
M  V30 26 1 26 3
M  V30 27 1 24 8
M  V30 28 1 23 14
M  V30 29 1 23 18
M  V30 30 1 1 27
M  V30 31 1 1 28
M  V30 32 1 1 29
M  V30 33 1 4 30
M  V30 34 1 5 31
M  V30 35 1 7 32
M  V30 36 1 7 33
M  V30 37 1 9 34
M  V30 38 1 9 35
M  V30 39 1 10 36
M  V30 40 1 10 37
M  V30 41 1 11 38
M  V30 42 1 11 39
M  V30 43 1 12 40
M  V30 44 1 13 41
M  V30 45 1 15 42
M  V30 46 1 16 43
M  V30 47 1 17 44
M  V30 48 1 19 45
M  V30 49 1 21 46
M  V30 50 1 22 47
M  V30 51 1 24 48
M  V30 52 1 24 49
M  V30 53 1 25 50
M  V30 54 1 26 51
M  V30 END BOND
M  V30 END CTAB
M  END
>  <Dataset>  (519) 
ChEMBL_Kinases

>  <Ligand_Instance>  (519) 
nan

>  <PDB_ID>  (519) 
nan

>  <Standardized_SMILES>  (519) 
COc1ccc(CN2CCCC(Nc3cccc4cnccc34)C2)cc1

>  <Name>  (519) 
nan

>  <Pocket>  (519) 
nan

>  <ATP_Site>  (519) 
nan

>  <Peripheral>  (519) 
nan

>  <Num_H_Atoms_ProtBoundConf>  (519) 
nan

>  <Num_Resolved_Atoms>  (519) 
nan

>  <Num_Not_Resolved_Atoms>  (519) 
nan

$$$$
CHEMBL3689466
     RDKit          3D

  0  0  0  0  0  0  0  0  0  0999 V3000
M  V30 BEGIN CTAB
M  V30 COUNTS 53 56 0 0 0
M  V30 BEGIN ATOM
M  V30 1 C 1.655693 -5.689375 3.403598 0
M  V30 2 S 2.511270 -5.760376 1.838247 0
M  V30 3 O 3.927756 -6.168888 2.132469 0
M  V30 4 O 1.921702 -6.841425 0.972177 0
M  V30 5 C 2.469623 -4.206989 1.018268 0
M  V30 6 C 3.457525 -3.265440 1.220002 0
M  V30 7 C 3.433746 -2.043688 0.581235 0
M  V30 8 C 2.414524 -1.714327 -0.289462 0
M  V30 9 C 2.262787 -0.440783 -1.041273 0
M  V30 10 N 1.506714 0.481720 -0.274739 0
M  V30 11 C 2.080858 0.828795 0.982032 0
M  V30 12 C 1.544817 2.061727 1.594148 0
M  V30 13 C 0.195770 2.522848 1.123048 0
M  V30 14 C -0.119380 2.161815 -0.289570 0
M  V30 15 N -1.085183 1.090604 -0.421603 0
M  V30 16 C -2.409495 1.282030 0.031171 0
M  V30 17 C -2.840953 2.453601 0.572974 0
M  V30 18 C -4.119510 2.685160 1.033770 0
M  V30 19 C -5.070493 1.672726 0.957676 0
M  V30 20 C -4.684887 0.449078 0.410786 0
M  V30 21 C -5.607364 -0.570924 0.323639 0
M  V30 22 N -5.281786 -1.757316 -0.192054 0
M  V30 23 C -4.018645 -1.955021 -0.636134 0
M  V30 24 C -3.110689 -0.927645 -0.542090 0
M  V30 25 C -3.384661 0.318177 -0.020703 0
M  V30 26 C 1.167286 1.710298 -0.946290 0
M  V30 27 C 1.447105 -2.715786 -0.446579 0
M  V30 28 C 1.416340 -3.954580 0.163227 0
M  V30 29 H 2.304395 -5.317251 4.223807 0
M  V30 30 H 1.250936 -6.675986 3.673127 0
M  V30 31 H 0.836404 -4.942096 3.327796 0
M  V30 32 H 4.296086 -3.466629 1.900841 0
M  V30 33 H 4.192947 -1.297132 0.723562 0
M  V30 34 H 1.673826 -0.675768 -1.956339 0
M  V30 35 H 3.263369 -0.073530 -1.345831 0
M  V30 36 H 1.869401 -0.023357 1.674590 0
M  V30 37 H 3.209612 0.875083 0.938161 0
M  V30 38 H 2.254640 2.901961 1.396014 0
M  V30 39 H 1.525551 1.962477 2.718051 0
M  V30 40 H 0.067598 3.614957 1.263995 0
M  V30 41 H -0.548379 2.025822 1.783568 0
M  V30 42 H -0.431621 3.071455 -0.845351 0
M  V30 43 H -0.765736 0.199280 -0.853405 0
M  V30 44 H -2.216896 3.317305 0.686656 0
M  V30 45 H -4.468759 3.611606 1.464823 0
M  V30 46 H -6.069996 1.819453 1.305768 0
M  V30 47 H -6.622884 -0.422295 0.677030 0
M  V30 48 H -3.792044 -2.928328 -1.047206 0
M  V30 49 H -2.138080 -1.189395 -0.922503 0
M  V30 50 H 1.922154 2.510411 -0.771975 0
M  V30 51 H 1.053966 1.494785 -2.027281 0
M  V30 52 H 0.619576 -2.486848 -1.133931 0
M  V30 53 H 0.619528 -4.625980 -0.044338 0
M  V30 END ATOM
M  V30 BEGIN BOND
M  V30 1 1 1 2
M  V30 2 2 2 3
M  V30 3 2 2 4
M  V30 4 1 2 5
M  V30 5 2 5 6
M  V30 6 1 6 7
M  V30 7 2 7 8
M  V30 8 1 8 9
M  V30 9 1 9 10
M  V30 10 1 10 11
M  V30 11 1 11 12
M  V30 12 1 12 13
M  V30 13 1 13 14
M  V30 14 1 14 15
M  V30 15 1 15 16
M  V30 16 2 16 17
M  V30 17 1 17 18
M  V30 18 2 18 19
M  V30 19 1 19 20
M  V30 20 2 20 21
M  V30 21 1 21 22
M  V30 22 2 22 23
M  V30 23 1 23 24
M  V30 24 2 24 25
M  V30 25 1 14 26
M  V30 26 1 8 27
M  V30 27 2 27 28
M  V30 28 1 28 5
M  V30 29 1 26 10
M  V30 30 1 25 16
M  V30 31 1 25 20
M  V30 32 1 1 29
M  V30 33 1 1 30
M  V30 34 1 1 31
M  V30 35 1 6 32
M  V30 36 1 7 33
M  V30 37 1 9 34
M  V30 38 1 9 35
M  V30 39 1 11 36
M  V30 40 1 11 37
M  V30 41 1 12 38
M  V30 42 1 12 39
M  V30 43 1 13 40
M  V30 44 1 13 41
M  V30 45 1 14 42
M  V30 46 1 15 43
M  V30 47 1 17 44
M  V30 48 1 18 45
M  V30 49 1 19 46
M  V30 50 1 21 47
M  V30 51 1 23 48
M  V30 52 1 24 49
M  V30 53 1 26 50
M  V30 54 1 26 51
M  V30 55 1 27 52
M  V30 56 1 28 53
M  V30 END BOND
M  V30 END CTAB
M  END
>  <Dataset>  (520) 
ChEMBL_Kinases

>  <Ligand_Instance>  (520) 
nan

>  <PDB_ID>  (520) 
nan

>  <Standardized_SMILES>  (520) 
CS(=O)(=O)c1ccc(CN2CCCC(Nc3cccc4cnccc34)C2)cc1

>  <Name>  (520) 
nan

>  <Pocket>  (520) 
nan

>  <ATP_Site>  (520) 
nan

>  <Peripheral>  (520) 
nan

>  <Num_H_Atoms_ProtBoundConf>  (520) 
nan

>  <Num_Resolved_Atoms>  (520) 
nan

>  <Num_Not_Resolved_Atoms>  (520) 
nan

$$$$
CHEMBL3689467
     RDKit          3D

  0  0  0  0  0  0  0  0  0  0999 V3000
M  V30 BEGIN CTAB
M  V30 COUNTS 48 51 0 0 0
M  V30 BEGIN ATOM
M  V30 1 N -2.570718 -5.397251 -0.690409 0
M  V30 2 C -1.593451 -4.774893 -0.893289 0
M  V30 3 C -0.396390 -4.019609 -1.158704 0
M  V30 4 C 0.838752 -4.585083 -0.914636 0
M  V30 5 C 1.958069 -3.825645 -1.183317 0
M  V30 6 C 1.817535 -2.540910 -1.681098 0
M  V30 7 C 0.575452 -1.960166 -1.931183 0
M  V30 8 C 0.627537 -0.593665 -2.456764 0
M  V30 9 N 0.626378 0.433632 -1.436033 0
M  V30 10 C 0.681356 1.713364 -2.149124 0
M  V30 11 C 0.449055 2.890302 -1.226841 0
M  V30 12 C 0.476062 2.321364 0.190961 0
M  V30 13 C -0.772632 1.473301 0.291592 0
M  V30 14 N -1.052529 1.078339 1.633327 0
M  V30 15 C -0.343219 0.207385 2.491439 0
M  V30 16 C 0.795344 -0.484580 2.142270 0
M  V30 17 C 1.508257 -1.327833 2.962239 0
M  V30 18 C 1.055153 -1.507436 4.252452 0
M  V30 19 C -0.081150 -0.836601 4.649762 0
M  V30 20 C -0.484706 -1.055984 5.950160 0
M  V30 21 N -1.601312 -0.431859 6.431046 0
M  V30 22 C -2.308407 0.400426 5.628917 0
M  V30 23 C -1.853740 0.578316 4.339189 0
M  V30 24 C -0.755755 -0.003383 3.785180 0
M  V30 25 C -0.604419 0.333773 -0.684792 0
M  V30 26 C -0.530218 -2.738895 -1.654806 0
M  V30 27 H 0.966311 -5.587133 -0.525995 0
M  V30 28 H 2.925014 -4.274499 -0.989920 0
M  V30 29 H 2.780664 -2.037635 -1.854457 0
M  V30 30 H -0.266597 -0.477184 -3.137631 0
M  V30 31 H 1.493658 -0.484555 -3.152757 0
M  V30 32 H -0.118968 1.639826 -2.920847 0
M  V30 33 H 1.674990 1.842867 -2.602044 0
M  V30 34 H -0.587412 3.246349 -1.404123 0
M  V30 35 H 1.178142 3.698466 -1.359493 0
M  V30 36 H 0.402086 3.127863 0.941543 0
M  V30 37 H 1.356184 1.699614 0.262830 0
M  V30 38 H -1.605126 2.132665 -0.090574 0
M  V30 39 H -1.920012 1.521327 1.996530 0
M  V30 40 H 1.212897 -0.414762 1.164857 0
M  V30 41 H 2.394665 -1.857117 2.667383 0
M  V30 42 H 1.585730 -2.161612 4.930017 0
M  V30 43 H 0.062102 -1.716192 6.612437 0
M  V30 44 H -3.183407 0.872206 6.049488 0
M  V30 45 H -2.482316 1.255033 3.787587 0
M  V30 46 H -0.672419 -0.664961 -0.258129 0
M  V30 47 H -1.436019 0.382938 -1.448645 0
M  V30 48 H -1.476445 -2.257127 -1.860873 0
M  V30 END ATOM
M  V30 BEGIN BOND
M  V30 1 3 1 2
M  V30 2 1 2 3
M  V30 3 2 3 4
M  V30 4 1 4 5
M  V30 5 2 5 6
M  V30 6 1 6 7
M  V30 7 1 7 8
M  V30 8 1 8 9
M  V30 9 1 9 10
M  V30 10 1 10 11
M  V30 11 1 11 12
M  V30 12 1 12 13
M  V30 13 1 13 14
M  V30 14 1 14 15
M  V30 15 2 15 16
M  V30 16 1 16 17
M  V30 17 2 17 18
M  V30 18 1 18 19
M  V30 19 2 19 20
M  V30 20 1 20 21
M  V30 21 2 21 22
M  V30 22 1 22 23
M  V30 23 2 23 24
M  V30 24 1 13 25
M  V30 25 2 7 26
M  V30 26 1 26 3
M  V30 27 1 25 9
M  V30 28 1 24 15
M  V30 29 1 24 19
M  V30 30 1 4 27
M  V30 31 1 5 28
M  V30 32 1 6 29
M  V30 33 1 8 30
M  V30 34 1 8 31
M  V30 35 1 10 32
M  V30 36 1 10 33
M  V30 37 1 11 34
M  V30 38 1 11 35
M  V30 39 1 12 36
M  V30 40 1 12 37
M  V30 41 1 13 38
M  V30 42 1 14 39
M  V30 43 1 16 40
M  V30 44 1 17 41
M  V30 45 1 18 42
M  V30 46 1 20 43
M  V30 47 1 22 44
M  V30 48 1 23 45
M  V30 49 1 25 46
M  V30 50 1 25 47
M  V30 51 1 26 48
M  V30 END BOND
M  V30 END CTAB
M  END
>  <Dataset>  (521) 
ChEMBL_Kinases

>  <Ligand_Instance>  (521) 
nan

>  <PDB_ID>  (521) 
nan

>  <Standardized_SMILES>  (521) 
N#Cc1cccc(CN2CCCC(Nc3cccc4cnccc34)C2)c1

>  <Name>  (521) 
nan

>  <Pocket>  (521) 
nan

>  <ATP_Site>  (521) 
nan

>  <Peripheral>  (521) 
nan

>  <Num_H_Atoms_ProtBoundConf>  (521) 
nan

>  <Num_Resolved_Atoms>  (521) 
nan

>  <Num_Not_Resolved_Atoms>  (521) 
nan

$$$$
CHEMBL3689468
     RDKit          3D

  0  0  0  0  0  0  0  0  0  0999 V3000
M  V30 BEGIN CTAB
M  V30 COUNTS 54 57 0 0 0
M  V30 BEGIN ATOM
M  V30 1 C 1.820291 -6.667107 4.000558 0
M  V30 2 C 1.769034 -5.599766 2.971903 0
M  V30 3 O 1.086172 -5.857223 1.951685 0
M  V30 4 N 2.422176 -4.351042 3.069321 0
M  V30 5 C 2.437632 -3.273183 2.153132 0
M  V30 6 C 3.161252 -2.151308 2.493852 0
M  V30 7 C 3.232526 -1.053548 1.662796 0
M  V30 8 C 2.581558 -1.024345 0.446991 0
M  V30 9 C 2.643946 0.150606 -0.466101 0
M  V30 10 N 1.570233 1.016323 -0.145294 0
M  V30 11 C 1.517660 1.547496 1.168049 0
M  V30 12 C 0.762267 2.861338 1.175269 0
M  V30 13 C -0.516361 2.801331 0.363688 0
M  V30 14 C -0.306806 2.151084 -0.995124 0
M  V30 15 N -0.956707 0.857401 -1.058304 0
M  V30 16 C -2.371553 0.800803 -0.969960 0
M  V30 17 C -3.155342 1.927831 -0.854908 0
M  V30 18 C -4.529114 1.909969 -0.760496 0
M  V30 19 C -5.203415 0.708490 -0.778549 0
M  V30 20 C -4.473116 -0.451437 -0.891860 0
M  V30 21 C -5.117906 -1.666027 -0.912238 0
M  V30 22 N -4.449300 -2.824170 -1.020642 0
M  V30 23 C -3.102907 -2.789801 -1.112138 0
M  V30 24 C -2.458781 -1.576376 -1.091747 0
M  V30 25 C -3.101312 -0.366787 -0.982426 0
M  V30 26 C 1.180509 1.941241 -1.175905 0
M  V30 27 C 1.851055 -2.137780 0.086288 0
M  V30 28 C 1.805071 -3.215583 0.945943 0
M  V30 29 H 2.613488 -6.437632 4.732895 0
M  V30 30 H 2.015551 -7.666059 3.558483 0
M  V30 31 H 0.857744 -6.679079 4.561587 0
M  V30 32 H 2.948101 -4.282321 3.968096 0
M  V30 33 H 3.700010 -2.121676 3.452985 0
M  V30 34 H 3.814080 -0.220279 1.994854 0
M  V30 35 H 3.640196 0.627899 -0.355697 0
M  V30 36 H 2.516739 -0.203759 -1.495832 0
M  V30 37 H 2.530418 1.757347 1.568724 0
M  V30 38 H 1.002364 0.857917 1.841666 0
M  V30 39 H 0.494623 3.076744 2.220022 0
M  V30 40 H 1.426968 3.669888 0.824325 0
M  V30 41 H -0.812487 3.852633 0.172558 0
M  V30 42 H -1.304197 2.273292 0.940664 0
M  V30 43 H -0.658480 2.816044 -1.813678 0
M  V30 44 H -0.373495 0.025933 -1.164786 0
M  V30 45 H -2.748313 2.911527 -0.836141 0
M  V30 46 H -5.141292 2.789662 -0.670425 0
M  V30 47 H -6.274866 0.662947 -0.706530 0
M  V30 48 H -6.183491 -1.756938 -0.843288 0
M  V30 49 H -2.583562 -3.737690 -1.199007 0
M  V30 50 H -1.386771 -1.656446 -1.170031 0
M  V30 51 H 1.436384 1.502801 -2.140267 0
M  V30 52 H 1.702910 2.919005 -1.051335 0
M  V30 53 H 1.331721 -2.139144 -0.862066 0
M  V30 54 H 1.227855 -4.034501 0.607143 0
M  V30 END ATOM
M  V30 BEGIN BOND
M  V30 1 1 1 2
M  V30 2 2 2 3
M  V30 3 1 2 4
M  V30 4 1 4 5
M  V30 5 2 5 6
M  V30 6 1 6 7
M  V30 7 2 7 8
M  V30 8 1 8 9
M  V30 9 1 9 10
M  V30 10 1 10 11
M  V30 11 1 11 12
M  V30 12 1 12 13
M  V30 13 1 13 14
M  V30 14 1 14 15
M  V30 15 1 15 16
M  V30 16 2 16 17
M  V30 17 1 17 18
M  V30 18 2 18 19
M  V30 19 1 19 20
M  V30 20 2 20 21
M  V30 21 1 21 22
M  V30 22 2 22 23
M  V30 23 1 23 24
M  V30 24 2 24 25
M  V30 25 1 14 26
M  V30 26 1 8 27
M  V30 27 2 27 28
M  V30 28 1 28 5
M  V30 29 1 26 10
M  V30 30 1 25 16
M  V30 31 1 25 20
M  V30 32 1 1 29
M  V30 33 1 1 30
M  V30 34 1 1 31
M  V30 35 1 4 32
M  V30 36 1 6 33
M  V30 37 1 7 34
M  V30 38 1 9 35
M  V30 39 1 9 36
M  V30 40 1 11 37
M  V30 41 1 11 38
M  V30 42 1 12 39
M  V30 43 1 12 40
M  V30 44 1 13 41
M  V30 45 1 13 42
M  V30 46 1 14 43
M  V30 47 1 15 44
M  V30 48 1 17 45
M  V30 49 1 18 46
M  V30 50 1 19 47
M  V30 51 1 21 48
M  V30 52 1 23 49
M  V30 53 1 24 50
M  V30 54 1 26 51
M  V30 55 1 26 52
M  V30 56 1 27 53
M  V30 57 1 28 54
M  V30 END BOND
M  V30 END CTAB
M  END
>  <Dataset>  (522) 
ChEMBL_Kinases

>  <Ligand_Instance>  (522) 
nan

>  <PDB_ID>  (522) 
nan

>  <Standardized_SMILES>  (522) 
CC(=O)Nc1ccc(CN2CCCC(Nc3cccc4cnccc34)C2)cc1

>  <Name>  (522) 
nan

>  <Pocket>  (522) 
nan

>  <ATP_Site>  (522) 
nan

>  <Peripheral>  (522) 
nan

>  <Num_H_Atoms_ProtBoundConf>  (522) 
nan

>  <Num_Resolved_Atoms>  (522) 
nan

>  <Num_Not_Resolved_Atoms>  (522) 
nan

$$$$
CHEMBL3689479
     RDKit          3D

  0  0  0  0  0  0  0  0  0  0999 V3000
M  V30 BEGIN CTAB
M  V30 COUNTS 50 53 0 0 0
M  V30 BEGIN ATOM
M  V30 1 F 5.995736 -1.500847 1.561723 0
M  V30 2 C 5.468094 -2.760204 1.342928 0
M  V30 3 F 5.656285 -3.556968 2.463940 0
M  V30 4 F 6.013114 -3.358593 0.239392 0
M  V30 5 C 4.004405 -2.578173 1.110963 0
M  V30 6 C 3.105725 -3.330752 1.821032 0
M  V30 7 C 1.767799 -3.118677 1.563930 0
M  V30 8 C 1.385154 -2.182653 0.627110 0
M  V30 9 C 2.291420 -1.412668 -0.099763 0
M  V30 10 C 1.721821 -0.449866 -1.074852 0
M  V30 11 N 1.447533 0.799052 -0.537849 0
M  V30 12 C 2.430282 1.611545 0.026506 0
M  V30 13 C 2.100238 1.868210 1.458534 0
M  V30 14 C 0.837738 1.225314 1.936772 0
M  V30 15 C -0.337238 1.340438 1.001877 0
M  V30 16 N -1.212362 0.205469 1.241781 0
M  V30 17 C -2.436129 0.146085 0.564994 0
M  V30 18 C -2.855131 1.136205 -0.296624 0
M  V30 19 C -4.045525 1.124858 -0.993103 0
M  V30 20 C -4.906266 0.058641 -0.840224 0
M  V30 21 C -4.556130 -0.971638 0.005976 0
M  V30 22 C -5.408184 -2.042839 0.167068 0
M  V30 23 N -5.077563 -3.048840 0.986459 0
M  V30 24 C -3.900562 -3.037929 1.675073 0
M  V30 25 C -3.071282 -1.951282 1.490945 0
M  V30 26 C -3.348061 -0.882680 0.664559 0
M  V30 27 C 0.100274 1.230420 -0.451700 0
M  V30 28 C 3.617136 -1.647074 0.178758 0
M  V30 29 H 3.501518 -4.036815 2.531606 0
M  V30 30 H 1.039551 -3.705287 2.116348 0
M  V30 31 H 0.322351 -2.057572 0.465659 0
M  V30 32 H 0.811942 -0.912525 -1.504475 0
M  V30 33 H 2.438470 -0.341674 -1.914306 0
M  V30 34 H 2.554352 2.599121 -0.508477 0
M  V30 35 H 3.418641 1.125259 -0.089319 0
M  V30 36 H 2.136600 2.955580 1.656959 0
M  V30 37 H 2.930639 1.420386 2.080436 0
M  V30 38 H 0.558619 1.767510 2.879019 0
M  V30 39 H 0.976622 0.174616 2.262863 0
M  V30 40 H -0.884064 2.267733 1.223626 0
M  V30 41 H -0.896018 -0.524867 1.910671 0
M  V30 42 H -2.273383 2.024089 -0.494614 0
M  V30 43 H -4.362313 1.908813 -1.666761 0
M  V30 44 H -5.843416 0.027674 -1.374862 0
M  V30 45 H -6.353527 -2.071225 -0.373845 0
M  V30 46 H -3.665992 -3.866525 2.327665 0
M  V30 47 H -2.162309 -2.014193 2.066740 0
M  V30 48 H -0.518002 0.509218 -1.016364 0
M  V30 49 H 0.060854 2.256354 -0.868637 0
M  V30 50 H 4.322064 -1.061665 -0.376874 0
M  V30 END ATOM
M  V30 BEGIN BOND
M  V30 1 1 1 2
M  V30 2 1 2 3
M  V30 3 1 2 4
M  V30 4 1 2 5
M  V30 5 2 5 6
M  V30 6 1 6 7
M  V30 7 2 7 8
M  V30 8 1 8 9
M  V30 9 1 9 10
M  V30 10 1 10 11
M  V30 11 1 11 12
M  V30 12 1 12 13
M  V30 13 1 13 14
M  V30 14 1 14 15
M  V30 15 1 15 16
M  V30 16 1 16 17
M  V30 17 2 17 18
M  V30 18 1 18 19
M  V30 19 2 19 20
M  V30 20 1 20 21
M  V30 21 2 21 22
M  V30 22 1 22 23
M  V30 23 2 23 24
M  V30 24 1 24 25
M  V30 25 2 25 26
M  V30 26 1 15 27
M  V30 27 2 9 28
M  V30 28 1 28 5
M  V30 29 1 27 11
M  V30 30 1 26 17
M  V30 31 1 26 21
M  V30 32 1 6 29
M  V30 33 1 7 30
M  V30 34 1 8 31
M  V30 35 1 10 32
M  V30 36 1 10 33
M  V30 37 1 12 34
M  V30 38 1 12 35
M  V30 39 1 13 36
M  V30 40 1 13 37
M  V30 41 1 14 38
M  V30 42 1 14 39
M  V30 43 1 15 40
M  V30 44 1 16 41
M  V30 45 1 18 42
M  V30 46 1 19 43
M  V30 47 1 20 44
M  V30 48 1 22 45
M  V30 49 1 24 46
M  V30 50 1 25 47
M  V30 51 1 27 48
M  V30 52 1 27 49
M  V30 53 1 28 50
M  V30 END BOND
M  V30 END CTAB
M  END
>  <Dataset>  (523) 
ChEMBL_Kinases

>  <Ligand_Instance>  (523) 
nan

>  <PDB_ID>  (523) 
nan

>  <Standardized_SMILES>  (523) 
FC(F)(F)c1cccc(CN2CCCC(Nc3cccc4cnccc34)C2)c1

>  <Name>  (523) 
nan

>  <Pocket>  (523) 
nan

>  <ATP_Site>  (523) 
nan

>  <Peripheral>  (523) 
nan

>  <Num_H_Atoms_ProtBoundConf>  (523) 
nan

>  <Num_Resolved_Atoms>  (523) 
nan

>  <Num_Not_Resolved_Atoms>  (523) 
nan

$$$$
CHEMBL3689470
     RDKit          3D

  0  0  0  0  0  0  0  0  0  0999 V3000
M  V30 BEGIN CTAB
M  V30 COUNTS 44 47 0 0 0
M  V30 BEGIN ATOM
M  V30 1 C -0.893616 -6.330943 2.091914 0
M  V30 2 C -1.696308 -5.216222 1.964224 0
M  V30 3 C -1.096680 -3.978722 1.848217 0
M  V30 4 C 0.271387 -3.769061 1.850410 0
M  V30 5 C 0.858482 -2.417115 1.722473 0
M  V30 6 N 1.074559 -2.111080 0.340434 0
M  V30 7 C -0.124446 -2.123769 -0.471453 0
M  V30 8 C 0.237733 -1.282067 -1.680246 0
M  V30 9 C 1.031019 -0.159541 -1.045088 0
M  V30 10 N 0.171667 0.909027 -0.556775 0
M  V30 11 C 0.792288 2.051891 0.003349 0
M  V30 12 C 2.160635 2.115589 0.047171 0
M  V30 13 C 2.813530 3.220425 0.593851 0
M  V30 14 C 2.105800 4.299806 1.115325 0
M  V30 15 C 0.736078 4.242435 1.074416 0
M  V30 16 C -0.033879 5.279813 1.574730 0
M  V30 17 N -1.394607 5.252643 1.548731 0
M  V30 18 C -2.016793 4.166657 1.011642 0
M  V30 19 C -1.246507 3.138634 0.515927 0
M  V30 20 C 0.131078 3.132177 0.525624 0
M  V30 21 C 1.711851 -0.844053 0.128947 0
M  V30 22 C 1.023498 -4.901030 1.978970 0
M  V30 23 C 0.482682 -6.169055 2.099126 0
M  V30 24 H -1.371254 -7.298614 2.182457 0
M  V30 25 H -2.772663 -5.335022 1.957761 0
M  V30 26 H -1.787453 -3.152009 1.751931 0
M  V30 27 H 1.841978 -2.449387 2.211272 0
M  V30 28 H 0.235205 -1.666038 2.247611 0
M  V30 29 H -1.001337 -1.685987 0.022653 0
M  V30 30 H -0.385432 -3.132799 -0.837541 0
M  V30 31 H 0.838090 -1.843558 -2.415063 0
M  V30 32 H -0.706708 -0.898589 -2.138217 0
M  V30 33 H 1.756240 0.207342 -1.785625 0
M  V30 34 H -0.848227 0.736208 -0.664272 0
M  V30 35 H 2.840266 1.382471 -0.309276 0
M  V30 36 H 3.883203 3.316436 0.650844 0
M  V30 37 H 2.612819 5.152015 1.537021 0
M  V30 38 H 0.445923 6.150067 2.004979 0
M  V30 39 H -3.105243 4.141925 0.989304 0
M  V30 40 H -1.808249 2.320527 0.110474 0
M  V30 41 H 2.772279 -1.004834 -0.157891 0
M  V30 42 H 1.686345 -0.200514 1.043846 0
M  V30 43 H 2.099643 -4.846905 1.992068 0
M  V30 44 H 1.073008 -7.069995 2.201336 0
M  V30 END ATOM
M  V30 BEGIN BOND
M  V30 1 2 1 2
M  V30 2 1 2 3
M  V30 3 2 3 4
M  V30 4 1 4 5
M  V30 5 1 5 6
M  V30 6 1 6 7
M  V30 7 1 7 8
M  V30 8 1 8 9
M  V30 9 1 9 10
M  V30 10 1 10 11
M  V30 11 2 11 12
M  V30 12 1 12 13
M  V30 13 2 13 14
M  V30 14 1 14 15
M  V30 15 2 15 16
M  V30 16 1 16 17
M  V30 17 2 17 18
M  V30 18 1 18 19
M  V30 19 2 19 20
M  V30 20 1 9 21
M  V30 21 1 4 22
M  V30 22 2 22 23
M  V30 23 1 23 1
M  V30 24 1 21 6
M  V30 25 1 20 11
M  V30 26 1 20 15
M  V30 27 1 1 24
M  V30 28 1 2 25
M  V30 29 1 3 26
M  V30 30 1 5 27
M  V30 31 1 5 28
M  V30 32 1 7 29
M  V30 33 1 7 30
M  V30 34 1 8 31
M  V30 35 1 8 32
M  V30 36 1 9 33
M  V30 37 1 10 34
M  V30 38 1 12 35
M  V30 39 1 13 36
M  V30 40 1 14 37
M  V30 41 1 16 38
M  V30 42 1 18 39
M  V30 43 1 19 40
M  V30 44 1 21 41
M  V30 45 1 21 42
M  V30 46 1 22 43
M  V30 47 1 23 44
M  V30 END BOND
M  V30 END CTAB
M  END
>  <Dataset>  (524) 
ChEMBL_Kinases

>  <Ligand_Instance>  (524) 
nan

>  <PDB_ID>  (524) 
nan

>  <Standardized_SMILES>  (524) 
c1ccc(CN2CCC(Nc3cccc4cnccc34)C2)cc1

>  <Name>  (524) 
nan

>  <Pocket>  (524) 
nan

>  <ATP_Site>  (524) 
nan

>  <Peripheral>  (524) 
nan

>  <Num_H_Atoms_ProtBoundConf>  (524) 
nan

>  <Num_Resolved_Atoms>  (524) 
nan

>  <Num_Not_Resolved_Atoms>  (524) 
nan

$$$$
CHEMBL3689471
     RDKit          3D

  0  0  0  0  0  0  0  0  0  0999 V3000
M  V30 BEGIN CTAB
M  V30 COUNTS 45 48 0 0 0
M  V30 BEGIN ATOM
M  V30 1 N 2.740951 -3.529626 4.200794 0
M  V30 2 C 2.597466 -3.634981 3.052009 0
M  V30 3 C 2.408893 -3.781299 1.624770 0
M  V30 4 C 3.163694 -4.653813 0.856177 0
M  V30 5 C 2.945492 -4.756540 -0.500259 0
M  V30 6 C 1.963758 -3.975859 -1.076453 0
M  V30 7 C 1.176547 -3.089160 -0.378693 0
M  V30 8 C 0.162210 -2.313902 -1.083174 0
M  V30 9 N 0.556595 -1.070951 -1.639827 0
M  V30 10 C -0.570356 -0.456545 -2.289142 0
M  V30 11 C -0.775355 0.911728 -1.741895 0
M  V30 12 C 0.482395 1.207099 -0.949434 0
M  V30 13 N 0.296657 1.936212 0.243951 0
M  V30 14 C -0.161445 2.257032 1.531344 0
M  V30 15 C 0.140706 3.448824 2.210709 0
M  V30 16 C -0.313315 3.744393 3.465923 0
M  V30 17 C -1.104189 2.795784 4.056083 0
M  V30 18 C -1.471656 1.596660 3.503451 0
M  V30 19 C -2.269411 0.750755 4.225349 0
M  V30 20 N -2.609996 -0.418779 3.656210 0
M  V30 21 C -2.174865 -0.746665 2.405997 0
M  V30 22 C -1.385873 0.140978 1.747297 0
M  V30 23 C -0.969195 1.365070 2.218547 0
M  V30 24 C 1.187004 -0.132836 -0.785516 0
M  V30 25 C 1.448747 -3.037220 0.975254 0
M  V30 26 H 3.914558 -5.231491 1.381891 0
M  V30 27 H 3.556393 -5.448545 -1.057472 0
M  V30 28 H 1.867291 -4.125920 -2.143174 0
M  V30 29 H -0.741322 -2.238807 -0.435668 0
M  V30 30 H -0.195277 -2.944864 -1.950611 0
M  V30 31 H -1.524612 -1.035140 -2.114173 0
M  V30 32 H -0.450953 -0.468779 -3.397677 0
M  V30 33 H -0.878973 1.603825 -2.624212 0
M  V30 34 H -1.705338 1.056318 -1.154668 0
M  V30 35 H 1.105136 1.823859 -1.684607 0
M  V30 36 H 0.896550 2.767504 -0.014274 0
M  V30 37 H 0.779186 4.205874 1.724081 0
M  V30 38 H -0.020298 4.688776 3.894486 0
M  V30 39 H -1.452105 3.036760 5.033372 0
M  V30 40 H -2.599494 1.041048 5.219078 0
M  V30 41 H -2.474936 -1.698399 1.990435 0
M  V30 42 H -1.076334 -0.167067 0.784704 0
M  V30 43 H 1.263958 -0.416249 0.282244 0
M  V30 44 H 2.234838 -0.013956 -1.130155 0
M  V30 45 H 0.865107 -2.364109 1.587073 0
M  V30 END ATOM
M  V30 BEGIN BOND
M  V30 1 3 1 2
M  V30 2 1 2 3
M  V30 3 2 3 4
M  V30 4 1 4 5
M  V30 5 2 5 6
M  V30 6 1 6 7
M  V30 7 1 7 8
M  V30 8 1 8 9
M  V30 9 1 9 10
M  V30 10 1 10 11
M  V30 11 1 11 12
M  V30 12 1 12 13
M  V30 13 1 13 14
M  V30 14 2 14 15
M  V30 15 1 15 16
M  V30 16 2 16 17
M  V30 17 1 17 18
M  V30 18 2 18 19
M  V30 19 1 19 20
M  V30 20 2 20 21
M  V30 21 1 21 22
M  V30 22 2 22 23
M  V30 23 1 12 24
M  V30 24 2 7 25
M  V30 25 1 25 3
M  V30 26 1 24 9
M  V30 27 1 23 14
M  V30 28 1 23 18
M  V30 29 1 4 26
M  V30 30 1 5 27
M  V30 31 1 6 28
M  V30 32 1 8 29
M  V30 33 1 8 30
M  V30 34 1 10 31
M  V30 35 1 10 32
M  V30 36 1 11 33
M  V30 37 1 11 34
M  V30 38 1 12 35
M  V30 39 1 13 36
M  V30 40 1 15 37
M  V30 41 1 16 38
M  V30 42 1 17 39
M  V30 43 1 19 40
M  V30 44 1 21 41
M  V30 45 1 22 42
M  V30 46 1 24 43
M  V30 47 1 24 44
M  V30 48 1 25 45
M  V30 END BOND
M  V30 END CTAB
M  END
>  <Dataset>  (525) 
ChEMBL_Kinases

>  <Ligand_Instance>  (525) 
nan

>  <PDB_ID>  (525) 
nan

>  <Standardized_SMILES>  (525) 
N#Cc1cccc(CN2CCC(Nc3cccc4cnccc34)C2)c1

>  <Name>  (525) 
nan

>  <Pocket>  (525) 
nan

>  <ATP_Site>  (525) 
nan

>  <Peripheral>  (525) 
nan

>  <Num_H_Atoms_ProtBoundConf>  (525) 
nan

>  <Num_Resolved_Atoms>  (525) 
nan

>  <Num_Not_Resolved_Atoms>  (525) 
nan

$$$$
CHEMBL3689472
     RDKit          3D

  0  0  0  0  0  0  0  0  0  0999 V3000
M  V30 BEGIN CTAB
M  V30 COUNTS 51 54 0 0 0
M  V30 BEGIN ATOM
M  V30 1 C 4.316172 -5.668313 3.043835 0
M  V30 2 C 3.813482 -4.615628 2.120042 0
M  V30 3 O 3.317348 -3.561356 2.570145 0
M  V30 4 N 3.861867 -4.734648 0.703515 0
M  V30 5 C 3.294365 -3.544827 0.113835 0
M  V30 6 C 1.924949 -3.618471 -0.109265 0
M  V30 7 C 1.368024 -2.488294 -0.672000 0
M  V30 8 C 2.049920 -1.318317 -1.021987 0
M  V30 9 C 1.279355 -0.181324 -1.623239 0
M  V30 10 N 0.844636 0.629363 -0.540353 0
M  V30 11 C 1.852848 1.214639 0.273373 0
M  V30 12 C 1.075814 2.202798 1.105815 0
M  V30 13 C -0.332028 2.277312 0.498977 0
M  V30 14 N -1.232829 1.414534 1.219544 0
M  V30 15 C -2.591908 1.423658 0.893425 0
M  V30 16 C -3.086452 2.274516 -0.084907 0
M  V30 17 C -4.418326 2.309034 -0.441657 0
M  V30 18 C -5.348267 1.485265 0.165442 0
M  V30 19 C -4.910984 0.603647 1.161353 0
M  V30 20 C -5.797773 -0.238606 1.796812 0
M  V30 21 N -5.371656 -1.088210 2.756950 0
M  V30 22 C -4.050888 -1.116035 3.103865 0
M  V30 23 C -3.195480 -0.257711 2.444680 0
M  V30 24 C -3.567572 0.632461 1.456900 0
M  V30 25 C -0.025468 1.730126 -0.890871 0
M  V30 26 C 3.404534 -1.320783 -0.770861 0
M  V30 27 C 4.021627 -2.420423 -0.209449 0
M  V30 28 H 5.288304 -5.447310 3.488380 0
M  V30 29 H 4.305266 -6.679502 2.612529 0
M  V30 30 H 3.578689 -5.684329 3.901674 0
M  V30 31 H 4.266946 -5.594383 0.277633 0
M  V30 32 H 1.295380 -4.459980 0.116705 0
M  V30 33 H 0.302291 -2.506676 -0.861019 0
M  V30 34 H 0.383226 -0.625517 -2.100242 0
M  V30 35 H 1.923609 0.334443 -2.362876 0
M  V30 36 H 2.677140 1.697533 -0.313872 0
M  V30 37 H 2.294836 0.466566 0.994767 0
M  V30 38 H 1.590844 3.186980 1.061887 0
M  V30 39 H 0.963750 1.867114 2.165861 0
M  V30 40 H -0.612187 3.323147 0.446114 0
M  V30 41 H -0.807023 0.822663 1.957587 0
M  V30 42 H -2.477025 2.975633 -0.636692 0
M  V30 43 H -4.800358 2.987051 -1.217642 0
M  V30 44 H -6.372047 1.535296 -0.132292 0
M  V30 45 H -6.838129 -0.211871 1.519015 0
M  V30 46 H -3.739531 -1.806071 3.874492 0
M  V30 47 H -2.175236 -0.351421 2.784623 0
M  V30 48 H 0.581019 2.470432 -1.430238 0
M  V30 49 H -0.908405 1.406929 -1.442533 0
M  V30 50 H 3.952991 -0.427086 -1.033412 0
M  V30 51 H 5.078041 -2.430753 -0.009709 0
M  V30 END ATOM
M  V30 BEGIN BOND
M  V30 1 1 1 2
M  V30 2 2 2 3
M  V30 3 1 2 4
M  V30 4 1 4 5
M  V30 5 2 5 6
M  V30 6 1 6 7
M  V30 7 2 7 8
M  V30 8 1 8 9
M  V30 9 1 9 10
M  V30 10 1 10 11
M  V30 11 1 11 12
M  V30 12 1 12 13
M  V30 13 1 13 14
M  V30 14 1 14 15
M  V30 15 2 15 16
M  V30 16 1 16 17
M  V30 17 2 17 18
M  V30 18 1 18 19
M  V30 19 2 19 20
M  V30 20 1 20 21
M  V30 21 2 21 22
M  V30 22 1 22 23
M  V30 23 2 23 24
M  V30 24 1 13 25
M  V30 25 1 8 26
M  V30 26 2 26 27
M  V30 27 1 27 5
M  V30 28 1 25 10
M  V30 29 1 24 15
M  V30 30 1 24 19
M  V30 31 1 1 28
M  V30 32 1 1 29
M  V30 33 1 1 30
M  V30 34 1 4 31
M  V30 35 1 6 32
M  V30 36 1 7 33
M  V30 37 1 9 34
M  V30 38 1 9 35
M  V30 39 1 11 36
M  V30 40 1 11 37
M  V30 41 1 12 38
M  V30 42 1 12 39
M  V30 43 1 13 40
M  V30 44 1 14 41
M  V30 45 1 16 42
M  V30 46 1 17 43
M  V30 47 1 18 44
M  V30 48 1 20 45
M  V30 49 1 22 46
M  V30 50 1 23 47
M  V30 51 1 25 48
M  V30 52 1 25 49
M  V30 53 1 26 50
M  V30 54 1 27 51
M  V30 END BOND
M  V30 END CTAB
M  END
>  <Dataset>  (526) 
ChEMBL_Kinases

>  <Ligand_Instance>  (526) 
nan

>  <PDB_ID>  (526) 
nan

>  <Standardized_SMILES>  (526) 
CC(=O)Nc1ccc(CN2CCC(Nc3cccc4cnccc34)C2)cc1

>  <Name>  (526) 
nan

>  <Pocket>  (526) 
nan

>  <ATP_Site>  (526) 
nan

>  <Peripheral>  (526) 
nan

>  <Num_H_Atoms_ProtBoundConf>  (526) 
nan

>  <Num_Resolved_Atoms>  (526) 
nan

>  <Num_Not_Resolved_Atoms>  (526) 
nan

$$$$
CHEMBL3689473
     RDKit          3D

  0  0  0  0  0  0  0  0  0  0999 V3000
M  V30 BEGIN CTAB
M  V30 COUNTS 51 54 0 0 0
M  V30 BEGIN ATOM
M  V30 1 C -0.963572 -7.120418 3.141539 0
M  V30 2 S -0.986199 -7.332437 1.326421 0
M  V30 3 C -0.258342 -5.911614 0.527142 0
M  V30 4 C -1.078010 -4.856481 0.183962 0
M  V30 5 C -0.532669 -3.737866 -0.440429 0
M  V30 6 C 0.826689 -3.630358 -0.741205 0
M  V30 7 C 1.464500 -2.491658 -1.387681 0
M  V30 8 N 1.988955 -1.478661 -0.532714 0
M  V30 9 C 2.550941 -0.457777 -1.351814 0
M  V30 10 C 3.059137 0.754564 -0.643905 0
M  V30 11 C 2.209382 1.158206 0.526746 0
M  V30 12 C 0.871449 0.453846 0.329060 0
M  V30 13 N -0.184252 0.988625 1.128320 0
M  V30 14 C -0.722768 2.283175 0.930470 0
M  V30 15 C -0.279993 3.098472 -0.085601 0
M  V30 16 C -0.778175 4.367218 -0.297675 0
M  V30 17 C -1.760184 4.883637 0.513789 0
M  V30 18 C -2.229927 4.091147 1.546139 0
M  V30 19 C -3.215692 4.612436 2.358989 0
M  V30 20 N -3.702150 3.857593 3.387476 0
M  V30 21 C -3.214968 2.605908 3.601968 0
M  V30 22 C -2.227749 2.126267 2.761652 0
M  V30 23 C -1.703663 2.830779 1.721017 0
M  V30 24 C 1.142131 -1.007067 0.506344 0
M  V30 25 C 1.563243 -4.736637 -0.358908 0
M  V30 26 C 1.093835 -5.875746 0.261109 0
M  V30 27 H -0.079292 -6.553948 3.486893 0
M  V30 28 H -0.940817 -8.113469 3.655530 0
M  V30 29 H -1.893431 -6.617851 3.457121 0
M  V30 30 H -2.142185 -4.858055 0.380637 0
M  V30 31 H -1.174076 -2.917883 -0.709810 0
M  V30 32 H 0.758337 -2.072017 -2.159289 0
M  V30 33 H 2.340414 -2.897817 -1.970208 0
M  V30 34 H 1.887087 -0.164484 -2.218448 0
M  V30 35 H 3.450285 -0.898322 -1.878372 0
M  V30 36 H 4.118071 0.619025 -0.347716 0
M  V30 37 H 3.011033 1.604063 -1.385446 0
M  V30 38 H 2.143871 2.217969 0.735282 0
M  V30 39 H 2.639130 0.697078 1.470754 0
M  V30 40 H 0.657908 0.581750 -0.779296 0
M  V30 41 H -0.490360 0.313943 1.852362 0
M  V30 42 H 0.470970 2.820286 -0.793760 0
M  V30 43 H -0.442011 5.018441 -1.088379 0
M  V30 44 H -2.170525 5.872345 0.373828 0
M  V30 45 H -3.602201 5.626183 2.176096 0
M  V30 46 H -3.662087 2.090958 4.436165 0
M  V30 47 H -1.895960 1.128591 2.998375 0
M  V30 48 H 0.225007 -1.595628 0.692884 0
M  V30 49 H 1.724073 -1.102992 1.473798 0
M  V30 50 H 2.626683 -4.717825 -0.563366 0
M  V30 51 H 1.755832 -6.682204 0.516814 0
M  V30 END ATOM
M  V30 BEGIN BOND
M  V30 1 1 1 2
M  V30 2 1 2 3
M  V30 3 2 3 4
M  V30 4 1 4 5
M  V30 5 2 5 6
M  V30 6 1 6 7
M  V30 7 1 7 8
M  V30 8 1 8 9
M  V30 9 1 9 10
M  V30 10 1 10 11
M  V30 11 1 11 12
M  V30 12 1 12 13
M  V30 13 1 13 14
M  V30 14 2 14 15
M  V30 15 1 15 16
M  V30 16 2 16 17
M  V30 17 1 17 18
M  V30 18 2 18 19
M  V30 19 1 19 20
M  V30 20 2 20 21
M  V30 21 1 21 22
M  V30 22 2 22 23
M  V30 23 1 12 24
M  V30 24 1 6 25
M  V30 25 2 25 26
M  V30 26 1 26 3
M  V30 27 1 24 8
M  V30 28 1 23 14
M  V30 29 1 23 18
M  V30 30 1 1 27
M  V30 31 1 1 28
M  V30 32 1 1 29
M  V30 33 1 4 30
M  V30 34 1 5 31
M  V30 35 1 7 32
M  V30 36 1 7 33
M  V30 37 1 9 34
M  V30 38 1 9 35
M  V30 39 1 10 36
M  V30 40 1 10 37
M  V30 41 1 11 38
M  V30 42 1 11 39
M  V30 43 1 12 40
M  V30 44 1 13 41
M  V30 45 1 15 42
M  V30 46 1 16 43
M  V30 47 1 17 44
M  V30 48 1 19 45
M  V30 49 1 21 46
M  V30 50 1 22 47
M  V30 51 1 24 48
M  V30 52 1 24 49
M  V30 53 1 25 50
M  V30 54 1 26 51
M  V30 END BOND
M  V30 END CTAB
M  END
>  <Dataset>  (527) 
ChEMBL_Kinases

>  <Ligand_Instance>  (527) 
nan

>  <PDB_ID>  (527) 
nan

>  <Standardized_SMILES>  (527) 
CSc1ccc(CN2CCCC(Nc3cccc4cnccc34)C2)cc1

>  <Name>  (527) 
nan

>  <Pocket>  (527) 
nan

>  <ATP_Site>  (527) 
nan

>  <Peripheral>  (527) 
nan

>  <Num_H_Atoms_ProtBoundConf>  (527) 
nan

>  <Num_Resolved_Atoms>  (527) 
nan

>  <Num_Not_Resolved_Atoms>  (527) 
nan

$$$$
CHEMBL3689474
     RDKit          3D

  0  0  0  0  0  0  0  0  0  0999 V3000
M  V30 BEGIN CTAB
M  V30 COUNTS 54 58 0 0 0
M  V30 BEGIN ATOM
M  V30 1 C 0.186389 -5.760892 0.412188 0
M  V30 2 C 0.578092 -4.570601 -0.162332 0
M  V30 3 C -0.155806 -3.411192 -0.072952 0
M  V30 4 N 0.274260 -2.199338 -0.671247 0
M  V30 5 C 1.527472 -2.145200 -1.390565 0
M  V30 6 C 2.734899 -2.417249 -0.546000 0
M  V30 7 C 3.612475 -1.175068 -0.428187 0
M  V30 8 C 2.760569 0.082966 -0.217738 0
M  V30 9 N 1.890761 0.195960 -1.297779 0
M  V30 10 C 1.327363 1.441302 -1.610192 0
M  V30 11 C 0.537912 1.885583 -0.405796 0
M  V30 12 C 1.182479 2.644169 0.573054 0
M  V30 13 C 0.443835 3.042973 1.670530 0
M  V30 14 C -0.898346 2.718044 1.827947 0
M  V30 15 C -1.690438 3.142519 2.999369 0
M  V30 16 C -3.108530 3.565427 2.667639 0
M  V30 17 C -2.838613 2.335371 3.475432 0
M  V30 18 C -1.538475 1.957862 0.843894 0
M  V30 19 C -0.795736 1.562247 -0.250213 0
M  V30 20 C 1.740792 -0.891829 -2.175519 0
M  V30 21 C -1.324254 -3.535720 0.642867 0
M  V30 22 C -2.154032 -2.449282 0.809144 0
M  V30 23 C -3.339703 -2.478367 1.507242 0
M  V30 24 N -3.721598 -3.649908 2.070497 0
M  V30 25 C -2.955945 -4.763774 1.949507 0
M  V30 26 C -1.761607 -4.701008 1.236567 0
M  V30 27 C -0.993671 -5.841164 1.121969 0
M  V30 28 H 0.769891 -6.667403 0.336805 0
M  V30 29 H 1.507714 -4.628554 -0.690556 0
M  V30 30 H -0.214486 -1.301530 -0.661039 0
M  V30 31 H 1.447047 -2.973650 -2.158319 0
M  V30 32 H 3.374858 -3.180624 -1.030623 0
M  V30 33 H 2.480652 -2.789879 0.475515 0
M  V30 34 H 4.137497 -1.027503 -1.393166 0
M  V30 35 H 4.355555 -1.306329 0.376374 0
M  V30 36 H 2.233359 0.041115 0.758168 0
M  V30 37 H 3.481477 0.911997 -0.145648 0
M  V30 38 H 0.621900 1.378978 -2.455219 0
M  V30 39 H 2.070721 2.217543 -1.885495 0
M  V30 40 H 2.206733 2.930321 0.519767 0
M  V30 41 H 0.847613 3.636122 2.490137 0
M  V30 42 H -1.135182 3.740751 3.747153 0
M  V30 43 H -3.466809 4.490500 3.161294 0
M  V30 44 H -3.483092 3.427366 1.631285 0
M  V30 45 H -3.088039 2.349961 4.556165 0
M  V30 46 H -3.102600 1.357929 3.010480 0
M  V30 47 H -2.563727 1.676020 0.905271 0
M  V30 48 H -1.198032 0.972481 -1.064693 0
M  V30 49 H 2.643770 -1.032341 -2.782158 0
M  V30 50 H 0.895784 -0.741135 -2.863428 0
M  V30 51 H -1.908165 -1.499438 0.389599 0
M  V30 52 H -3.986498 -1.617402 1.632732 0
M  V30 53 H -3.264235 -5.700012 2.401438 0
M  V30 54 H -1.293288 -6.772570 1.567531 0
M  V30 END ATOM
M  V30 BEGIN BOND
M  V30 1 2 1 2
M  V30 2 1 2 3
M  V30 3 1 3 4
M  V30 4 1 4 5
M  V30 5 1 5 6
M  V30 6 1 6 7
M  V30 7 1 7 8
M  V30 8 1 8 9
M  V30 9 1 9 10
M  V30 10 1 10 11
M  V30 11 2 11 12
M  V30 12 1 12 13
M  V30 13 2 13 14
M  V30 14 1 14 15
M  V30 15 1 15 16
M  V30 16 1 16 17
M  V30 17 1 14 18
M  V30 18 2 18 19
M  V30 19 1 9 20
M  V30 20 2 3 21
M  V30 21 1 21 22
M  V30 22 2 22 23
M  V30 23 1 23 24
M  V30 24 2 24 25
M  V30 25 1 25 26
M  V30 26 2 26 27
M  V30 27 1 27 1
M  V30 28 1 20 5
M  V30 29 1 26 21
M  V30 30 1 19 11
M  V30 31 1 17 15
M  V30 32 1 1 28
M  V30 33 1 2 29
M  V30 34 1 4 30
M  V30 35 1 5 31
M  V30 36 1 6 32
M  V30 37 1 6 33
M  V30 38 1 7 34
M  V30 39 1 7 35
M  V30 40 1 8 36
M  V30 41 1 8 37
M  V30 42 1 10 38
M  V30 43 1 10 39
M  V30 44 1 12 40
M  V30 45 1 13 41
M  V30 46 1 15 42
M  V30 47 1 16 43
M  V30 48 1 16 44
M  V30 49 1 17 45
M  V30 50 1 17 46
M  V30 51 1 18 47
M  V30 52 1 19 48
M  V30 53 1 20 49
M  V30 54 1 20 50
M  V30 55 1 22 51
M  V30 56 1 23 52
M  V30 57 1 25 53
M  V30 58 1 27 54
M  V30 END BOND
M  V30 END CTAB
M  END
>  <Dataset>  (528) 
ChEMBL_Kinases

>  <Ligand_Instance>  (528) 
nan

>  <PDB_ID>  (528) 
nan

>  <Standardized_SMILES>  (528) 
c1cc(NC2CCCN(Cc3ccc(C4CC4)cc3)C2)c2ccncc2c1

>  <Name>  (528) 
nan

>  <Pocket>  (528) 
nan

>  <ATP_Site>  (528) 
nan

>  <Peripheral>  (528) 
nan

>  <Num_H_Atoms_ProtBoundConf>  (528) 
nan

>  <Num_Resolved_Atoms>  (528) 
nan

>  <Num_Not_Resolved_Atoms>  (528) 
nan

$$$$
CHEMBL3689475
     RDKit          3D

  0  0  0  0  0  0  0  0  0  0999 V3000
M  V30 BEGIN CTAB
M  V30 COUNTS 54 58 0 0 0
M  V30 BEGIN ATOM
M  V30 1 C 1.270804 -5.689866 -0.285702 0
M  V30 2 C 1.296515 -4.758307 0.725884 0
M  V30 3 C 0.226526 -4.007078 1.108935 0
M  V30 4 C 0.222446 -2.993945 2.195496 0
M  V30 5 N 0.569545 -1.694159 1.670670 0
M  V30 6 C 1.876401 -1.693603 1.076834 0
M  V30 7 C 2.466702 -0.345959 0.877486 0
M  V30 8 C 2.328967 0.585478 2.065768 0
M  V30 9 C 0.848798 0.663817 2.373811 0
M  V30 10 N 0.121763 1.358003 1.334494 0
M  V30 11 C 0.206754 2.744249 1.069949 0
M  V30 12 C 0.958764 3.633504 1.800000 0
M  V30 13 C 1.065479 4.984752 1.550752 0
M  V30 14 C 0.367386 5.511250 0.484531 0
M  V30 15 C -0.401010 4.657036 -0.276264 0
M  V30 16 C -1.084863 5.219295 -1.334131 0
M  V30 17 N -1.866007 4.448623 -2.136096 0
M  V30 18 C -1.972538 3.120668 -1.893757 0
M  V30 19 C -1.271799 2.602045 -0.826312 0
M  V30 20 C -0.469947 3.317357 0.018740 0
M  V30 21 C 0.358229 -0.711156 2.668244 0
M  V30 22 C -0.948773 -4.245615 0.386293 0
M  V30 23 C -1.049588 -5.168906 -0.646191 0
M  V30 24 C -2.324712 -5.371930 -1.370306 0
M  V30 25 C -3.140253 -4.194658 -1.770428 0
M  V30 26 C -3.637760 -5.172421 -0.716722 0
M  V30 27 C 0.094350 -5.898216 -0.976364 0
M  V30 28 H 2.158049 -6.255555 -0.541817 0
M  V30 29 H 2.224007 -4.619433 1.243633 0
M  V30 30 H 0.852687 -3.294720 3.052152 0
M  V30 31 H -0.829440 -2.946675 2.576655 0
M  V30 32 H 2.612076 -2.290535 1.659379 0
M  V30 33 H 1.793687 -2.173239 0.079733 0
M  V30 34 H 1.929047 0.151763 0.035187 0
M  V30 35 H 3.547146 -0.451142 0.662073 0
M  V30 36 H 2.741930 1.542920 1.749367 0
M  V30 37 H 2.855028 0.194053 2.954668 0
M  V30 38 H 0.765844 1.226856 3.352778 0
M  V30 39 H -0.469019 0.706550 0.809241 0
M  V30 40 H 1.525925 3.310715 2.656356 0
M  V30 41 H 1.669229 5.649435 2.150405 0
M  V30 42 H 0.424759 6.566319 0.255900 0
M  V30 43 H -1.021162 6.283515 -1.556765 0
M  V30 44 H -2.598384 2.535264 -2.545522 0
M  V30 45 H -1.410483 1.541490 -0.703424 0
M  V30 46 H -0.760422 -0.617025 2.791531 0
M  V30 47 H 0.709650 -1.001223 3.681859 0
M  V30 48 H -1.852913 -3.703775 0.610044 0
M  V30 49 H -2.272235 -6.148138 -2.185954 0
M  V30 50 H -3.715841 -4.191703 -2.727378 0
M  V30 51 H -2.953688 -3.183236 -1.395507 0
M  V30 52 H -4.498006 -5.815676 -0.991705 0
M  V30 53 H -3.682762 -4.819182 0.337787 0
M  V30 54 H 0.034070 -6.621335 -1.777591 0
M  V30 END ATOM
M  V30 BEGIN BOND
M  V30 1 2 1 2
M  V30 2 1 2 3
M  V30 3 1 3 4
M  V30 4 1 4 5
M  V30 5 1 5 6
M  V30 6 1 6 7
M  V30 7 1 7 8
M  V30 8 1 8 9
M  V30 9 1 9 10
M  V30 10 1 10 11
M  V30 11 2 11 12
M  V30 12 1 12 13
M  V30 13 2 13 14
M  V30 14 1 14 15
M  V30 15 2 15 16
M  V30 16 1 16 17
M  V30 17 2 17 18
M  V30 18 1 18 19
M  V30 19 2 19 20
M  V30 20 1 9 21
M  V30 21 2 3 22
M  V30 22 1 22 23
M  V30 23 1 23 24
M  V30 24 1 24 25
M  V30 25 1 25 26
M  V30 26 2 23 27
M  V30 27 1 27 1
M  V30 28 1 21 5
M  V30 29 1 26 24
M  V30 30 1 20 11
M  V30 31 1 20 15
M  V30 32 1 1 28
M  V30 33 1 2 29
M  V30 34 1 4 30
M  V30 35 1 4 31
M  V30 36 1 6 32
M  V30 37 1 6 33
M  V30 38 1 7 34
M  V30 39 1 7 35
M  V30 40 1 8 36
M  V30 41 1 8 37
M  V30 42 1 9 38
M  V30 43 1 10 39
M  V30 44 1 12 40
M  V30 45 1 13 41
M  V30 46 1 14 42
M  V30 47 1 16 43
M  V30 48 1 18 44
M  V30 49 1 19 45
M  V30 50 1 21 46
M  V30 51 1 21 47
M  V30 52 1 22 48
M  V30 53 1 24 49
M  V30 54 1 25 50
M  V30 55 1 25 51
M  V30 56 1 26 52
M  V30 57 1 26 53
M  V30 58 1 27 54
M  V30 END BOND
M  V30 END CTAB
M  END
>  <Dataset>  (529) 
ChEMBL_Kinases

>  <Ligand_Instance>  (529) 
nan

>  <PDB_ID>  (529) 
nan

>  <Standardized_SMILES>  (529) 
c1cc(CN2CCCC(Nc3cccc4cnccc34)C2)cc(C2CC2)c1

>  <Name>  (529) 
nan

>  <Pocket>  (529) 
nan

>  <ATP_Site>  (529) 
nan

>  <Peripheral>  (529) 
nan

>  <Num_H_Atoms_ProtBoundConf>  (529) 
nan

>  <Num_Resolved_Atoms>  (529) 
nan

>  <Num_Not_Resolved_Atoms>  (529) 
nan

$$$$
CHEMBL3689477
     RDKit          3D

  0  0  0  0  0  0  0  0  0  0999 V3000
M  V30 BEGIN CTAB
M  V30 COUNTS 50 53 0 0 0
M  V30 BEGIN ATOM
M  V30 1 C -0.600672 -6.335709 -1.537849 0
M  V30 2 C -1.285447 -6.158274 -0.346859 0
M  V30 3 C -1.152174 -4.914457 0.224613 0
M  V30 4 C -0.405756 -3.856577 -0.287322 0
M  V30 5 C -0.404366 -2.579223 0.513131 0
M  V30 6 N -1.454406 -1.709976 0.129150 0
M  V30 7 C -1.479726 -1.261355 -1.216527 0
M  V30 8 C -2.210821 0.029405 -1.426263 0
M  V30 9 C -1.363622 1.260691 -1.209572 0
M  V30 10 C -0.524847 0.916586 0.044894 0
M  V30 11 N 0.307326 1.953441 0.506229 0
M  V30 12 C 1.312420 2.481688 1.339367 0
M  V30 13 C 1.692722 3.829500 1.281959 0
M  V30 14 C 2.672520 4.336391 2.090803 0
M  V30 15 C 3.267520 3.472518 2.959782 0
M  V30 16 C 2.975804 2.134169 3.101334 0
M  V30 17 C 3.647572 1.347912 4.012351 0
M  V30 18 N 3.325041 0.044663 4.101423 0
M  V30 19 C 2.365281 -0.482575 3.316593 0
M  V30 20 C 1.723876 0.345379 2.422809 0
M  V30 21 C 1.967082 1.694532 2.241907 0
M  V30 22 C -1.580960 0.575139 1.083576 0
M  V30 23 C -2.001153 -0.845521 1.096414 0
M  V30 24 C 0.261276 -4.071874 -1.474130 0
M  V30 25 C 0.152714 -5.312005 -2.082245 0
M  V30 26 H -0.679684 -7.301006 -2.019848 0
M  V30 27 H -1.885708 -6.922820 0.118993 0
M  V30 28 H -1.693483 -4.771542 1.167748 0
M  V30 29 H -0.535000 -2.843908 1.582728 0
M  V30 30 H 0.627965 -2.182682 0.376162 0
M  V30 31 H -2.069865 -2.035586 -1.792498 0
M  V30 32 H -0.504052 -1.238277 -1.742422 0
M  V30 33 H -3.082732 0.128310 -0.766006 0
M  V30 34 H -2.574498 0.048314 -2.482284 0
M  V30 35 H -2.013927 2.123203 -1.009809 0
M  V30 36 H -0.668427 1.453923 -2.045728 0
M  V30 37 H 0.064820 0.052808 -0.277139 0
M  V30 38 H -0.033283 2.710674 -0.123592 0
M  V30 39 H 1.208788 4.521004 0.578796 0
M  V30 40 H 2.915244 5.376724 1.996248 0
M  V30 41 H 4.034081 3.907872 3.580510 0
M  V30 42 H 4.408621 1.857487 4.605808 0
M  V30 43 H 2.136582 -1.523498 3.415948 0
M  V30 44 H 0.980496 -0.143802 1.827832 0
M  V30 45 H -2.446603 1.240162 0.912588 0
M  V30 46 H -1.159703 0.914102 2.073612 0
M  V30 47 H -3.116305 -0.939810 1.061371 0
M  V30 48 H -1.735148 -1.270377 2.107012 0
M  V30 49 H 0.831938 -3.235883 -1.848431 0
M  V30 50 H 0.684202 -5.461299 -3.013904 0
M  V30 END ATOM
M  V30 BEGIN BOND
M  V30 1 2 1 2
M  V30 2 1 2 3
M  V30 3 2 3 4
M  V30 4 1 4 5
M  V30 5 1 5 6
M  V30 6 1 6 7
M  V30 7 1 7 8
M  V30 8 1 8 9
M  V30 9 1 9 10
M  V30 10 1 10 11
M  V30 11 1 11 12
M  V30 12 2 12 13
M  V30 13 1 13 14
M  V30 14 2 14 15
M  V30 15 1 15 16
M  V30 16 2 16 17
M  V30 17 1 17 18
M  V30 18 2 18 19
M  V30 19 1 19 20
M  V30 20 2 20 21
M  V30 21 1 10 22
M  V30 22 1 22 23
M  V30 23 1 4 24
M  V30 24 2 24 25
M  V30 25 1 25 1
M  V30 26 1 23 6
M  V30 27 1 21 12
M  V30 28 1 21 16
M  V30 29 1 1 26
M  V30 30 1 2 27
M  V30 31 1 3 28
M  V30 32 1 5 29
M  V30 33 1 5 30
M  V30 34 1 7 31
M  V30 35 1 7 32
M  V30 36 1 8 33
M  V30 37 1 8 34
M  V30 38 1 9 35
M  V30 39 1 9 36
M  V30 40 1 10 37
M  V30 41 1 11 38
M  V30 42 1 13 39
M  V30 43 1 14 40
M  V30 44 1 15 41
M  V30 45 1 17 42
M  V30 46 1 19 43
M  V30 47 1 20 44
M  V30 48 1 22 45
M  V30 49 1 22 46
M  V30 50 1 23 47
M  V30 51 1 23 48
M  V30 52 1 24 49
M  V30 53 1 25 50
M  V30 END BOND
M  V30 END CTAB
M  END
>  <Dataset>  (530) 
ChEMBL_Kinases

>  <Ligand_Instance>  (530) 
nan

>  <PDB_ID>  (530) 
nan

>  <Standardized_SMILES>  (530) 
c1ccc(CN2CCCC(Nc3cccc4cnccc34)CC2)cc1

>  <Name>  (530) 
nan

>  <Pocket>  (530) 
nan

>  <ATP_Site>  (530) 
nan

>  <Peripheral>  (530) 
nan

>  <Num_H_Atoms_ProtBoundConf>  (530) 
nan

>  <Num_Resolved_Atoms>  (530) 
nan

>  <Num_Not_Resolved_Atoms>  (530) 
nan

$$$$
CHEMBL3689478
     RDKit          3D

  0  0  0  0  0  0  0  0  0  0999 V3000
M  V30 BEGIN CTAB
M  V30 COUNTS 47 50 0 0 0
M  V30 BEGIN ATOM
M  V30 1 Cl -1.516060 -7.197305 0.716285 0
M  V30 2 C -1.028511 -5.720508 -0.081622 0
M  V30 3 C -0.024075 -4.937378 0.440767 0
M  V30 4 C 0.357482 -3.784715 -0.180969 0
M  V30 5 C -0.214549 -3.323107 -1.348676 0
M  V30 6 C 0.105187 -2.102797 -2.106195 0
M  V30 7 N -0.634059 -0.944839 -1.775813 0
M  V30 8 C -0.262253 0.160530 -2.586565 0
M  V30 9 C 0.180158 1.354319 -1.771254 0
M  V30 10 C 0.921205 0.927934 -0.521536 0
M  V30 11 C 0.157389 -0.032130 0.317992 0
M  V30 12 N -0.300007 0.604159 1.560920 0
M  V30 13 C 0.633228 1.079645 2.515243 0
M  V30 14 C 1.990573 0.955708 2.341206 0
M  V30 15 C 2.912260 1.416275 3.255514 0
M  V30 16 C 2.506324 2.038230 4.416634 0
M  V30 17 C 1.153504 2.178352 4.621934 0
M  V30 18 C 0.691125 2.795137 5.770716 0
M  V30 19 N -0.631953 2.967218 6.037727 0
M  V30 20 C -1.533320 2.506227 5.123262 0
M  V30 21 C -1.056393 1.893381 3.982660 0
M  V30 22 C 0.266955 1.704561 3.683882 0
M  V30 23 C -0.944204 -0.699017 -0.421346 0
M  V30 24 C -1.229355 -4.160551 -1.832168 0
M  V30 25 C -1.657668 -5.341851 -1.242364 0
M  V30 26 Cl -2.940869 -6.266849 -1.981933 0
M  V30 27 H 0.491484 -5.213774 1.359618 0
M  V30 28 H 1.147196 -3.164029 0.220139 0
M  V30 29 H 1.209250 -1.971169 -2.075227 0
M  V30 30 H -0.115143 -2.324178 -3.192197 0
M  V30 31 H -1.166636 0.499913 -3.161861 0
M  V30 32 H 0.499703 -0.087654 -3.357251 0
M  V30 33 H 0.906290 1.920073 -2.390828 0
M  V30 34 H -0.628247 2.033476 -1.493350 0
M  V30 35 H 1.095526 1.861368 0.050030 0
M  V30 36 H 1.925996 0.559476 -0.842093 0
M  V30 37 H 0.899193 -0.829729 0.627436 0
M  V30 38 H -1.333501 0.654968 1.639488 0
M  V30 39 H 2.422071 0.487687 1.482357 0
M  V30 40 H 3.974310 1.315785 3.112150 0
M  V30 41 H 3.235640 2.394761 5.125102 0
M  V30 42 H 1.374250 3.180459 6.532121 0
M  V30 43 H -2.582491 2.647012 5.343203 0
M  V30 44 H -1.845146 1.567620 3.329721 0
M  V30 45 H -1.250743 -1.663909 0.035730 0
M  V30 46 H -1.840901 -0.015755 -0.409080 0
M  V30 47 H -1.730129 -3.867304 -2.747913 0
M  V30 END ATOM
M  V30 BEGIN BOND
M  V30 1 1 1 2
M  V30 2 2 2 3
M  V30 3 1 3 4
M  V30 4 2 4 5
M  V30 5 1 5 6
M  V30 6 1 6 7
M  V30 7 1 7 8
M  V30 8 1 8 9
M  V30 9 1 9 10
M  V30 10 1 10 11
M  V30 11 1 11 12
M  V30 12 1 12 13
M  V30 13 2 13 14
M  V30 14 1 14 15
M  V30 15 2 15 16
M  V30 16 1 16 17
M  V30 17 2 17 18
M  V30 18 1 18 19
M  V30 19 2 19 20
M  V30 20 1 20 21
M  V30 21 2 21 22
M  V30 22 1 11 23
M  V30 23 1 5 24
M  V30 24 2 24 25
M  V30 25 1 25 26
M  V30 26 1 25 2
M  V30 27 1 23 7
M  V30 28 1 22 13
M  V30 29 1 22 17
M  V30 30 1 3 27
M  V30 31 1 4 28
M  V30 32 1 6 29
M  V30 33 1 6 30
M  V30 34 1 8 31
M  V30 35 1 8 32
M  V30 36 1 9 33
M  V30 37 1 9 34
M  V30 38 1 10 35
M  V30 39 1 10 36
M  V30 40 1 11 37
M  V30 41 1 12 38
M  V30 42 1 14 39
M  V30 43 1 15 40
M  V30 44 1 16 41
M  V30 45 1 18 42
M  V30 46 1 20 43
M  V30 47 1 21 44
M  V30 48 1 23 45
M  V30 49 1 23 46
M  V30 50 1 24 47
M  V30 END BOND
M  V30 END CTAB
M  END
>  <Dataset>  (531) 
ChEMBL_Kinases

>  <Ligand_Instance>  (531) 
nan

>  <PDB_ID>  (531) 
nan

>  <Standardized_SMILES>  (531) 
Clc1ccc(CN2CCCC(Nc3cccc4cnccc34)C2)cc1Cl

>  <Name>  (531) 
nan

>  <Pocket>  (531) 
nan

>  <ATP_Site>  (531) 
nan

>  <Peripheral>  (531) 
nan

>  <Num_H_Atoms_ProtBoundConf>  (531) 
nan

>  <Num_Resolved_Atoms>  (531) 
nan

>  <Num_Not_Resolved_Atoms>  (531) 
nan

$$$$
CHEMBL3689469
     RDKit          3D

  0  0  0  0  0  0  0  0  0  0999 V3000
M  V30 BEGIN CTAB
M  V30 COUNTS 50 53 0 0 0
M  V30 BEGIN ATOM
M  V30 1 C 2.490581 -4.657183 1.289676 0
M  V30 2 S 2.646744 -4.477701 -0.452617 0
M  V30 3 O 1.801126 -5.540749 -1.106031 0
M  V30 4 O 4.101178 -4.735585 -0.788744 0
M  V30 5 C 2.246993 -2.903028 -1.037757 0
M  V30 6 C 0.928018 -2.696953 -1.386767 0
M  V30 7 C 0.505404 -1.474764 -1.864941 0
M  V30 8 C 1.348385 -0.395787 -2.025374 0
M  V30 9 C 0.991914 0.945100 -2.531165 0
M  V30 10 N 0.565277 1.880995 -1.544496 0
M  V30 11 C 1.480467 2.171921 -0.494121 0
M  V30 12 C 0.642615 2.589117 0.704816 0
M  V30 13 C -0.796295 2.416740 0.312532 0
M  V30 14 N -1.620282 1.784596 1.304968 0
M  V30 15 C -1.435978 0.494907 1.864767 0
M  V30 16 C -0.412275 -0.367687 1.542361 0
M  V30 17 C -0.218344 -1.623583 2.073529 0
M  V30 18 C -1.114762 -2.083046 3.014486 0
M  V30 19 C -2.157382 -1.256036 3.370841 0
M  V30 20 C -3.024683 -1.762716 4.314639 0
M  V30 21 N -4.091307 -1.020004 4.734869 0
M  V30 22 C -4.275337 0.211157 4.209372 0
M  V30 23 C -3.382737 0.681571 3.265723 0
M  V30 24 C -2.304370 -0.006837 2.807030 0
M  V30 25 C -0.745091 1.680312 -1.007745 0
M  V30 26 C 2.677259 -0.641399 -1.661977 0
M  V30 27 C 3.129273 -1.852504 -1.180962 0
M  V30 28 H 3.125660 -3.940719 1.853969 0
M  V30 29 H 2.773353 -5.685166 1.549605 0
M  V30 30 H 1.403864 -4.521498 1.560388 0
M  V30 31 H 0.177636 -3.474179 -1.301894 0
M  V30 32 H -0.525361 -1.323113 -2.137723 0
M  V30 33 H 0.225689 0.883476 -3.341793 0
M  V30 34 H 1.904291 1.353257 -3.049764 0
M  V30 35 H 2.236702 2.930956 -0.762940 0
M  V30 36 H 2.078098 1.258807 -0.204464 0
M  V30 37 H 0.958667 2.053699 1.605064 0
M  V30 38 H 0.876609 3.663349 0.890633 0
M  V30 39 H -1.246398 3.420893 0.077403 0
M  V30 40 H -2.413094 2.343815 1.622948 0
M  V30 41 H 0.336024 -0.100503 0.822051 0
M  V30 42 H 0.600115 -2.271225 1.792927 0
M  V30 43 H -0.994012 -3.063650 3.452908 0
M  V30 44 H -2.895029 -2.745540 4.747450 0
M  V30 45 H -5.130754 0.722090 4.592306 0
M  V30 46 H -3.629202 1.654449 2.928023 0
M  V30 47 H -1.075834 0.644487 -0.911314 0
M  V30 48 H -1.485565 2.149542 -1.715906 0
M  V30 49 H 3.488574 0.100229 -1.727258 0
M  V30 50 H 4.135097 -2.055747 -0.900267 0
M  V30 END ATOM
M  V30 BEGIN BOND
M  V30 1 1 1 2
M  V30 2 2 2 3
M  V30 3 2 2 4
M  V30 4 1 2 5
M  V30 5 2 5 6
M  V30 6 1 6 7
M  V30 7 2 7 8
M  V30 8 1 8 9
M  V30 9 1 9 10
M  V30 10 1 10 11
M  V30 11 1 11 12
M  V30 12 1 12 13
M  V30 13 1 13 14
M  V30 14 1 14 15
M  V30 15 2 15 16
M  V30 16 1 16 17
M  V30 17 2 17 18
M  V30 18 1 18 19
M  V30 19 2 19 20
M  V30 20 1 20 21
M  V30 21 2 21 22
M  V30 22 1 22 23
M  V30 23 2 23 24
M  V30 24 1 13 25
M  V30 25 1 8 26
M  V30 26 2 26 27
M  V30 27 1 27 5
M  V30 28 1 25 10
M  V30 29 1 24 15
M  V30 30 1 24 19
M  V30 31 1 1 28
M  V30 32 1 1 29
M  V30 33 1 1 30
M  V30 34 1 6 31
M  V30 35 1 7 32
M  V30 36 1 9 33
M  V30 37 1 9 34
M  V30 38 1 11 35
M  V30 39 1 11 36
M  V30 40 1 12 37
M  V30 41 1 12 38
M  V30 42 1 13 39
M  V30 43 1 14 40
M  V30 44 1 16 41
M  V30 45 1 17 42
M  V30 46 1 18 43
M  V30 47 1 20 44
M  V30 48 1 22 45
M  V30 49 1 23 46
M  V30 50 1 25 47
M  V30 51 1 25 48
M  V30 52 1 26 49
M  V30 53 1 27 50
M  V30 END BOND
M  V30 END CTAB
M  END
>  <Dataset>  (532) 
ChEMBL_Kinases

>  <Ligand_Instance>  (532) 
nan

>  <PDB_ID>  (532) 
nan

>  <Standardized_SMILES>  (532) 
CS(=O)(=O)c1ccc(CN2CCC(Nc3cccc4cnccc34)C2)cc1

>  <Name>  (532) 
nan

>  <Pocket>  (532) 
nan

>  <ATP_Site>  (532) 
nan

>  <Peripheral>  (532) 
nan

>  <Num_H_Atoms_ProtBoundConf>  (532) 
nan

>  <Num_Resolved_Atoms>  (532) 
nan

>  <Num_Not_Resolved_Atoms>  (532) 
nan

$$$$
CHEMBL3691570
     RDKit          3D

  0  0  0  0  0  0  0  0  0  0999 V3000
M  V30 BEGIN CTAB
M  V30 COUNTS 73 78 0 0 0
M  V30 BEGIN ATOM
M  V30 1 C 7.091457 -2.588851 3.045050 0
M  V30 2 C 6.683143 -1.781810 1.907492 0
M  V30 3 O 7.445409 -1.712213 0.888442 0
M  V30 4 N 5.405573 -1.096443 2.026592 0
M  V30 5 C 4.251756 -0.894135 2.940669 0
M  V30 6 C 3.133803 -1.323191 2.019167 0
M  V30 7 C 3.620128 -0.776644 0.651673 0
M  V30 8 C 4.980517 -0.263337 0.951373 0
M  V30 9 C 4.973052 1.175604 1.354412 0
M  V30 10 N 3.960141 1.455289 2.321825 0
M  V30 11 C 3.090457 2.641430 2.029059 0
M  V30 12 O 3.360947 3.474820 1.204584 0
M  V30 13 C 2.139829 2.208582 2.997078 0
M  V30 14 C 1.261732 1.811900 3.995112 0
M  V30 15 C 0.099339 1.066283 3.883716 0
M  V30 16 C -0.344720 0.606622 2.682596 0
M  V30 17 N -1.411408 -0.258243 2.578051 0
M  V30 18 C -1.744465 -0.789483 1.252737 0
M  V30 19 N -1.268685 -2.061362 1.306783 0
M  V30 20 C -1.547553 -2.957847 0.302480 0
M  V30 21 C -2.321639 -2.385284 -0.680751 0
M  V30 22 C -2.877191 -3.242013 -1.667283 0
M  V30 23 C -3.728719 -2.339527 -2.336348 0
M  V30 24 C -4.980870 -2.428967 -3.179795 0
M  V30 25 O -5.804099 -2.180708 -4.073598 0
M  V30 26 N -5.592236 -3.537131 -2.421132 0
M  V30 27 C -5.328453 -4.577704 -1.447688 0
M  V30 28 C -7.092568 -3.458225 -2.333196 0
M  V30 29 N -3.685588 -1.061305 -1.836711 0
M  V30 30 C -4.222728 0.178942 -2.319277 0
M  V30 31 C -3.517822 1.413818 -1.913532 0
M  V30 32 C -2.296697 1.525143 -2.806098 0
M  V30 33 C -2.773740 1.021090 -4.120299 0
M  V30 34 C -4.019739 0.231503 -3.840388 0
M  V30 35 C -2.820939 -1.106475 -0.792427 0
M  V30 36 N -2.501707 -0.257677 0.242631 0
M  V30 37 N 0.315353 0.877457 1.589772 0
M  V30 38 C 1.508899 1.647613 1.721498 0
M  V30 39 C 4.137686 0.523985 3.371504 0
M  V30 40 H 6.900717 -2.096305 3.999345 0
M  V30 41 H 6.536725 -3.568854 3.011643 0
M  V30 42 H 8.175706 -2.839880 3.019106 0
M  V30 43 H 4.308511 -1.605808 3.816440 0
M  V30 44 H 3.086469 -2.447465 2.015212 0
M  V30 45 H 2.169768 -0.934495 2.292335 0
M  V30 46 H 3.621958 -1.673169 -0.033833 0
M  V30 47 H 3.024413 -0.003963 0.229111 0
M  V30 48 H 5.643133 -0.352091 0.059323 0
M  V30 49 H 5.948141 1.604795 1.541085 0
M  V30 50 H 4.568529 1.706560 0.380320 0
M  V30 51 H 1.843676 2.300946 4.755466 0
M  V30 52 H -0.403590 0.900448 4.835810 0
M  V30 53 H -2.056431 -0.591168 3.268830 0
M  V30 54 H -1.181332 -3.963291 0.303087 0
M  V30 55 H -2.810519 -4.218942 -2.025553 0
M  V30 56 H -4.675748 -5.394203 -1.855874 0
M  V30 57 H -4.857254 -4.092312 -0.572120 0
M  V30 58 H -6.249353 -5.049198 -1.064420 0
M  V30 59 H -7.440578 -2.769952 -3.102873 0
M  V30 60 H -7.585490 -4.403512 -2.204397 0
M  V30 61 H -7.134313 -2.815912 -1.349783 0
M  V30 62 H -5.272486 0.258694 -2.038565 0
M  V30 63 H -4.182278 2.264236 -2.290501 0
M  V30 64 H -3.334851 1.613127 -0.884375 0
M  V30 65 H -2.064409 2.597370 -2.894126 0
M  V30 66 H -1.391423 1.012479 -2.429973 0
M  V30 67 H -1.991362 0.373908 -4.615040 0
M  V30 68 H -2.933951 1.826774 -4.845979 0
M  V30 69 H -3.841997 -0.758587 -4.266740 0
M  V30 70 H -4.913637 0.742519 -4.249468 0
M  V30 71 H 1.716972 1.661357 0.602484 0
M  V30 72 H 3.338976 0.612963 4.187519 0
M  V30 73 H 5.100388 0.815800 3.873857 0
M  V30 END ATOM
M  V30 BEGIN BOND
M  V30 1 1 1 2
M  V30 2 2 2 3
M  V30 3 1 2 4
M  V30 4 1 4 5
M  V30 5 1 5 6
M  V30 6 1 6 7
M  V30 7 1 7 8
M  V30 8 1 8 9
M  V30 9 1 9 10
M  V30 10 1 10 11
M  V30 11 2 11 12
M  V30 12 1 11 13
M  V30 13 2 13 14
M  V30 14 1 14 15
M  V30 15 2 15 16
M  V30 16 1 16 17
M  V30 17 1 17 18
M  V30 18 2 18 19
M  V30 19 1 19 20
M  V30 20 2 20 21
M  V30 21 1 21 22
M  V30 22 2 22 23
M  V30 23 1 23 24
M  V30 24 2 24 25
M  V30 25 1 24 26
M  V30 26 1 26 27
M  V30 27 1 26 28
M  V30 28 1 23 29
M  V30 29 1 29 30
M  V30 30 1 30 31
M  V30 31 1 31 32
M  V30 32 1 32 33
M  V30 33 1 33 34
M  V30 34 1 29 35
M  V30 35 2 35 36
M  V30 36 1 16 37
M  V30 37 2 37 38
M  V30 38 1 10 39
M  V30 39 1 8 4
M  V30 40 1 38 13
M  V30 41 1 39 5
M  V30 42 1 36 18
M  V30 43 1 35 21
M  V30 44 1 34 30
M  V30 45 1 1 40
M  V30 46 1 1 41
M  V30 47 1 1 42
M  V30 48 1 5 43
M  V30 49 1 6 44
M  V30 50 1 6 45
M  V30 51 1 7 46
M  V30 52 1 7 47
M  V30 53 1 8 48
M  V30 54 1 9 49
M  V30 55 1 9 50
M  V30 56 1 14 51
M  V30 57 1 15 52
M  V30 58 1 17 53
M  V30 59 1 20 54
M  V30 60 1 22 55
M  V30 61 1 27 56
M  V30 62 1 27 57
M  V30 63 1 27 58
M  V30 64 1 28 59
M  V30 65 1 28 60
M  V30 66 1 28 61
M  V30 67 1 30 62
M  V30 68 1 31 63
M  V30 69 1 31 64
M  V30 70 1 32 65
M  V30 71 1 32 66
M  V30 72 1 33 67
M  V30 73 1 33 68
M  V30 74 1 34 69
M  V30 75 1 34 70
M  V30 76 1 38 71
M  V30 77 1 39 72
M  V30 78 1 39 73
M  V30 END BOND
M  V30 END CTAB
M  END
>  <Dataset>  (533) 
ChEMBL_Kinases

>  <Ligand_Instance>  (533) 
nan

>  <PDB_ID>  (533) 
nan

>  <Standardized_SMILES>  (533) 
CC(=O)N1C2CCC1CN(C(=O)c1ccc(Nc3ncc4cc(C(=O)N(C)C)n(C5CCCC5)c4n3)nc1)C2

>  <Name>  (533) 
nan

>  <Pocket>  (533) 
nan

>  <ATP_Site>  (533) 
nan

>  <Peripheral>  (533) 
nan

>  <Num_H_Atoms_ProtBoundConf>  (533) 
nan

>  <Num_Resolved_Atoms>  (533) 
nan

>  <Num_Not_Resolved_Atoms>  (533) 
nan

$$$$
CHEMBL3691569
     RDKit          3D

  0  0  0  0  0  0  0  0  0  0999 V3000
M  V30 BEGIN CTAB
M  V30 COUNTS 67 72 0 0 0
M  V30 BEGIN ATOM
M  V30 1 C 5.585251 -3.278988 1.207613 0
M  V30 2 N 4.502281 -2.491334 0.590791 0
M  V30 3 C 3.498101 -3.468398 0.173706 0
M  V30 4 C 4.676731 -1.084631 0.543510 0
M  V30 5 O 5.780982 -0.748373 1.069239 0
M  V30 6 C 3.685045 -0.208432 -0.040891 0
M  V30 7 C 3.558248 -0.072938 -1.403890 0
M  V30 8 C 2.528339 0.796142 -1.627928 0
M  V30 9 C 1.891750 1.330482 -2.722460 0
M  V30 10 N 0.835601 2.185228 -2.557995 0
M  V30 11 C 0.430971 2.495216 -1.317519 0
M  V30 12 N -0.727699 3.267932 -0.885404 0
M  V30 13 C -1.705628 2.346545 -0.334265 0
M  V30 14 C -2.947295 2.584535 0.143695 0
M  V30 15 C -3.861324 1.729864 0.679320 0
M  V30 16 C -3.481837 0.416164 0.753434 0
M  V30 17 C -3.986096 -0.891510 1.198484 0
M  V30 18 O -4.260463 -0.833122 2.439563 0
M  V30 19 N -4.101480 -2.001387 0.266269 0
M  V30 20 C -3.857037 -2.224929 -1.145403 0
M  V30 21 C -3.968204 -3.703914 -1.289981 0
M  V30 22 C -5.440892 -4.052682 -1.206493 0
M  V30 23 C -5.823493 -3.653891 0.220238 0
M  V30 24 C -4.530094 -3.250553 0.822197 0
M  V30 25 C -3.543875 -4.184901 0.090200 0
M  V30 26 O -3.853332 -5.509378 0.317189 0
M  V30 27 C -2.207070 0.088449 0.277313 0
M  V30 28 N -1.361884 1.009913 -0.241665 0
M  V30 29 N 1.051491 1.981768 -0.204663 0
M  V30 30 C 2.089712 1.138573 -0.386409 0
M  V30 31 N 2.776067 0.541178 0.616131 0
M  V30 32 C 2.643152 0.594523 2.048863 0
M  V30 33 C 1.402404 1.222385 2.544738 0
M  V30 34 C 1.708449 2.634346 2.900162 0
M  V30 35 C 3.125395 2.547368 3.401141 0
M  V30 36 C 3.754172 1.368627 2.717394 0
M  V30 37 H 6.361696 -2.667576 1.654710 0
M  V30 38 H 5.231871 -3.998318 1.942664 0
M  V30 39 H 6.093066 -3.861385 0.386804 0
M  V30 40 H 3.044165 -4.009574 1.018126 0
M  V30 41 H 3.948545 -4.274367 -0.470443 0
M  V30 42 H 2.673521 -3.016905 -0.411610 0
M  V30 43 H 4.092719 -0.508718 -2.230949 0
M  V30 44 H 2.212049 1.091805 -3.720580 0
M  V30 45 H -0.872896 4.275672 -0.939872 0
M  V30 46 H -3.274698 3.623702 0.101222 0
M  V30 47 H -4.838083 1.849159 1.076136 0
M  V30 48 H -4.633714 -1.723812 -1.768549 0
M  V30 49 H -2.874611 -1.831618 -1.484859 0
M  V30 50 H -3.419158 -4.146209 -2.107169 0
M  V30 51 H -5.621751 -5.105499 -1.417696 0
M  V30 52 H -5.976171 -3.333766 -1.881977 0
M  V30 53 H -6.227070 -4.542952 0.762933 0
M  V30 54 H -6.545195 -2.794814 0.222810 0
M  V30 55 H -4.430932 -3.361740 1.908690 0
M  V30 56 H -2.503256 -3.928360 0.345337 0
M  V30 57 H -3.014500 -6.048642 0.371198 0
M  V30 58 H -1.621979 -0.851074 0.222735 0
M  V30 59 H 2.654111 -0.482711 2.397639 0
M  V30 60 H 0.506036 1.065627 1.909424 0
M  V30 61 H 1.123097 0.710395 3.519146 0
M  V30 62 H 1.637045 3.373279 2.090652 0
M  V30 63 H 0.989723 2.991329 3.695072 0
M  V30 64 H 3.598221 3.522795 3.167935 0
M  V30 65 H 3.103448 2.467691 4.508108 0
M  V30 66 H 4.164547 0.722513 3.548186 0
M  V30 67 H 4.564477 1.673979 2.032725 0
M  V30 END ATOM
M  V30 BEGIN BOND
M  V30 1 1 1 2
M  V30 2 1 2 3
M  V30 3 1 2 4
M  V30 4 2 4 5
M  V30 5 1 4 6
M  V30 6 2 6 7
M  V30 7 1 7 8
M  V30 8 2 8 9
M  V30 9 1 9 10
M  V30 10 2 10 11
M  V30 11 1 11 12
M  V30 12 1 12 13
M  V30 13 2 13 14
M  V30 14 1 14 15
M  V30 15 2 15 16
M  V30 16 1 16 17
M  V30 17 2 17 18
M  V30 18 1 17 19
M  V30 19 1 19 20
M  V30 20 1 20 21
M  V30 21 1 21 22
M  V30 22 1 22 23
M  V30 23 1 23 24
M  V30 24 1 24 25
M  V30 25 1 25 26
M  V30 26 1 16 27
M  V30 27 2 27 28
M  V30 28 1 11 29
M  V30 29 2 29 30
M  V30 30 1 30 31
M  V30 31 1 31 32
M  V30 32 1 32 33
M  V30 33 1 33 34
M  V30 34 1 34 35
M  V30 35 1 35 36
M  V30 36 1 31 6
M  V30 37 1 36 32
M  V30 38 1 30 8
M  V30 39 1 28 13
M  V30 40 1 24 19
M  V30 41 1 25 21
M  V30 42 1 1 37
M  V30 43 1 1 38
M  V30 44 1 1 39
M  V30 45 1 3 40
M  V30 46 1 3 41
M  V30 47 1 3 42
M  V30 48 1 7 43
M  V30 49 1 9 44
M  V30 50 1 12 45
M  V30 51 1 14 46
M  V30 52 1 15 47
M  V30 53 1 20 48
M  V30 54 1 20 49
M  V30 55 1 21 50
M  V30 56 1 22 51
M  V30 57 1 22 52
M  V30 58 1 23 53
M  V30 59 1 23 54
M  V30 60 1 24 55
M  V30 61 1 25 56
M  V30 62 1 26 57
M  V30 63 1 27 58
M  V30 64 1 32 59
M  V30 65 1 33 60
M  V30 66 1 33 61
M  V30 67 1 34 62
M  V30 68 1 34 63
M  V30 69 1 35 64
M  V30 70 1 35 65
M  V30 71 1 36 66
M  V30 72 1 36 67
M  V30 END BOND
M  V30 END CTAB
M  END
>  <Dataset>  (534) 
ChEMBL_Kinases

>  <Ligand_Instance>  (534) 
nan

>  <PDB_ID>  (534) 
nan

>  <Standardized_SMILES>  (534) 
CN(C)C(=O)c1cc2cnc(Nc3ccc(C(=O)N4CC5CCC4C5O)cn3)nc2n1C1CCCC1

>  <Name>  (534) 
nan

>  <Pocket>  (534) 
nan

>  <ATP_Site>  (534) 
nan

>  <Peripheral>  (534) 
nan

>  <Num_H_Atoms_ProtBoundConf>  (534) 
nan

>  <Num_Resolved_Atoms>  (534) 
nan

>  <Num_Not_Resolved_Atoms>  (534) 
nan

$$$$
CHEMBL3691568
     RDKit          3D

  0  0  0  0  0  0  0  0  0  0999 V3000
M  V30 BEGIN CTAB
M  V30 COUNTS 74 79 0 0 0
M  V30 BEGIN ATOM
M  V30 1 C 3.764373 -1.033740 2.263240 0
M  V30 2 N 4.901815 -1.055220 1.342975 0
M  V30 3 C 5.771281 -2.200455 1.626418 0
M  V30 4 C 5.306954 -0.195479 0.255011 0
M  V30 5 O 6.337248 -0.372128 -0.436112 0
M  V30 6 C 4.321836 0.896499 0.108082 0
M  V30 7 C 4.661775 2.168244 0.583790 0
M  V30 8 C 3.568936 3.005779 0.351417 0
M  V30 9 C 3.231796 4.323743 0.580503 0
M  V30 10 N 2.003955 4.819971 0.228835 0
M  V30 11 C 1.095120 4.014439 -0.356195 0
M  V30 12 N -0.276758 4.211977 -0.771760 0
M  V30 13 C -1.181222 3.226708 -0.214990 0
M  V30 14 C -2.528926 3.153836 -0.393794 0
M  V30 15 C -3.330427 2.187589 0.141434 0
M  V30 16 C -2.804281 1.194826 0.921976 0
M  V30 17 C -3.094746 -0.012838 1.681065 0
M  V30 18 O -3.080434 0.101880 2.959595 0
M  V30 19 N -3.355468 -1.200232 0.885942 0
M  V30 20 C -3.415210 -1.233579 -0.552138 0
M  V30 21 C -4.489517 -2.115932 -1.061766 0
M  V30 22 C -5.138599 -3.057976 -0.122029 0
M  V30 23 C -4.159406 -4.112894 0.345223 0 CFG=2
M  V30 24 C -4.786104 -4.993763 1.438167 0
M  V30 25 C -3.551023 -5.543867 2.128195 0
M  V30 26 N -2.515451 -4.568437 1.924625 0
M  V30 27 C -3.006897 -3.534746 1.101301 0 CFG=2
M  V30 28 C -3.451059 -2.276604 1.830719 0
M  V30 29 C -1.400814 1.247881 1.125877 0
M  V30 30 N -0.667008 2.247011 0.553611 0
M  V30 31 N 1.488220 2.762134 -0.550683 0
M  V30 32 C 2.648958 2.177534 -0.248865 0
M  V30 33 N 3.091340 0.885853 -0.408754 0
M  V30 34 C 2.417260 -0.239889 -1.000068 0
M  V30 35 C 3.041499 -0.688184 -2.324407 0
M  V30 36 C 1.915311 -0.837386 -3.300673 0
M  V30 37 C 0.709163 -1.031680 -2.418479 0
M  V30 38 C 0.973548 -0.027322 -1.284487 0
M  V30 39 H 3.181528 -0.108709 2.212151 0
M  V30 40 H 3.119047 -1.911451 1.992013 0
M  V30 41 H 4.109280 -1.243857 3.306497 0
M  V30 42 H 6.825156 -1.926466 1.359485 0
M  V30 43 H 5.397545 -3.067268 1.034185 0
M  V30 44 H 5.792263 -2.486158 2.686686 0
M  V30 45 H 5.565302 2.512953 1.055074 0
M  V30 46 H 3.945219 4.961093 1.037920 0
M  V30 47 H -0.637598 4.955756 -1.398161 0
M  V30 48 H -2.979487 3.891728 -0.985888 0
M  V30 49 H -4.364282 2.004483 0.098084 0
M  V30 50 H -2.424531 -1.656356 -0.909452 0
M  V30 51 H -3.458386 -0.197262 -0.981968 0
M  V30 52 H -4.138160 -2.696198 -1.977147 0
M  V30 53 H -5.331393 -1.451050 -1.462138 0
M  V30 54 H -5.944215 -3.633828 -0.665243 0
M  V30 55 H -5.573464 -2.544307 0.744946 0
M  V30 56 H -3.759166 -4.703848 -0.475757 0
M  V30 57 H -5.334979 -4.313669 2.108125 0
M  V30 58 H -5.458571 -5.751363 1.045585 0
M  V30 59 H -3.254770 -6.522233 1.651754 0
M  V30 60 H -3.701930 -5.691780 3.224681 0
M  V30 61 H -1.702749 -5.041928 1.470205 0
M  V30 62 H -2.174228 -3.218861 0.417539 0
M  V30 63 H -2.685281 -2.152993 2.665026 0
M  V30 64 H -4.411324 -2.398674 2.329947 0
M  V30 65 H -0.660139 0.648557 1.677300 0
M  V30 66 H 2.517924 -1.130780 -0.333169 0
M  V30 67 H 3.717852 0.139470 -2.641392 0
M  V30 68 H 3.667807 -1.594750 -2.202358 0
M  V30 69 H 2.144341 -1.700962 -3.953323 0
M  V30 70 H 1.748884 0.118881 -3.870026 0
M  V30 71 H -0.247515 -0.766008 -2.929048 0
M  V30 72 H 0.730037 -2.040030 -1.999027 0
M  V30 73 H 0.676899 0.975917 -1.613651 0
M  V30 74 H 0.322260 -0.366805 -0.460794 0
M  V30 END ATOM
M  V30 BEGIN BOND
M  V30 1 1 1 2
M  V30 2 1 2 3
M  V30 3 1 2 4
M  V30 4 2 4 5
M  V30 5 1 4 6
M  V30 6 2 6 7
M  V30 7 1 7 8
M  V30 8 2 8 9
M  V30 9 1 9 10
M  V30 10 2 10 11
M  V30 11 1 11 12
M  V30 12 1 12 13
M  V30 13 2 13 14
M  V30 14 1 14 15
M  V30 15 2 15 16
M  V30 16 1 16 17
M  V30 17 2 17 18
M  V30 18 1 17 19
M  V30 19 1 19 20
M  V30 20 1 20 21
M  V30 21 1 21 22
M  V30 22 1 22 23
M  V30 23 1 23 24
M  V30 24 1 24 25
M  V30 25 1 25 26
M  V30 26 1 26 27
M  V30 27 1 27 28
M  V30 28 1 16 29
M  V30 29 2 29 30
M  V30 30 1 11 31
M  V30 31 2 31 32
M  V30 32 1 32 33
M  V30 33 1 33 34
M  V30 34 1 34 35
M  V30 35 1 35 36
M  V30 36 1 36 37
M  V30 37 1 37 38
M  V30 38 1 33 6
M  V30 39 1 38 34
M  V30 40 1 32 8
M  V30 41 1 30 13
M  V30 42 1 28 19
M  V30 43 1 27 23
M  V30 44 1 1 39
M  V30 45 1 1 40
M  V30 46 1 1 41
M  V30 47 1 3 42
M  V30 48 1 3 43
M  V30 49 1 3 44
M  V30 50 1 7 45
M  V30 51 1 9 46
M  V30 52 1 12 47
M  V30 53 1 14 48
M  V30 54 1 15 49
M  V30 55 1 20 50
M  V30 56 1 20 51
M  V30 57 1 21 52
M  V30 58 1 21 53
M  V30 59 1 22 54
M  V30 60 1 22 55
M  V30 61 1 23 56 CFG=3
M  V30 62 1 24 57
M  V30 63 1 24 58
M  V30 64 1 25 59
M  V30 65 1 25 60
M  V30 66 1 26 61
M  V30 67 1 27 62 CFG=3
M  V30 68 1 28 63
M  V30 69 1 28 64
M  V30 70 1 29 65
M  V30 71 1 34 66
M  V30 72 1 35 67
M  V30 73 1 35 68
M  V30 74 1 36 69
M  V30 75 1 36 70
M  V30 76 1 37 71
M  V30 77 1 37 72
M  V30 78 1 38 73
M  V30 79 1 38 74
M  V30 END BOND
M  V30 END CTAB
M  END
>  <Dataset>  (535) 
ChEMBL_Kinases

>  <Ligand_Instance>  (535) 
nan

>  <PDB_ID>  (535) 
nan

>  <Standardized_SMILES>  (535) 
CN(C)C(=O)c1cc2cnc(Nc3ccc(C(=O)N4CCC[C@@H]5CCN[C@@H]5C4)cn3)nc2n1C1CCCC1

>  <Name>  (535) 
nan

>  <Pocket>  (535) 
nan

>  <ATP_Site>  (535) 
nan

>  <Peripheral>  (535) 
nan

>  <Num_H_Atoms_ProtBoundConf>  (535) 
nan

>  <Num_Resolved_Atoms>  (535) 
nan

>  <Num_Not_Resolved_Atoms>  (535) 
nan

$$$$
CHEMBL3691567
     RDKit          3D

  0  0  0  0  0  0  0  0  0  0999 V3000
M  V30 BEGIN CTAB
M  V30 COUNTS 62 67 0 0 0
M  V30 BEGIN ATOM
M  V30 1 C 6.359254 -4.677280 0.460812 0
M  V30 2 N 5.703882 -3.399728 0.583455 0
M  V30 3 C 4.505267 -3.089873 -0.096831 0
M  V30 4 O 4.040704 -3.995522 -0.814099 0
M  V30 5 C 3.867255 -1.764020 0.054650 0
M  V30 6 C 4.409108 -0.764477 0.875532 0
M  V30 7 C 3.595742 0.354813 0.803645 0
M  V30 8 C 3.705719 1.583858 1.425684 0
M  V30 9 N 2.759652 2.515296 1.178965 0
M  V30 10 C 1.742164 2.202498 0.329973 0
M  V30 11 N 0.638290 3.019842 -0.047712 0
M  V30 12 C -0.554088 2.685193 0.685048 0
M  V30 13 C -0.576167 1.664920 1.629114 0
M  V30 14 C -1.755641 1.352801 2.318471 0
M  V30 15 C -2.914988 2.091238 2.036473 0
M  V30 16 C -4.005271 1.557775 2.873789 0
M  V30 17 O -4.384513 2.098554 3.931543 0
M  V30 18 N -4.482849 0.360043 2.226768 0
M  V30 19 C -4.137018 -0.368632 0.990089 0
M  V30 20 C -5.066996 -1.536948 1.032668 0 CFG=2
M  V30 21 C -6.307063 -0.869144 1.642152 0
M  V30 22 C -5.558697 -0.398598 2.875214 0 CFG=1
M  V30 23 C -5.042607 -1.740931 3.345233 0
M  V30 24 N -4.634894 -2.382372 2.117537 0
M  V30 25 C -2.845784 3.091726 1.095512 0
M  V30 26 N -1.703272 3.359553 0.459926 0
M  V30 27 N 1.681303 0.989845 -0.251144 0
M  V30 28 C 2.581414 -0.000922 -0.062113 0
M  V30 29 N 2.741023 -1.262172 -0.508249 0
M  V30 30 C 1.878518 -1.957407 -1.412559 0
M  V30 31 C 2.092808 -1.509324 -2.863534 0
M  V30 32 C 0.929691 -2.206663 -3.531612 0
M  V30 33 C -0.217599 -1.892888 -2.615348 0
M  V30 34 C 0.411562 -1.663030 -1.253263 0
M  V30 35 H 7.402415 -4.593450 0.840859 0
M  V30 36 H 6.450214 -5.013406 -0.599826 0
M  V30 37 H 5.882349 -5.488676 1.058338 0
M  V30 38 H 6.124750 -2.658299 1.201870 0
M  V30 39 H 5.307278 -0.811504 1.482455 0
M  V30 40 H 4.511737 1.822147 2.092053 0
M  V30 41 H 0.582989 3.782391 -0.742230 0
M  V30 42 H 0.342361 1.095217 1.839321 0
M  V30 43 H -1.636041 0.529038 3.032408 0
M  V30 44 H -3.079630 -0.666591 0.967174 0
M  V30 45 H -4.381818 0.281585 0.098047 0
M  V30 46 H -5.266841 -2.019658 0.094382 0
M  V30 47 H -7.072768 -1.624022 1.876617 0
M  V30 48 H -6.657576 -0.027463 1.011811 0
M  V30 49 H -6.142853 0.145112 3.590063 0
M  V30 50 H -4.268934 -1.701232 4.110081 0
M  V30 51 H -5.925939 -2.307583 3.724175 0
M  V30 52 H -4.916648 -3.371534 2.023951 0
M  V30 53 H -3.812269 3.559583 0.996264 0
M  V30 54 H 2.025707 -3.056791 -1.369164 0
M  V30 55 H 1.958989 -0.423394 -2.892679 0
M  V30 56 H 3.066681 -1.864826 -3.235233 0
M  V30 57 H 0.711250 -1.800611 -4.527798 0
M  V30 58 H 1.101156 -3.307685 -3.521496 0
M  V30 59 H -0.748760 -0.976235 -2.963088 0
M  V30 60 H -0.948317 -2.735753 -2.556234 0
M  V30 61 H -0.022357 -2.377913 -0.531945 0
M  V30 62 H 0.155788 -0.658711 -0.932257 0
M  V30 END ATOM
M  V30 BEGIN BOND
M  V30 1 1 1 2
M  V30 2 1 2 3
M  V30 3 2 3 4
M  V30 4 1 3 5
M  V30 5 2 5 6
M  V30 6 1 6 7
M  V30 7 2 7 8
M  V30 8 1 8 9
M  V30 9 2 9 10
M  V30 10 1 10 11
M  V30 11 1 11 12
M  V30 12 2 12 13
M  V30 13 1 13 14
M  V30 14 2 14 15
M  V30 15 1 15 16
M  V30 16 2 16 17
M  V30 17 1 16 18
M  V30 18 1 18 19
M  V30 19 1 19 20
M  V30 20 1 20 21
M  V30 21 1 21 22
M  V30 22 1 22 23
M  V30 23 1 23 24
M  V30 24 1 15 25
M  V30 25 2 25 26
M  V30 26 1 10 27
M  V30 27 2 27 28
M  V30 28 1 28 29
M  V30 29 1 29 30
M  V30 30 1 30 31
M  V30 31 1 31 32
M  V30 32 1 32 33
M  V30 33 1 33 34
M  V30 34 1 29 5
M  V30 35 1 34 30
M  V30 36 1 28 7
M  V30 37 1 26 12
M  V30 38 1 22 18
M  V30 39 1 24 20
M  V30 40 1 1 35
M  V30 41 1 1 36
M  V30 42 1 1 37
M  V30 43 1 2 38
M  V30 44 1 6 39
M  V30 45 1 8 40
M  V30 46 1 11 41
M  V30 47 1 13 42
M  V30 48 1 14 43
M  V30 49 1 19 44
M  V30 50 1 19 45
M  V30 51 1 20 46 CFG=3
M  V30 52 1 21 47
M  V30 53 1 21 48
M  V30 54 1 22 49 CFG=1
M  V30 55 1 23 50
M  V30 56 1 23 51
M  V30 57 1 24 52
M  V30 58 1 25 53
M  V30 59 1 30 54
M  V30 60 1 31 55
M  V30 61 1 31 56
M  V30 62 1 32 57
M  V30 63 1 32 58
M  V30 64 1 33 59
M  V30 65 1 33 60
M  V30 66 1 34 61
M  V30 67 1 34 62
M  V30 END BOND
M  V30 END CTAB
M  END
>  <Dataset>  (536) 
ChEMBL_Kinases

>  <Ligand_Instance>  (536) 
nan

>  <PDB_ID>  (536) 
nan

>  <Standardized_SMILES>  (536) 
CNC(=O)c1cc2cnc(Nc3ccc(C(=O)N4C[C@@H]5C[C@H]4CN5)cn3)nc2n1C1CCCC1

>  <Name>  (536) 
nan

>  <Pocket>  (536) 
nan

>  <ATP_Site>  (536) 
nan

>  <Peripheral>  (536) 
nan

>  <Num_H_Atoms_ProtBoundConf>  (536) 
nan

>  <Num_Resolved_Atoms>  (536) 
nan

>  <Num_Not_Resolved_Atoms>  (536) 
nan

$$$$
CHEMBL3691566
     RDKit          3D

  0  0  0  0  0  0  0  0  0  0999 V3000
M  V30 BEGIN CTAB
M  V30 COUNTS 65 70 0 0 0
M  V30 BEGIN ATOM
M  V30 1 C 4.563816 3.317860 6.886242 0
M  V30 2 N 4.727240 2.770756 5.532591 0
M  V30 3 C 3.531583 2.168024 4.992618 0
M  V30 4 O 2.795541 2.379825 5.982159 0
M  V30 5 C 3.668536 1.620887 3.657556 0
M  V30 6 C 4.791421 1.640754 2.858062 0
M  V30 7 C 4.376689 0.985734 1.725976 0
M  V30 8 C 5.187083 0.760523 0.624227 0
M  V30 9 N 4.626095 0.104325 -0.395650 0
M  V30 10 C 3.351727 -0.315930 -0.362159 0
M  V30 11 N 2.836468 -1.003551 -1.491566 0
M  V30 12 C 1.550576 -1.571214 -1.707192 0
M  V30 13 C 0.550319 -1.544293 -0.761328 0
M  V30 14 C -0.718154 -2.086882 -0.959616 0
M  V30 15 C -0.892882 -2.662953 -2.200047 0
M  V30 16 C -2.143988 -3.266246 -2.569877 0
M  V30 17 O -2.384600 -4.192958 -1.721108 0
M  V30 18 N -3.228659 -3.274677 -3.476332 0
M  V30 19 C -4.246277 -4.247438 -3.245906 0
M  V30 20 C -5.657058 -3.713397 -3.288539 0
M  V30 21 C -5.835172 -2.603339 -2.276886 0
M  V30 22 C -4.963022 -1.528692 -2.888979 0
M  V30 23 C -4.936058 -1.868951 -4.351577 0
M  V30 24 C -3.572405 -2.472443 -4.660078 0
M  V30 25 N -5.897037 -2.969594 -4.522805 0
M  V30 26 C 0.085419 -2.708438 -3.170340 0
M  V30 27 N 1.274981 -2.156232 -2.880346 0
M  V30 28 N 2.670421 -0.050030 0.731278 0
M  V30 29 C 3.067110 0.589774 1.836639 0
M  V30 30 N 2.630786 0.999893 3.067514 0
M  V30 31 C 1.279137 0.645053 3.296403 0
M  V30 32 C 0.632981 1.059173 4.555812 0
M  V30 33 C -0.819678 0.572088 4.279542 0
M  V30 34 C -1.007284 0.857210 2.806005 0
M  V30 35 C 0.335266 1.312821 2.271154 0
M  V30 36 H 5.503088 3.784824 7.224625 0
M  V30 37 H 3.812509 4.123582 6.867234 0
M  V30 38 H 4.248480 2.553677 7.607601 0
M  V30 39 H 5.690183 2.865097 5.081268 0
M  V30 40 H 5.748445 2.084395 3.115374 0
M  V30 41 H 6.198476 1.071980 0.550760 0
M  V30 42 H 3.506904 -1.118214 -2.306315 0
M  V30 43 H 0.683605 -1.102342 0.205760 0
M  V30 44 H -1.493046 -2.057351 -0.205760 0
M  V30 45 H -4.153729 -5.012526 -4.060866 0
M  V30 46 H -4.114617 -4.790276 -2.290802 0
M  V30 47 H -6.358095 -4.539706 -3.155601 0
M  V30 48 H -5.486606 -2.898687 -1.268172 0
M  V30 49 H -6.873263 -2.238501 -2.289180 0
M  V30 50 H -3.968048 -1.625131 -2.384350 0
M  V30 51 H -5.367162 -0.510598 -2.697424 0
M  V30 52 H -5.181878 -1.005321 -5.005789 0
M  V30 53 H -3.648556 -3.180487 -5.502969 0
M  V30 54 H -2.792046 -1.703955 -4.823670 0
M  V30 55 H -6.849663 -2.525213 -4.385662 0
M  V30 56 H -0.064923 -3.166895 -4.142839 0
M  V30 57 H 1.101753 -0.470299 3.192103 0
M  V30 58 H 0.907180 0.544484 5.471811 0
M  V30 59 H 0.518428 2.160186 4.636570 0
M  V30 60 H -0.862977 -0.520887 4.451330 0
M  V30 61 H -1.534968 1.075353 4.935808 0
M  V30 62 H -1.297784 -0.048448 2.248416 0
M  V30 63 H -1.771019 1.671986 2.655441 0
M  V30 64 H 0.547599 1.021950 1.248111 0
M  V30 65 H 0.439749 2.402075 2.458529 0
M  V30 END ATOM
M  V30 BEGIN BOND
M  V30 1 1 1 2
M  V30 2 1 2 3
M  V30 3 2 3 4
M  V30 4 1 3 5
M  V30 5 2 5 6
M  V30 6 1 6 7
M  V30 7 2 7 8
M  V30 8 1 8 9
M  V30 9 2 9 10
M  V30 10 1 10 11
M  V30 11 1 11 12
M  V30 12 2 12 13
M  V30 13 1 13 14
M  V30 14 2 14 15
M  V30 15 1 15 16
M  V30 16 2 16 17
M  V30 17 1 16 18
M  V30 18 1 18 19
M  V30 19 1 19 20
M  V30 20 1 20 21
M  V30 21 1 21 22
M  V30 22 1 22 23
M  V30 23 1 23 24
M  V30 24 1 23 25
M  V30 25 1 15 26
M  V30 26 2 26 27
M  V30 27 1 10 28
M  V30 28 2 28 29
M  V30 29 1 29 30
M  V30 30 1 30 31
M  V30 31 1 31 32
M  V30 32 1 32 33
M  V30 33 1 33 34
M  V30 34 1 34 35
M  V30 35 1 30 5
M  V30 36 1 35 31
M  V30 37 1 29 7
M  V30 38 1 27 12
M  V30 39 1 24 18
M  V30 40 1 25 20
M  V30 41 1 1 36
M  V30 42 1 1 37
M  V30 43 1 1 38
M  V30 44 1 2 39
M  V30 45 1 6 40
M  V30 46 1 8 41
M  V30 47 1 11 42
M  V30 48 1 13 43
M  V30 49 1 14 44
M  V30 50 1 19 45
M  V30 51 1 19 46
M  V30 52 1 20 47
M  V30 53 1 21 48
M  V30 54 1 21 49
M  V30 55 1 22 50
M  V30 56 1 22 51
M  V30 57 1 23 52
M  V30 58 1 24 53
M  V30 59 1 24 54
M  V30 60 1 25 55
M  V30 61 1 26 56
M  V30 62 1 31 57
M  V30 63 1 32 58
M  V30 64 1 32 59
M  V30 65 1 33 60
M  V30 66 1 33 61
M  V30 67 1 34 62
M  V30 68 1 34 63
M  V30 69 1 35 64
M  V30 70 1 35 65
M  V30 END BOND
M  V30 END CTAB
M  END
>  <Dataset>  (537) 
ChEMBL_Kinases

>  <Ligand_Instance>  (537) 
nan

>  <PDB_ID>  (537) 
nan

>  <Standardized_SMILES>  (537) 
CNC(=O)c1cc2cnc(Nc3ccc(C(=O)N4CC5CCC(C4)N5)cn3)nc2n1C1CCCC1

>  <Name>  (537) 
nan

>  <Pocket>  (537) 
nan

>  <ATP_Site>  (537) 
nan

>  <Peripheral>  (537) 
nan

>  <Num_H_Atoms_ProtBoundConf>  (537) 
nan

>  <Num_Resolved_Atoms>  (537) 
nan

>  <Num_Not_Resolved_Atoms>  (537) 
nan

$$$$
CHEMBL3691565
     RDKit          3D

  0  0  0  0  0  0  0  0  0  0999 V3000
M  V30 BEGIN CTAB
M  V30 COUNTS 68 73 0 0 0
M  V30 BEGIN ATOM
M  V30 1 C 3.128171 -1.651326 2.299689 0
M  V30 2 N 4.265152 -1.654575 1.354691 0
M  V30 3 C 4.896043 -2.969196 1.523885 0
M  V30 4 C 4.636894 -0.557926 0.464010 0
M  V30 5 O 5.643607 -0.716016 -0.285054 0
M  V30 6 C 3.682395 0.544250 0.675296 0
M  V30 7 C 4.095108 1.681997 1.333626 0
M  V30 8 C 3.012300 2.492314 1.460474 0
M  V30 9 C 2.696927 3.721123 2.028512 0
M  V30 10 N 1.405228 4.183528 1.978339 0
M  V30 11 C 0.456331 3.481954 1.402806 0
M  V30 12 N -0.969532 3.720577 1.247433 0
M  V30 13 C -1.789282 2.517233 1.401375 0
M  V30 14 C -3.139287 2.391831 1.276458 0
M  V30 15 C -3.751768 1.185632 1.468191 0
M  V30 16 C -3.065341 0.053668 1.789942 0
M  V30 17 C -3.263591 -1.353445 2.063926 0
M  V30 18 O -3.139741 -1.764033 3.253688 0
M  V30 19 N -3.588868 -2.144341 0.898275 0
M  V30 20 C -3.819609 -1.999378 -0.540222 0
M  V30 21 C -5.161426 -2.719195 -0.641414 0
M  V30 22 C -4.864510 -3.952299 0.190071 0
M  V30 23 C -3.707522 -3.600369 1.095865 0
M  V30 24 C -2.461446 -4.238670 0.510061 0
M  V30 25 N -2.387174 -3.996447 -0.885703 0
M  V30 26 C -2.864399 -2.764163 -1.389992 0
M  V30 27 C -1.663225 0.170708 1.923362 0
M  V30 28 N -1.146730 1.388624 1.719277 0
M  V30 29 N 0.778961 2.309237 0.860604 0
M  V30 30 C 2.006451 1.787299 0.862878 0
M  V30 31 N 2.363974 0.567544 0.352087 0
M  V30 32 C 1.516234 -0.339463 -0.337156 0
M  V30 33 C 0.467808 0.302394 -1.231475 0
M  V30 34 C 1.179203 0.778302 -2.476455 0
M  V30 35 C 2.483135 -0.005669 -2.432142 0
M  V30 36 C 2.251974 -1.120043 -1.421036 0
M  V30 37 H 2.355574 -2.365098 1.932576 0
M  V30 38 H 2.649184 -0.648353 2.356595 0
M  V30 39 H 3.450932 -1.881903 3.324039 0
M  V30 40 H 4.123757 -3.775060 1.416657 0
M  V30 41 H 5.256624 -3.010164 2.565575 0
M  V30 42 H 5.727570 -3.128771 0.796693 0
M  V30 43 H 5.080997 1.938977 1.706503 0
M  V30 44 H 3.464707 4.293365 2.502249 0
M  V30 45 H -1.482480 4.600977 1.045479 0
M  V30 46 H -3.646617 3.281847 1.027678 0
M  V30 47 H -4.796449 0.952591 1.397922 0
M  V30 48 H -3.879150 -0.958248 -0.868998 0
M  V30 49 H -5.453224 -2.948246 -1.679088 0
M  V30 50 H -5.960483 -2.176410 -0.141814 0
M  V30 51 H -5.756459 -4.267776 0.781356 0
M  V30 52 H -4.591169 -4.816531 -0.452774 0
M  V30 53 H -3.867866 -3.896166 2.124220 0
M  V30 54 H -1.536104 -3.935966 1.066960 0
M  V30 55 H -2.569360 -5.330669 0.682722 0
M  V30 56 H -2.603881 -4.819487 -1.480494 0
M  V30 57 H -3.438172 -3.013059 -2.338153 0
M  V30 58 H -2.004710 -2.166855 -1.767575 0
M  V30 59 H -0.849573 -0.535644 2.170127 0
M  V30 60 H 0.954647 -1.027250 0.350276 0
M  V30 61 H -0.199588 -0.527176 -1.557241 0
M  V30 62 H -0.148228 1.064089 -0.811531 0
M  V30 63 H 0.628208 0.516082 -3.418694 0
M  V30 64 H 1.346668 1.863778 -2.471008 0
M  V30 65 H 2.706325 -0.452082 -3.409070 0
M  V30 66 H 3.271920 0.676470 -2.074709 0
M  V30 67 H 3.191712 -1.543980 -1.159618 0
M  V30 68 H 1.575018 -1.875805 -1.876267 0
M  V30 END ATOM
M  V30 BEGIN BOND
M  V30 1 1 1 2
M  V30 2 1 2 3
M  V30 3 1 2 4
M  V30 4 2 4 5
M  V30 5 1 4 6
M  V30 6 2 6 7
M  V30 7 1 7 8
M  V30 8 2 8 9
M  V30 9 1 9 10
M  V30 10 2 10 11
M  V30 11 1 11 12
M  V30 12 1 12 13
M  V30 13 2 13 14
M  V30 14 1 14 15
M  V30 15 2 15 16
M  V30 16 1 16 17
M  V30 17 2 17 18
M  V30 18 1 17 19
M  V30 19 1 19 20
M  V30 20 1 20 21
M  V30 21 1 21 22
M  V30 22 1 22 23
M  V30 23 1 23 24
M  V30 24 1 24 25
M  V30 25 1 25 26
M  V30 26 1 16 27
M  V30 27 2 27 28
M  V30 28 1 11 29
M  V30 29 2 29 30
M  V30 30 1 30 31
M  V30 31 1 31 32
M  V30 32 1 32 33
M  V30 33 1 33 34
M  V30 34 1 34 35
M  V30 35 1 35 36
M  V30 36 1 31 6
M  V30 37 1 36 32
M  V30 38 1 30 8
M  V30 39 1 28 13
M  V30 40 1 23 19
M  V30 41 1 26 20
M  V30 42 1 1 37
M  V30 43 1 1 38
M  V30 44 1 1 39
M  V30 45 1 3 40
M  V30 46 1 3 41
M  V30 47 1 3 42
M  V30 48 1 7 43
M  V30 49 1 9 44
M  V30 50 1 12 45
M  V30 51 1 14 46
M  V30 52 1 15 47
M  V30 53 1 20 48
M  V30 54 1 21 49
M  V30 55 1 21 50
M  V30 56 1 22 51
M  V30 57 1 22 52
M  V30 58 1 23 53
M  V30 59 1 24 54
M  V30 60 1 24 55
M  V30 61 1 25 56
M  V30 62 1 26 57
M  V30 63 1 26 58
M  V30 64 1 27 59
M  V30 65 1 32 60
M  V30 66 1 33 61
M  V30 67 1 33 62
M  V30 68 1 34 63
M  V30 69 1 34 64
M  V30 70 1 35 65
M  V30 71 1 35 66
M  V30 72 1 36 67
M  V30 73 1 36 68
M  V30 END BOND
M  V30 END CTAB
M  END
>  <Dataset>  (538) 
ChEMBL_Kinases

>  <Ligand_Instance>  (538) 
nan

>  <PDB_ID>  (538) 
nan

>  <Standardized_SMILES>  (538) 
CN(C)C(=O)c1cc2cnc(Nc3ccc(C(=O)N4C5CCC4CNC5)cn3)nc2n1C1CCCC1

>  <Name>  (538) 
nan

>  <Pocket>  (538) 
nan

>  <ATP_Site>  (538) 
nan

>  <Peripheral>  (538) 
nan

>  <Num_H_Atoms_ProtBoundConf>  (538) 
nan

>  <Num_Resolved_Atoms>  (538) 
nan

>  <Num_Not_Resolved_Atoms>  (538) 
nan

$$$$
CHEMBL3691564
     RDKit          3D

  0  0  0  0  0  0  0  0  0  0999 V3000
M  V30 BEGIN CTAB
M  V30 COUNTS 71 76 0 0 0
M  V30 BEGIN ATOM
M  V30 1 C 3.148044 1.203143 2.754851 0
M  V30 2 N 4.167559 0.382488 2.070763 0
M  V30 3 C 4.844301 -0.374393 3.101371 0
M  V30 4 C 4.380899 0.377830 0.631835 0
M  V30 5 O 5.292033 -0.355301 0.135127 0
M  V30 6 C 3.418304 1.300396 -0.007840 0
M  V30 7 C 3.703193 2.568331 -0.498600 0
M  V30 8 C 2.497840 3.047086 -0.937550 0
M  V30 9 C 2.071736 4.210782 -1.511028 0
M  V30 10 N 0.763766 4.425221 -1.843318 0
M  V30 11 C -0.144710 3.495671 -1.616080 0
M  V30 12 N -1.557704 3.396287 -1.911271 0
M  V30 13 C -2.323519 2.445953 -1.136136 0
M  V30 14 C -3.584640 1.981413 -1.318725 0
M  V30 15 C -4.198659 1.097347 -0.483268 0
M  V30 16 C -3.511580 0.641666 0.615951 0
M  V30 17 C -3.749427 -0.298808 1.706525 0
M  V30 18 O -3.946540 -0.024417 2.920982 0
M  V30 19 N -3.742391 -1.682860 1.291381 0
M  V30 20 C -3.927174 -2.654844 2.334045 0
M  V30 21 C -3.277851 -3.980934 2.002484 0
M  V30 22 N -3.609238 -4.417489 0.669306 0
M  V30 23 C -2.961384 -5.634784 0.327894 0
M  V30 24 C -1.628351 -5.242531 -0.273232 0
M  V30 25 C -1.692174 -3.727112 -0.370030 0
M  V30 26 C -3.174103 -3.477090 -0.324338 0 CFG=2
M  V30 27 C -3.572543 -2.066589 -0.096716 0
M  V30 28 C -2.225474 1.100048 0.832883 0
M  V30 29 N -1.691763 1.960720 -0.026983 0
M  V30 30 N 0.325548 2.386614 -1.058270 0
M  V30 31 C 1.567689 2.096358 -0.708631 0
M  V30 32 N 2.097432 0.971044 -0.124481 0
M  V30 33 C 1.346252 -0.180436 0.207488 0
M  V30 34 C 2.062871 -1.490028 0.263613 0
M  V30 35 C 2.153142 -1.969589 -1.179442 0
M  V30 36 C 1.056406 -1.256553 -1.899802 0
M  V30 37 C 0.265971 -0.548666 -0.812166 0
M  V30 38 H 3.625295 1.826256 3.505792 0
M  V30 39 H 2.369535 0.569809 3.229345 0
M  V30 40 H 2.656666 1.880415 2.009058 0
M  V30 41 H 5.237227 0.302008 3.893522 0
M  V30 42 H 5.601878 -1.086747 2.710754 0
M  V30 43 H 4.048325 -0.998285 3.608214 0
M  V30 44 H 4.642311 3.095153 -0.541044 0
M  V30 45 H 2.749306 5.023116 -1.718050 0
M  V30 46 H -1.985642 3.983505 -2.642790 0
M  V30 47 H -4.047446 2.374740 -2.194351 0
M  V30 48 H -5.171147 0.689232 -0.568125 0
M  V30 49 H -4.976682 -2.845882 2.606528 0
M  V30 50 H -3.414625 -2.315804 3.284655 0
M  V30 51 H -2.190010 -3.988488 2.213012 0
M  V30 52 H -3.735057 -4.736159 2.684413 0
M  V30 53 H -2.846775 -6.306589 1.204994 0
M  V30 54 H -3.576069 -6.134777 -0.482408 0
M  V30 55 H -0.829353 -5.595653 0.407125 0
M  V30 56 H -1.508560 -5.619588 -1.303310 0
M  V30 57 H -1.211957 -3.367234 -1.304111 0
M  V30 58 H -1.208549 -3.338112 0.550614 0
M  V30 59 H -3.622820 -3.782166 -1.305314 0
M  V30 60 H -2.810372 -1.391778 -0.552868 0
M  V30 61 H -4.573015 -1.901548 -0.568402 0
M  V30 62 H -1.490600 0.887053 1.637897 0
M  V30 63 H 0.774850 -0.066886 1.170919 0
M  V30 64 H 2.962251 -1.595226 0.815458 0
M  V30 65 H 1.326713 -2.214696 0.753834 0
M  V30 66 H 3.146774 -1.808348 -1.614342 0
M  V30 67 H 1.922917 -3.053040 -1.247387 0
M  V30 68 H 0.417376 -1.886625 -2.531989 0
M  V30 69 H 1.457441 -0.463965 -2.581544 0
M  V30 70 H -0.268200 0.239480 -1.280036 0
M  V30 71 H -0.478470 -1.208575 -0.309059 0
M  V30 END ATOM
M  V30 BEGIN BOND
M  V30 1 1 1 2
M  V30 2 1 2 3
M  V30 3 1 2 4
M  V30 4 2 4 5
M  V30 5 1 4 6
M  V30 6 2 6 7
M  V30 7 1 7 8
M  V30 8 2 8 9
M  V30 9 1 9 10
M  V30 10 2 10 11
M  V30 11 1 11 12
M  V30 12 1 12 13
M  V30 13 2 13 14
M  V30 14 1 14 15
M  V30 15 2 15 16
M  V30 16 1 16 17
M  V30 17 2 17 18
M  V30 18 1 17 19
M  V30 19 1 19 20
M  V30 20 1 20 21
M  V30 21 1 21 22
M  V30 22 1 22 23
M  V30 23 1 23 24
M  V30 24 1 24 25
M  V30 25 1 25 26
M  V30 26 1 26 27
M  V30 27 1 16 28
M  V30 28 2 28 29
M  V30 29 1 11 30
M  V30 30 2 30 31
M  V30 31 1 31 32
M  V30 32 1 32 33
M  V30 33 1 33 34
M  V30 34 1 34 35
M  V30 35 1 35 36
M  V30 36 1 36 37
M  V30 37 1 32 6
M  V30 38 1 37 33
M  V30 39 1 31 8
M  V30 40 1 29 13
M  V30 41 1 27 19
M  V30 42 1 26 22
M  V30 43 1 1 38
M  V30 44 1 1 39
M  V30 45 1 1 40
M  V30 46 1 3 41
M  V30 47 1 3 42
M  V30 48 1 3 43
M  V30 49 1 7 44
M  V30 50 1 9 45
M  V30 51 1 12 46
M  V30 52 1 14 47
M  V30 53 1 15 48
M  V30 54 1 20 49
M  V30 55 1 20 50
M  V30 56 1 21 51
M  V30 57 1 21 52
M  V30 58 1 23 53
M  V30 59 1 23 54
M  V30 60 1 24 55
M  V30 61 1 24 56
M  V30 62 1 25 57
M  V30 63 1 25 58
M  V30 64 1 26 59 CFG=3
M  V30 65 1 27 60
M  V30 66 1 27 61
M  V30 67 1 28 62
M  V30 68 1 33 63
M  V30 69 1 34 64
M  V30 70 1 34 65
M  V30 71 1 35 66
M  V30 72 1 35 67
M  V30 73 1 36 68
M  V30 74 1 36 69
M  V30 75 1 37 70
M  V30 76 1 37 71
M  V30 END BOND
M  V30 END CTAB
M  END
>  <Dataset>  (539) 
ChEMBL_Kinases

>  <Ligand_Instance>  (539) 
nan

>  <PDB_ID>  (539) 
nan

>  <Standardized_SMILES>  (539) 
CN(C)C(=O)c1cc2cnc(Nc3ccc(C(=O)N4CCN5CCC[C@@H]5C4)cn3)nc2n1C1CCCC1

>  <Name>  (539) 
nan

>  <Pocket>  (539) 
nan

>  <ATP_Site>  (539) 
nan

>  <Peripheral>  (539) 
nan

>  <Num_H_Atoms_ProtBoundConf>  (539) 
nan

>  <Num_Resolved_Atoms>  (539) 
nan

>  <Num_Not_Resolved_Atoms>  (539) 
nan

$$$$
CHEMBL3691563
     RDKit          3D

  0  0  0  0  0  0  0  0  0  0999 V3000
M  V30 BEGIN CTAB
M  V30 COUNTS 71 76 0 0 0
M  V30 BEGIN ATOM
M  V30 1 C 7.300068 -1.404231 1.140756 0
M  V30 2 N 5.937341 -1.117025 0.764842 0
M  V30 3 C 4.878930 -1.869926 1.399281 0
M  V30 4 C 5.541522 -0.147085 -0.193006 0
M  V30 5 O 6.771854 -0.057186 -0.167564 0
M  V30 6 C 4.173532 0.107637 -0.561475 0
M  V30 7 C 3.595517 -1.029573 -1.124972 0
M  V30 8 C 2.288755 -0.690200 -1.444188 0
M  V30 9 C 1.245375 -1.383457 -2.016464 0
M  V30 10 N 0.081426 -0.677469 -2.169296 0
M  V30 11 C 0.009149 0.607814 -1.771299 0
M  V30 12 N -1.282247 1.138601 -2.030300 0
M  V30 13 C -2.344647 0.848060 -1.120653 0
M  V30 14 C -3.607581 1.348504 -1.327589 0
M  V30 15 C -4.685048 1.092363 -0.498874 0
M  V30 16 C -4.432448 0.285018 0.582812 0
M  V30 17 C -5.216184 -0.258841 1.694611 0
M  V30 18 O -5.284745 0.672805 2.526610 0
M  V30 19 N -5.673514 -1.595023 1.593007 0
M  V30 20 C -5.406522 -2.381434 0.406530 0
M  V30 21 C -6.280293 -3.590441 0.437680 0
M  V30 22 N -5.845857 -4.430772 1.544299 0
M  V30 23 C -4.588871 -5.039924 1.335111 0
M  V30 24 C -3.660071 -4.614641 2.419592 0
M  V30 25 C -4.485143 -3.769334 3.348236 0
M  V30 26 C -5.879458 -3.721864 2.793190 0
M  V30 27 C -6.385336 -2.305988 2.633164 0
M  V30 28 C -3.155365 -0.232702 0.811045 0
M  V30 29 N -2.108682 0.044197 -0.035313 0
M  V30 30 N 1.038936 1.258582 -1.217494 0
M  V30 31 C 2.238100 0.637030 -1.025130 0
M  V30 32 N 3.352739 1.153074 -0.488242 0
M  V30 33 C 3.607331 2.449174 0.021728 0
M  V30 34 C 4.933802 2.962448 -0.502945 0
M  V30 35 C 4.624632 2.891014 -2.009601 0
M  V30 36 C 3.199113 3.466565 -2.069021 0
M  V30 37 C 2.711946 3.510237 -0.650217 0
M  V30 38 H 7.839461 -1.626277 0.172503 0
M  V30 39 H 7.381321 -2.343009 1.725513 0
M  V30 40 H 7.814640 -0.561022 1.603631 0
M  V30 41 H 4.914210 -2.878650 0.936066 0
M  V30 42 H 5.054314 -2.011932 2.483402 0
M  V30 43 H 3.884711 -1.389243 1.320616 0
M  V30 44 H 3.937956 -2.051926 -1.345935 0
M  V30 45 H 1.377973 -2.397945 -2.304104 0
M  V30 46 H -1.497277 1.736410 -2.858315 0
M  V30 47 H -3.856891 1.994805 -2.166135 0
M  V30 48 H -5.702479 1.390324 -0.512377 0
M  V30 49 H -5.630063 -1.840270 -0.537500 0
M  V30 50 H -4.333002 -2.656945 0.325925 0
M  V30 51 H -7.319171 -3.293206 0.694100 0
M  V30 52 H -6.209762 -4.171784 -0.479211 0
M  V30 53 H -4.698482 -6.163134 1.399159 0
M  V30 54 H -4.150256 -4.857623 0.330037 0
M  V30 55 H -2.802672 -4.026584 1.987093 0
M  V30 56 H -3.159429 -5.468842 2.927731 0
M  V30 57 H -4.416582 -4.207103 4.365424 0
M  V30 58 H -4.036558 -2.750058 3.419267 0
M  V30 59 H -6.555696 -4.249731 3.482543 0
M  V30 60 H -7.467471 -2.259856 2.438470 0
M  V30 61 H -6.184312 -1.769636 3.576846 0
M  V30 62 H -2.730523 -0.885046 1.589003 0
M  V30 63 H 3.526831 2.530388 1.125893 0
M  V30 64 H 5.050170 4.052263 -0.277194 0
M  V30 65 H 5.800074 2.372860 -0.295461 0
M  V30 66 H 5.340958 3.435634 -2.609926 0
M  V30 67 H 4.596160 1.804279 -2.300077 0
M  V30 68 H 2.605798 2.897409 -2.774627 0
M  V30 69 H 3.310620 4.497750 -2.479954 0
M  V30 70 H 1.656311 3.369190 -0.485548 0
M  V30 71 H 3.088333 4.493070 -0.236111 0
M  V30 END ATOM
M  V30 BEGIN BOND
M  V30 1 1 1 2
M  V30 2 1 2 3
M  V30 3 1 2 4
M  V30 4 2 4 5
M  V30 5 1 4 6
M  V30 6 2 6 7
M  V30 7 1 7 8
M  V30 8 2 8 9
M  V30 9 1 9 10
M  V30 10 2 10 11
M  V30 11 1 11 12
M  V30 12 1 12 13
M  V30 13 2 13 14
M  V30 14 1 14 15
M  V30 15 2 15 16
M  V30 16 1 16 17
M  V30 17 2 17 18
M  V30 18 1 17 19
M  V30 19 1 19 20
M  V30 20 1 20 21
M  V30 21 1 21 22
M  V30 22 1 22 23
M  V30 23 1 23 24
M  V30 24 1 24 25
M  V30 25 1 25 26
M  V30 26 1 26 27
M  V30 27 1 16 28
M  V30 28 2 28 29
M  V30 29 1 11 30
M  V30 30 2 30 31
M  V30 31 1 31 32
M  V30 32 1 32 33
M  V30 33 1 33 34
M  V30 34 1 34 35
M  V30 35 1 35 36
M  V30 36 1 36 37
M  V30 37 1 32 6
M  V30 38 1 37 33
M  V30 39 1 31 8
M  V30 40 1 29 13
M  V30 41 1 27 19
M  V30 42 1 26 22
M  V30 43 1 1 38
M  V30 44 1 1 39
M  V30 45 1 1 40
M  V30 46 1 3 41
M  V30 47 1 3 42
M  V30 48 1 3 43
M  V30 49 1 7 44
M  V30 50 1 9 45
M  V30 51 1 12 46
M  V30 52 1 14 47
M  V30 53 1 15 48
M  V30 54 1 20 49
M  V30 55 1 20 50
M  V30 56 1 21 51
M  V30 57 1 21 52
M  V30 58 1 23 53
M  V30 59 1 23 54
M  V30 60 1 24 55
M  V30 61 1 24 56
M  V30 62 1 25 57
M  V30 63 1 25 58
M  V30 64 1 26 59
M  V30 65 1 27 60
M  V30 66 1 27 61
M  V30 67 1 28 62
M  V30 68 1 33 63
M  V30 69 1 34 64
M  V30 70 1 34 65
M  V30 71 1 35 66
M  V30 72 1 35 67
M  V30 73 1 36 68
M  V30 74 1 36 69
M  V30 75 1 37 70
M  V30 76 1 37 71
M  V30 END BOND
M  V30 END CTAB
M  END
>  <Dataset>  (540) 
ChEMBL_Kinases

>  <Ligand_Instance>  (540) 
nan

>  <PDB_ID>  (540) 
nan

>  <Standardized_SMILES>  (540) 
CN(C)C(=O)c1cc2cnc(Nc3ccc(C(=O)N4CCN5CCCC5C4)cn3)nc2n1C1CCCC1

>  <Name>  (540) 
nan

>  <Pocket>  (540) 
nan

>  <ATP_Site>  (540) 
nan

>  <Peripheral>  (540) 
nan

>  <Num_H_Atoms_ProtBoundConf>  (540) 
nan

>  <Num_Resolved_Atoms>  (540) 
nan

>  <Num_Not_Resolved_Atoms>  (540) 
nan

$$$$
CHEMBL3691562
     RDKit          3D

  0  0  0  0  0  0  0  0  0  0999 V3000
M  V30 BEGIN CTAB
M  V30 COUNTS 65 70 0 0 0
M  V30 BEGIN ATOM
M  V30 1 C -0.298568 -4.692118 -1.241348 0
M  V30 2 N 0.770332 -5.534705 -0.730247 0
M  V30 3 C 0.374942 -6.941885 -0.552370 0
M  V30 4 C 2.115026 -5.104340 -0.410532 0
M  V30 5 O 2.910571 -6.008597 0.037977 0
M  V30 6 C 2.324548 -3.688208 -0.665522 0
M  V30 7 C 2.977231 -3.351732 -1.839415 0
M  V30 8 C 3.014379 -1.952785 -1.826400 0
M  V30 9 C 3.544385 -1.098431 -2.774443 0
M  V30 10 N 3.425777 0.229438 -2.511997 0
M  V30 11 C 2.825395 0.666088 -1.392793 0
M  V30 12 N 2.537674 1.972809 -0.916658 0
M  V30 13 C 1.156444 2.373479 -1.044362 0
M  V30 14 C 0.785042 3.653821 -0.615272 0
M  V30 15 C -0.531349 4.052930 -0.708525 0
M  V30 16 C -1.378048 3.118148 -1.234151 0
M  V30 17 C -2.763638 3.321905 -1.430456 0
M  V30 18 O -3.498110 2.698837 -0.639505 0
M  V30 19 N -4.051883 3.680325 -1.818582 0
M  V30 20 C -5.301542 3.249767 -1.238724 0
M  V30 21 C -6.334326 3.419593 -2.327290 0 CFG=2
M  V30 22 C -5.451858 3.515624 -3.559906 0
M  V30 23 C -4.507476 4.544557 -2.903141 0
M  V30 24 C -5.482425 5.512396 -2.335161 0
M  V30 25 N -6.778192 4.802005 -2.261783 0
M  V30 26 C -1.054195 1.849961 -1.667278 0
M  V30 27 N 0.255610 1.513597 -1.550565 0
M  V30 28 N 2.325535 -0.200158 -0.497762 0
M  V30 29 C 2.390817 -1.557041 -0.663381 0
M  V30 30 N 1.962931 -2.639991 0.058090 0
M  V30 31 C 1.287057 -2.458455 1.293285 0
M  V30 32 C 1.841641 -1.321285 2.142575 0
M  V30 33 C 3.227456 -1.803502 2.494167 0
M  V30 34 C 3.118579 -3.337317 2.426819 0
M  V30 35 C 1.627868 -3.609325 2.229486 0
M  V30 36 H -0.941497 -4.463899 -0.356114 0
M  V30 37 H 0.028216 -3.788866 -1.749905 0
M  V30 38 H -0.940860 -5.266513 -1.949629 0
M  V30 39 H -0.334515 -6.969452 0.283017 0
M  V30 40 H 1.253618 -7.603660 -0.448917 0
M  V30 41 H -0.186628 -7.224088 -1.486119 0
M  V30 42 H 3.391298 -3.957197 -2.632931 0
M  V30 43 H 4.033474 -1.392837 -3.685590 0
M  V30 44 H 3.225695 2.634329 -0.498864 0
M  V30 45 H 1.513912 4.340468 -0.206447 0
M  V30 46 H -0.917364 5.004183 -0.406473 0
M  V30 47 H -5.269441 2.171021 -0.967637 0
M  V30 48 H -5.552064 3.916571 -0.383481 0
M  V30 49 H -7.115425 2.673010 -2.371043 0
M  V30 50 H -5.960859 3.915078 -4.441407 0
M  V30 51 H -4.923692 2.549505 -3.707325 0
M  V30 52 H -3.746728 4.913629 -3.566091 0
M  V30 53 H -5.574563 6.476309 -2.867342 0
M  V30 54 H -5.217099 5.722154 -1.265401 0
M  V30 55 H -7.315196 5.036995 -1.422655 0
M  V30 56 H -1.660472 1.064977 -2.087626 0
M  V30 57 H 0.188333 -2.284741 1.216830 0
M  V30 58 H 1.256467 -1.367308 3.113614 0
M  V30 59 H 1.756826 -0.334991 1.729503 0
M  V30 60 H 4.024985 -1.408554 1.861279 0
M  V30 61 H 3.498278 -1.572758 3.564268 0
M  V30 62 H 3.697053 -3.702502 1.558076 0
M  V30 63 H 3.481674 -3.817212 3.360813 0
M  V30 64 H 1.131433 -3.454223 3.227705 0
M  V30 65 H 1.395836 -4.577966 1.815499 0
M  V30 END ATOM
M  V30 BEGIN BOND
M  V30 1 1 1 2
M  V30 2 1 2 3
M  V30 3 1 2 4
M  V30 4 2 4 5
M  V30 5 1 4 6
M  V30 6 2 6 7
M  V30 7 1 7 8
M  V30 8 2 8 9
M  V30 9 1 9 10
M  V30 10 2 10 11
M  V30 11 1 11 12
M  V30 12 1 12 13
M  V30 13 2 13 14
M  V30 14 1 14 15
M  V30 15 2 15 16
M  V30 16 1 16 17
M  V30 17 2 17 18
M  V30 18 1 17 19
M  V30 19 1 19 20
M  V30 20 1 20 21
M  V30 21 1 21 22
M  V30 22 1 22 23
M  V30 23 1 23 24
M  V30 24 1 24 25
M  V30 25 1 16 26
M  V30 26 2 26 27
M  V30 27 1 11 28
M  V30 28 2 28 29
M  V30 29 1 29 30
M  V30 30 1 30 31
M  V30 31 1 31 32
M  V30 32 1 32 33
M  V30 33 1 33 34
M  V30 34 1 34 35
M  V30 35 1 30 6
M  V30 36 1 35 31
M  V30 37 1 29 8
M  V30 38 1 27 13
M  V30 39 1 23 19
M  V30 40 1 25 21
M  V30 41 1 1 36
M  V30 42 1 1 37
M  V30 43 1 1 38
M  V30 44 1 3 39
M  V30 45 1 3 40
M  V30 46 1 3 41
M  V30 47 1 7 42
M  V30 48 1 9 43
M  V30 49 1 12 44
M  V30 50 1 14 45
M  V30 51 1 15 46
M  V30 52 1 20 47
M  V30 53 1 20 48
M  V30 54 1 21 49 CFG=3
M  V30 55 1 22 50
M  V30 56 1 22 51
M  V30 57 1 23 52
M  V30 58 1 24 53
M  V30 59 1 24 54
M  V30 60 1 25 55
M  V30 61 1 26 56
M  V30 62 1 31 57
M  V30 63 1 32 58
M  V30 64 1 32 59
M  V30 65 1 33 60
M  V30 66 1 33 61
M  V30 67 1 34 62
M  V30 68 1 34 63
M  V30 69 1 35 64
M  V30 70 1 35 65
M  V30 END BOND
M  V30 END CTAB
M  END
>  <Dataset>  (541) 
ChEMBL_Kinases

>  <Ligand_Instance>  (541) 
nan

>  <PDB_ID>  (541) 
nan

>  <Standardized_SMILES>  (541) 
CN(C)C(=O)c1cc2cnc(Nc3ccc(C(=O)N4C[C@@H]5CC4CN5)cn3)nc2n1C1CCCC1

>  <Name>  (541) 
nan

>  <Pocket>  (541) 
nan

>  <ATP_Site>  (541) 
nan

>  <Peripheral>  (541) 
nan

>  <Num_H_Atoms_ProtBoundConf>  (541) 
nan

>  <Num_Resolved_Atoms>  (541) 
nan

>  <Num_Not_Resolved_Atoms>  (541) 
nan

$$$$
CHEMBL3691561
     RDKit          3D

  0  0  0  0  0  0  0  0  0  0999 V3000
M  V30 BEGIN CTAB
M  V30 COUNTS 68 73 0 0 0
M  V30 BEGIN ATOM
M  V30 1 C 3.933930 -1.734264 1.590376 0
M  V30 2 N 4.838435 -1.377836 0.485337 0
M  V30 3 C 5.704930 -2.542698 0.268803 0
M  V30 4 C 4.843251 -0.128086 -0.248479 0
M  V30 5 O 5.718166 -0.094557 -1.147449 0
M  V30 6 C 3.820573 0.788146 0.244308 0
M  V30 7 C 4.139626 1.883940 1.020207 0
M  V30 8 C 2.929735 2.481216 1.294882 0
M  V30 9 C 2.540554 3.601105 2.016943 0
M  V30 10 N 1.227378 3.961214 2.127589 0
M  V30 11 C 0.296030 3.206398 1.520048 0
M  V30 12 N -1.138726 3.360448 1.499260 0
M  V30 13 C -1.838826 2.152269 1.860326 0
M  V30 14 C -3.228825 2.064158 1.904293 0
M  V30 15 C -3.888389 0.915632 2.247871 0
M  V30 16 C -3.178932 -0.211613 2.568220 0
M  V30 17 C -3.441684 -1.594322 2.961788 0
M  V30 18 O -3.536852 -1.835620 4.214560 0
M  V30 19 N -3.534205 -2.428329 1.785080 0
M  V30 20 C -3.430335 -1.964173 0.391728 0
M  V30 21 C -4.642080 -2.436040 -0.371174 0
M  V30 22 C -4.159859 -3.465295 -1.406059 0
M  V30 23 C -3.678560 -4.557546 -0.440419 0
M  V30 24 C -4.561382 -4.359793 0.799808 0
M  V30 25 C -3.709207 -3.882392 1.961831 0
M  V30 26 N -5.486806 -3.296666 0.441336 0
M  V30 27 C -1.779834 -0.135873 2.529581 0
M  V30 28 N -1.213992 1.015873 2.185700 0
M  V30 29 N 0.728302 2.143832 0.839713 0
M  V30 30 C 1.977031 1.716801 0.674916 0
M  V30 31 N 2.518236 0.646888 0.007619 0
M  V30 32 C 1.679495 -0.262052 -0.702691 0
M  V30 33 C 0.565089 0.444282 -1.462498 0
M  V30 34 C 1.334299 1.228518 -2.477220 0
M  V30 35 C 2.524926 0.319048 -2.809425 0
M  V30 36 C 2.378359 -0.896218 -1.892757 0
M  V30 37 H 3.274699 -2.587711 1.250452 0
M  V30 38 H 3.258235 -0.886610 1.842400 0
M  V30 39 H 4.466381 -2.092791 2.478985 0
M  V30 40 H 5.056879 -3.455343 0.146870 0
M  V30 41 H 6.307997 -2.466640 -0.650311 0
M  V30 42 H 6.351448 -2.760285 1.138877 0
M  V30 43 H 5.108093 2.226258 1.349656 0
M  V30 44 H 3.273883 4.221442 2.510828 0
M  V30 45 H -1.730079 4.185892 1.269625 0
M  V30 46 H -3.824956 2.920618 1.659242 0
M  V30 47 H -4.936547 0.708308 2.320261 0
M  V30 48 H -2.497083 -2.395707 -0.015070 0
M  V30 49 H -3.332216 -0.861971 0.355996 0
M  V30 50 H -5.200247 -1.608865 -0.842322 0
M  V30 51 H -4.989904 -3.803484 -2.031594 0
M  V30 52 H -3.338397 -3.018256 -1.980020 0
M  V30 53 H -3.842203 -5.556203 -0.874542 0
M  V30 54 H -2.616271 -4.415907 -0.180936 0
M  V30 55 H -5.086096 -5.297998 1.022278 0
M  V30 56 H -2.709192 -4.384924 1.792799 0
M  V30 57 H -4.109749 -4.145632 2.944147 0
M  V30 58 H -6.188290 -3.696537 -0.233163 0
M  V30 59 H -0.980258 -0.857730 2.734557 0
M  V30 60 H 1.194442 -0.997147 -0.036391 0
M  V30 61 H 0.044488 -0.393906 -2.017386 0
M  V30 62 H -0.180146 0.941789 -0.883940 0
M  V30 63 H 0.705401 1.437193 -3.350872 0
M  V30 64 H 1.711418 2.206347 -2.104717 0
M  V30 65 H 3.447214 0.884322 -2.627053 0
M  V30 66 H 2.422083 0.012097 -3.868990 0
M  V30 67 H 3.287691 -1.427699 -1.695460 0
M  V30 68 H 1.584210 -1.540177 -2.373393 0
M  V30 END ATOM
M  V30 BEGIN BOND
M  V30 1 1 1 2
M  V30 2 1 2 3
M  V30 3 1 2 4
M  V30 4 2 4 5
M  V30 5 1 4 6
M  V30 6 2 6 7
M  V30 7 1 7 8
M  V30 8 2 8 9
M  V30 9 1 9 10
M  V30 10 2 10 11
M  V30 11 1 11 12
M  V30 12 1 12 13
M  V30 13 2 13 14
M  V30 14 1 14 15
M  V30 15 2 15 16
M  V30 16 1 16 17
M  V30 17 2 17 18
M  V30 18 1 17 19
M  V30 19 1 19 20
M  V30 20 1 20 21
M  V30 21 1 21 22
M  V30 22 1 22 23
M  V30 23 1 23 24
M  V30 24 1 24 25
M  V30 25 1 24 26
M  V30 26 1 16 27
M  V30 27 2 27 28
M  V30 28 1 11 29
M  V30 29 2 29 30
M  V30 30 1 30 31
M  V30 31 1 31 32
M  V30 32 1 32 33
M  V30 33 1 33 34
M  V30 34 1 34 35
M  V30 35 1 35 36
M  V30 36 1 31 6
M  V30 37 1 36 32
M  V30 38 1 30 8
M  V30 39 1 28 13
M  V30 40 1 25 19
M  V30 41 1 26 21
M  V30 42 1 1 37
M  V30 43 1 1 38
M  V30 44 1 1 39
M  V30 45 1 3 40
M  V30 46 1 3 41
M  V30 47 1 3 42
M  V30 48 1 7 43
M  V30 49 1 9 44
M  V30 50 1 12 45
M  V30 51 1 14 46
M  V30 52 1 15 47
M  V30 53 1 20 48
M  V30 54 1 20 49
M  V30 55 1 21 50
M  V30 56 1 22 51
M  V30 57 1 22 52
M  V30 58 1 23 53
M  V30 59 1 23 54
M  V30 60 1 24 55
M  V30 61 1 25 56
M  V30 62 1 25 57
M  V30 63 1 26 58
M  V30 64 1 27 59
M  V30 65 1 32 60
M  V30 66 1 33 61
M  V30 67 1 33 62
M  V30 68 1 34 63
M  V30 69 1 34 64
M  V30 70 1 35 65
M  V30 71 1 35 66
M  V30 72 1 36 67
M  V30 73 1 36 68
M  V30 END BOND
M  V30 END CTAB
M  END
>  <Dataset>  (542) 
ChEMBL_Kinases

>  <Ligand_Instance>  (542) 
nan

>  <PDB_ID>  (542) 
nan

>  <Standardized_SMILES>  (542) 
CN(C)C(=O)c1cc2cnc(Nc3ccc(C(=O)N4CC5CCC(C4)N5)cn3)nc2n1C1CCCC1

>  <Name>  (542) 
nan

>  <Pocket>  (542) 
nan

>  <ATP_Site>  (542) 
nan

>  <Peripheral>  (542) 
nan

>  <Num_H_Atoms_ProtBoundConf>  (542) 
nan

>  <Num_Resolved_Atoms>  (542) 
nan

>  <Num_Not_Resolved_Atoms>  (542) 
nan

$$$$
CHEMBL3691560
     RDKit          3D

  0  0  0  0  0  0  0  0  0  0999 V3000
M  V30 BEGIN CTAB
M  V30 COUNTS 71 76 0 0 0
M  V30 BEGIN ATOM
M  V30 1 C 6.593778 -0.647839 1.668335 0
M  V30 2 N 5.176621 -0.589499 1.388261 0
M  V30 3 C 4.090835 -0.910651 2.292623 0
M  V30 4 C 5.120251 -0.141259 0.007800 0
M  V30 5 O 6.343733 -0.041061 -0.138723 0
M  V30 6 C 3.759415 -0.021584 -0.532451 0
M  V30 7 C 3.132646 -1.232461 -0.675297 0
M  V30 8 C 1.862978 -1.012031 -1.170862 0
M  V30 9 C 0.794985 -1.822047 -1.492396 0
M  V30 10 N -0.307571 -1.138167 -1.937188 0
M  V30 11 C -0.337743 0.199905 -2.047894 0
M  V30 12 N -1.654991 0.507214 -2.500668 0
M  V30 13 C -2.574669 0.425013 -1.407095 0
M  V30 14 C -3.921658 0.676078 -1.555264 0
M  V30 15 C -4.856739 0.596135 -0.568190 0
M  V30 16 C -4.526536 0.243309 0.714718 0
M  V30 17 C -5.028571 -0.013524 2.052454 0
M  V30 18 O -5.235106 0.802643 2.967472 0
M  V30 19 N -5.291623 -1.416474 2.284158 0
M  V30 20 C -5.738881 -2.063493 3.498526 0
M  V30 21 C -5.199919 -3.477393 3.494554 0
M  V30 22 C -5.881416 -4.521995 2.712612 0
M  V30 23 C -4.705815 -3.699514 2.124816 0
M  V30 24 N -3.521795 -4.411367 1.781765 0
M  V30 25 C -3.285314 -4.463590 0.346682 0
M  V30 26 C -2.338547 -3.923791 2.447168 0
M  V30 27 C -5.168373 -2.510181 1.307121 0
M  V30 28 C -3.140418 -0.013998 0.870300 0
M  V30 29 N -2.268250 0.082110 -0.140468 0
M  V30 30 N 0.730053 0.997446 -1.728043 0
M  V30 31 C 1.858798 0.356505 -1.276981 0
M  V30 32 N 2.972629 0.988893 -0.907474 0
M  V30 33 C 3.384866 2.349191 -0.882880 0
M  V30 34 C 4.659881 2.441814 -1.735415 0
M  V30 35 C 4.270159 3.015976 -3.061705 0
M  V30 36 C 2.809709 3.304053 -3.024421 0
M  V30 37 C 2.479984 3.306353 -1.558303 0
M  V30 38 H 7.063212 -1.375965 0.964156 0
M  V30 39 H 6.716838 -1.098139 2.683441 0
M  V30 40 H 7.082055 0.335554 1.698170 0
M  V30 41 H 4.324507 -0.535740 3.305770 0
M  V30 42 H 3.981499 -1.998251 2.349714 0
M  V30 43 H 3.159585 -0.418026 1.974093 0
M  V30 44 H 3.438511 -2.278983 -0.482173 0
M  V30 45 H 0.905016 -2.883706 -1.378141 0
M  V30 46 H -2.082301 0.768159 -3.428575 0
M  V30 47 H -4.349105 0.963754 -2.502106 0
M  V30 48 H -5.915430 0.754817 -0.527380 0
M  V30 49 H -5.206147 -1.505288 4.329472 0
M  V30 50 H -6.795259 -2.025930 3.712916 0
M  V30 51 H -4.652780 -3.800944 4.393961 0
M  V30 52 H -6.894963 -4.303323 2.314832 0
M  V30 53 H -5.627067 -5.580163 2.949102 0
M  V30 54 H -2.476021 -3.800811 0.006982 0
M  V30 55 H -4.262092 -4.242803 -0.144278 0
M  V30 56 H -3.015442 -5.494433 0.083168 0
M  V30 57 H -2.298900 -4.308513 3.512064 0
M  V30 58 H -2.332807 -2.799602 2.561578 0
M  V30 59 H -1.437438 -4.275036 1.931681 0
M  V30 60 H -4.430664 -2.246334 0.541924 0
M  V30 61 H -6.145114 -2.767310 0.868783 0
M  V30 62 H -2.504299 -0.309290 1.729336 0
M  V30 63 H 3.554481 2.700088 0.145762 0
M  V30 64 H 5.366770 3.076974 -1.172217 0
M  V30 65 H 5.062355 1.420742 -1.961347 0
M  V30 66 H 4.469142 2.319967 -3.929447 0
M  V30 67 H 4.900334 3.918407 -3.251811 0
M  V30 68 H 2.192910 2.571280 -3.572897 0
M  V30 69 H 2.638743 4.304017 -3.506819 0
M  V30 70 H 1.409706 3.214318 -1.348312 0
M  V30 71 H 2.740053 4.350364 -1.199449 0
M  V30 END ATOM
M  V30 BEGIN BOND
M  V30 1 1 1 2
M  V30 2 1 2 3
M  V30 3 1 2 4
M  V30 4 2 4 5
M  V30 5 1 4 6
M  V30 6 2 6 7
M  V30 7 1 7 8
M  V30 8 2 8 9
M  V30 9 1 9 10
M  V30 10 2 10 11
M  V30 11 1 11 12
M  V30 12 1 12 13
M  V30 13 2 13 14
M  V30 14 1 14 15
M  V30 15 2 15 16
M  V30 16 1 16 17
M  V30 17 2 17 18
M  V30 18 1 17 19
M  V30 19 1 19 20
M  V30 20 1 20 21
M  V30 21 1 21 22
M  V30 22 1 22 23
M  V30 23 1 23 24
M  V30 24 1 24 25
M  V30 25 1 24 26
M  V30 26 1 23 27
M  V30 27 1 16 28
M  V30 28 2 28 29
M  V30 29 1 11 30
M  V30 30 2 30 31
M  V30 31 1 31 32
M  V30 32 1 32 33
M  V30 33 1 33 34
M  V30 34 1 34 35
M  V30 35 1 35 36
M  V30 36 1 36 37
M  V30 37 1 32 6
M  V30 38 1 37 33
M  V30 39 1 31 8
M  V30 40 1 29 13
M  V30 41 1 27 19
M  V30 42 1 23 21
M  V30 43 1 1 38
M  V30 44 1 1 39
M  V30 45 1 1 40
M  V30 46 1 3 41
M  V30 47 1 3 42
M  V30 48 1 3 43
M  V30 49 1 7 44
M  V30 50 1 9 45
M  V30 51 1 12 46
M  V30 52 1 14 47
M  V30 53 1 15 48
M  V30 54 1 20 49
M  V30 55 1 20 50
M  V30 56 1 21 51
M  V30 57 1 22 52
M  V30 58 1 22 53
M  V30 59 1 25 54
M  V30 60 1 25 55
M  V30 61 1 25 56
M  V30 62 1 26 57
M  V30 63 1 26 58
M  V30 64 1 26 59
M  V30 65 1 27 60
M  V30 66 1 27 61
M  V30 67 1 28 62
M  V30 68 1 33 63
M  V30 69 1 34 64
M  V30 70 1 34 65
M  V30 71 1 35 66
M  V30 72 1 35 67
M  V30 73 1 36 68
M  V30 74 1 36 69
M  V30 75 1 37 70
M  V30 76 1 37 71
M  V30 END BOND
M  V30 END CTAB
M  END
>  <Dataset>  (543) 
ChEMBL_Kinases

>  <Ligand_Instance>  (543) 
nan

>  <PDB_ID>  (543) 
nan

>  <Standardized_SMILES>  (543) 
CN(C)C(=O)c1cc2cnc(Nc3ccc(C(=O)N4CC5CC5(N(C)C)C4)cn3)nc2n1C1CCCC1

>  <Name>  (543) 
nan

>  <Pocket>  (543) 
nan

>  <ATP_Site>  (543) 
nan

>  <Peripheral>  (543) 
nan

>  <Num_H_Atoms_ProtBoundConf>  (543) 
nan

>  <Num_Resolved_Atoms>  (543) 
nan

>  <Num_Not_Resolved_Atoms>  (543) 
nan

$$$$
CHEMBL3691559
     RDKit          3D

  0  0  0  0  0  0  0  0  0  0999 V3000
M  V30 BEGIN CTAB
M  V30 COUNTS 65 70 0 0 0
M  V30 BEGIN ATOM
M  V30 1 C 2.724732 -1.370520 5.564672 0
M  V30 2 N 2.687336 -1.044965 4.129847 0
M  V30 3 C 2.359961 -2.200620 3.312153 0
M  V30 4 C 2.971112 0.312694 3.771304 0
M  V30 5 O 3.189304 0.997466 4.796487 0
M  V30 6 C 2.904589 0.413993 2.330994 0
M  V30 7 C 3.903298 -0.159897 1.536427 0
M  V30 8 C 3.491550 0.097802 0.237036 0
M  V30 9 C 4.057519 -0.255374 -0.956830 0
M  V30 10 N 3.466088 0.065810 -2.153323 0
M  V30 11 C 2.277695 0.760888 -2.082806 0
M  V30 12 N 1.615059 1.040242 -3.335386 0
M  V30 13 C 0.502308 0.166837 -3.499734 0
M  V30 14 C 0.147908 -0.786477 -2.552955 0
M  V30 15 C -0.919058 -1.692093 -2.595464 0
M  V30 16 C -1.746713 -1.617743 -3.770669 0
M  V30 17 C -2.744526 -2.661715 -3.538907 0
M  V30 18 O -2.601100 -3.639870 -4.328838 0
M  V30 19 N -3.664642 -2.379675 -2.477850 0
M  V30 20 C -4.079867 -1.372563 -1.481992 0
M  V30 21 C -3.687267 -2.059982 -0.218881 0 CFG=1
M  V30 22 C -4.695983 -2.877734 0.527912 0
M  V30 23 C -4.011106 -3.551859 -0.577702 0 CFG=2
M  V30 24 N -2.938404 -4.472548 -0.400802 0
M  V30 25 C -4.591233 -3.414822 -2.010485 0
M  V30 26 C -1.360362 -0.667759 -4.672635 0
M  V30 27 N -0.323923 0.159025 -4.557728 0
M  V30 28 N 1.794745 1.066053 -0.891843 0
M  V30 29 C 2.322653 0.780758 0.295979 0
M  V30 30 N 1.948210 0.984932 1.585981 0
M  V30 31 C 0.752024 1.683732 1.880177 0
M  V30 32 C 0.191701 1.567304 3.254019 0
M  V30 33 C -1.065360 2.448971 3.089524 0
M  V30 34 C -0.617287 3.562761 2.128411 0
M  V30 35 C 0.767101 3.159591 1.644864 0
M  V30 36 H 2.947596 -0.485460 6.188920 0
M  V30 37 H 3.449857 -2.172792 5.748536 0
M  V30 38 H 1.715487 -1.820588 5.800140 0
M  V30 39 H 2.740321 -3.151903 3.770710 0
M  V30 40 H 1.250387 -2.245204 3.250183 0
M  V30 41 H 2.806155 -2.159880 2.318058 0
M  V30 42 H 4.783613 -0.677909 1.862750 0
M  V30 43 H 4.990949 -0.795781 -0.993582 0
M  V30 44 H 1.783230 1.735417 -4.119244 0
M  V30 45 H 0.767196 -0.876688 -1.641028 0
M  V30 46 H -1.022341 -2.360518 -1.717928 0
M  V30 47 H -5.173483 -1.275330 -1.499040 0
M  V30 48 H -3.642202 -0.406634 -1.664493 0
M  V30 49 H -2.678737 -1.908055 0.212599 0
M  V30 50 H -4.418220 -3.229309 1.551294 0
M  V30 51 H -5.730308 -2.535377 0.451970 0
M  V30 52 H -3.278557 -5.450577 -0.625140 0
M  V30 53 H -2.686945 -4.500885 0.625459 0
M  V30 54 H -4.478128 -4.367747 -2.545177 0
M  V30 55 H -5.603866 -3.004497 -1.954973 0
M  V30 56 H -2.083951 -0.752453 -5.472667 0
M  V30 57 H -0.066755 1.286555 1.197798 0
M  V30 58 H 0.787456 2.061226 4.037240 0
M  V30 59 H -0.155398 0.539954 3.523624 0
M  V30 60 H -1.357076 2.908265 4.049940 0
M  V30 61 H -1.889223 1.872723 2.631902 0
M  V30 62 H -0.613866 4.545858 2.575134 0
M  V30 63 H -1.278701 3.524938 1.224061 0
M  V30 64 H 0.908946 3.414539 0.572168 0
M  V30 65 H 1.517436 3.637662 2.264621 0
M  V30 END ATOM
M  V30 BEGIN BOND
M  V30 1 1 1 2
M  V30 2 1 2 3
M  V30 3 1 2 4
M  V30 4 2 4 5
M  V30 5 1 4 6
M  V30 6 2 6 7
M  V30 7 1 7 8
M  V30 8 2 8 9
M  V30 9 1 9 10
M  V30 10 2 10 11
M  V30 11 1 11 12
M  V30 12 1 12 13
M  V30 13 2 13 14
M  V30 14 1 14 15
M  V30 15 2 15 16
M  V30 16 1 16 17
M  V30 17 2 17 18
M  V30 18 1 17 19
M  V30 19 1 19 20
M  V30 20 1 20 21
M  V30 21 1 21 22
M  V30 22 1 22 23
M  V30 23 1 23 24 CFG=1
M  V30 24 1 23 25
M  V30 25 1 16 26
M  V30 26 2 26 27
M  V30 27 1 11 28
M  V30 28 2 28 29
M  V30 29 1 29 30
M  V30 30 1 30 31
M  V30 31 1 31 32
M  V30 32 1 32 33
M  V30 33 1 33 34
M  V30 34 1 34 35
M  V30 35 1 30 6
M  V30 36 1 35 31
M  V30 37 1 29 8
M  V30 38 1 27 13
M  V30 39 1 25 19
M  V30 40 1 23 21
M  V30 41 1 1 36
M  V30 42 1 1 37
M  V30 43 1 1 38
M  V30 44 1 3 39
M  V30 45 1 3 40
M  V30 46 1 3 41
M  V30 47 1 7 42
M  V30 48 1 9 43
M  V30 49 1 12 44
M  V30 50 1 14 45
M  V30 51 1 15 46
M  V30 52 1 20 47
M  V30 53 1 20 48
M  V30 54 1 21 49 CFG=1
M  V30 55 1 22 50
M  V30 56 1 22 51
M  V30 57 1 24 52
M  V30 58 1 24 53
M  V30 59 1 25 54
M  V30 60 1 25 55
M  V30 61 1 26 56
M  V30 62 1 31 57
M  V30 63 1 32 58
M  V30 64 1 32 59
M  V30 65 1 33 60
M  V30 66 1 33 61
M  V30 67 1 34 62
M  V30 68 1 34 63
M  V30 69 1 35 64
M  V30 70 1 35 65
M  V30 END BOND
M  V30 END CTAB
M  END
>  <Dataset>  (544) 
ChEMBL_Kinases

>  <Ligand_Instance>  (544) 
nan

>  <PDB_ID>  (544) 
nan

>  <Standardized_SMILES>  (544) 
CN(C)C(=O)c1cc2cnc(Nc3ccc(C(=O)N4C[C@H]5C[C@@]5(N)C4)cn3)nc2n1C1CCCC1

>  <Name>  (544) 
nan

>  <Pocket>  (544) 
nan

>  <ATP_Site>  (544) 
nan

>  <Peripheral>  (544) 
nan

>  <Num_H_Atoms_ProtBoundConf>  (544) 
nan

>  <Num_Resolved_Atoms>  (544) 
nan

>  <Num_Not_Resolved_Atoms>  (544) 
nan

$$$$
CHEMBL3691557
     RDKit          3D

  0  0  0  0  0  0  0  0  0  0999 V3000
M  V30 BEGIN CTAB
M  V30 COUNTS 65 70 0 0 0
M  V30 BEGIN ATOM
M  V30 1 C 3.717005 1.566538 5.655553 0
M  V30 2 N 3.330938 0.279230 5.118864 0
M  V30 3 C 3.301197 -0.646419 6.236394 0
M  V30 4 C 2.986532 -0.269629 3.845600 0
M  V30 5 O 2.689652 -1.514852 3.739979 0
M  V30 6 C 2.860666 0.226346 2.490169 0
M  V30 7 C 3.959829 0.413368 1.644042 0
M  V30 8 C 3.401908 0.886621 0.453758 0
M  V30 9 C 4.056705 1.222495 -0.714434 0
M  V30 10 N 3.318935 1.652408 -1.752921 0
M  V30 11 C 1.983432 1.748823 -1.647184 0
M  V30 12 N 0.965847 2.138495 -2.556951 0
M  V30 13 C 0.174465 1.036961 -3.006334 0
M  V30 14 C 0.403565 -0.270841 -2.595884 0
M  V30 15 C -0.374810 -1.364307 -3.004825 0
M  V30 16 C -1.457043 -1.109239 -3.889162 0
M  V30 17 C -2.161933 -2.331039 -4.199494 0
M  V30 18 O -1.751073 -3.132847 -5.105572 0
M  V30 19 N -3.338849 -2.747658 -3.548902 0
M  V30 20 C -4.158359 -2.152161 -2.482022 0
M  V30 21 C -4.347745 -3.298263 -1.493736 0
M  V30 22 C -3.184907 -4.221706 -1.372808 0
M  V30 23 C -4.267363 -4.531318 -2.325189 0
M  V30 24 N -5.131042 -5.639814 -2.087461 0
M  V30 25 C -4.125245 -3.979294 -3.741291 0
M  V30 26 C -1.627421 0.196362 -4.255285 0
M  V30 27 N -0.871859 1.228701 -3.853390 0
M  V30 28 N 1.390433 1.410070 -0.489725 0
M  V30 29 C 2.038439 0.972178 0.598236 0
M  V30 30 N 1.728901 0.563683 1.851107 0
M  V30 31 C 0.355782 0.569208 2.217031 0
M  V30 32 C 0.051639 0.232116 3.650376 0
M  V30 33 C -1.331068 0.868657 3.904854 0
M  V30 34 C -1.343354 2.093167 3.021259 0
M  V30 35 C -0.165628 2.010443 2.087553 0
M  V30 36 H 4.661361 1.508599 6.235092 0
M  V30 37 H 2.924932 1.871847 6.371040 0
M  V30 38 H 3.813111 2.356675 4.868897 0
M  V30 39 H 4.282171 -0.693959 6.728579 0
M  V30 40 H 2.545940 -0.297606 6.998511 0
M  V30 41 H 2.922639 -1.648285 5.935540 0
M  V30 42 H 5.003641 0.236674 1.851091 0
M  V30 43 H 5.125914 1.162255 -0.843551 0
M  V30 44 H 0.730058 3.086114 -2.927621 0
M  V30 45 H 1.237142 -0.477243 -1.912166 0
M  V30 46 H -0.107124 -2.348806 -2.624011 0
M  V30 47 H -5.135155 -1.836007 -2.917849 0
M  V30 48 H -3.636585 -1.340648 -1.945119 0
M  V30 49 H -4.991799 -3.168684 -0.638063 0
M  V30 50 H -2.205299 -3.813449 -1.709761 0
M  V30 51 H -3.091287 -4.863783 -0.444796 0
M  V30 52 H -5.185283 -6.306632 -2.890913 0
M  V30 53 H -4.935854 -6.142523 -1.196979 0
M  V30 54 H -5.100003 -3.760378 -4.176200 0
M  V30 55 H -3.611886 -4.734117 -4.341325 0
M  V30 56 H -2.478378 0.295693 -4.932111 0
M  V30 57 H -0.189989 -0.096421 1.522668 0
M  V30 58 H 0.721568 0.698511 4.366599 0
M  V30 59 H -0.093537 -0.850705 3.737397 0
M  V30 60 H -2.143671 0.201884 3.557298 0
M  V30 61 H -1.419586 1.114526 4.973225 0
M  V30 62 H -1.272833 2.977784 3.716359 0
M  V30 63 H -2.260167 2.227171 2.439820 0
M  V30 64 H -0.468641 2.184132 1.047339 0
M  V30 65 H 0.599364 2.743089 2.363594 0
M  V30 END ATOM
M  V30 BEGIN BOND
M  V30 1 1 1 2
M  V30 2 1 2 3
M  V30 3 1 2 4
M  V30 4 2 4 5
M  V30 5 1 4 6
M  V30 6 2 6 7
M  V30 7 1 7 8
M  V30 8 2 8 9
M  V30 9 1 9 10
M  V30 10 2 10 11
M  V30 11 1 11 12
M  V30 12 1 12 13
M  V30 13 2 13 14
M  V30 14 1 14 15
M  V30 15 2 15 16
M  V30 16 1 16 17
M  V30 17 2 17 18
M  V30 18 1 17 19
M  V30 19 1 19 20
M  V30 20 1 20 21
M  V30 21 1 21 22
M  V30 22 1 22 23
M  V30 23 1 23 24
M  V30 24 1 23 25
M  V30 25 1 16 26
M  V30 26 2 26 27
M  V30 27 1 11 28
M  V30 28 2 28 29
M  V30 29 1 29 30
M  V30 30 1 30 31
M  V30 31 1 31 32
M  V30 32 1 32 33
M  V30 33 1 33 34
M  V30 34 1 34 35
M  V30 35 1 30 6
M  V30 36 1 35 31
M  V30 37 1 29 8
M  V30 38 1 27 13
M  V30 39 1 25 19
M  V30 40 1 23 21
M  V30 41 1 1 36
M  V30 42 1 1 37
M  V30 43 1 1 38
M  V30 44 1 3 39
M  V30 45 1 3 40
M  V30 46 1 3 41
M  V30 47 1 7 42
M  V30 48 1 9 43
M  V30 49 1 12 44
M  V30 50 1 14 45
M  V30 51 1 15 46
M  V30 52 1 20 47
M  V30 53 1 20 48
M  V30 54 1 21 49
M  V30 55 1 22 50
M  V30 56 1 22 51
M  V30 57 1 24 52
M  V30 58 1 24 53
M  V30 59 1 25 54
M  V30 60 1 25 55
M  V30 61 1 26 56
M  V30 62 1 31 57
M  V30 63 1 32 58
M  V30 64 1 32 59
M  V30 65 1 33 60
M  V30 66 1 33 61
M  V30 67 1 34 62
M  V30 68 1 34 63
M  V30 69 1 35 64
M  V30 70 1 35 65
M  V30 END BOND
M  V30 END CTAB
M  END
>  <Dataset>  (545) 
ChEMBL_Kinases

>  <Ligand_Instance>  (545) 
nan

>  <PDB_ID>  (545) 
nan

>  <Standardized_SMILES>  (545) 
CN(C)C(=O)c1cc2cnc(Nc3ccc(C(=O)N4CC5CC5(N)C4)cn3)nc2n1C1CCCC1

>  <Name>  (545) 
nan

>  <Pocket>  (545) 
nan

>  <ATP_Site>  (545) 
nan

>  <Peripheral>  (545) 
nan

>  <Num_H_Atoms_ProtBoundConf>  (545) 
nan

>  <Num_Resolved_Atoms>  (545) 
nan

>  <Num_Not_Resolved_Atoms>  (545) 
nan

$$$$
CHEMBL3691555
     RDKit          3D

  0  0  0  0  0  0  0  0  0  0999 V3000
M  V30 BEGIN CTAB
M  V30 COUNTS 74 79 0 0 0
M  V30 BEGIN ATOM
M  V30 1 C 3.786552 -3.348337 3.376561 0
M  V30 2 N 5.150237 -3.534547 2.920516 0
M  V30 3 C 5.876215 -4.405155 3.819170 0
M  V30 4 C 5.717187 -2.956696 1.762378 0
M  V30 5 O 6.941854 -3.251293 1.536286 0
M  V30 6 C 4.927261 -2.087522 0.906487 0
M  V30 7 C 4.617162 -2.607651 -0.356824 0
M  V30 8 C 3.867357 -1.643429 -1.011481 0
M  V30 9 C 3.289902 -1.611311 -2.279259 0
M  V30 10 N 2.601373 -0.501972 -2.634667 0
M  V30 11 C 2.480711 0.549793 -1.772128 0
M  V30 12 N 1.766335 1.751426 -2.079014 0
M  V30 13 C 0.391488 1.708566 -1.696251 0
M  V30 14 C -0.164532 0.595129 -1.087978 0
M  V30 15 C -1.495452 0.512634 -0.698884 0
M  V30 16 C -2.308010 1.608518 -0.935401 0
M  V30 17 C -3.690087 1.450394 -0.500002 0
M  V30 18 O -3.627015 2.102314 0.586534 0
M  V30 19 N -4.714560 0.759885 -1.160759 0
M  V30 20 C -4.855462 0.002488 -2.390238 0
M  V30 21 C -5.535787 -1.332927 -2.184559 0
M  V30 22 C -5.364727 -1.659584 -0.692833 0
M  V30 23 C -6.414817 -0.681055 -0.142483 0
M  V30 24 C -6.027786 0.745161 -0.508390 0
M  V30 25 N -7.512440 -1.038465 -0.947502 0
M  V30 26 C -8.741873 -1.401002 -0.471024 0
M  V30 27 C -8.667654 -2.742870 0.244452 0
M  V30 28 F -9.910595 -3.117361 0.722390 0
M  V30 29 F -7.739713 -2.687263 1.280904 0
M  V30 30 F -8.206302 -3.682918 -0.654163 0
M  V30 31 C -7.049811 -1.231529 -2.242521 0
M  V30 32 C -1.750545 2.717896 -1.542501 0
M  V30 33 N -0.455801 2.762546 -1.905977 0
M  V30 34 N 3.061641 0.456485 -0.563591 0
M  V30 35 C 3.756181 -0.594261 -0.130742 0
M  V30 36 N 4.397200 -0.872808 1.017890 0
M  V30 37 C 4.535365 -0.075696 2.191580 0
M  V30 38 C 4.020060 1.333548 2.024277 0
M  V30 39 C 5.116696 2.054100 1.297251 0
M  V30 40 C 6.336848 1.122722 1.296356 0
M  V30 41 C 6.012684 0.222884 2.469734 0
M  V30 42 H 3.826908 -2.857777 4.371539 0
M  V30 43 H 3.344160 -4.352678 3.529051 0
M  V30 44 H 3.197723 -2.736522 2.657609 0
M  V30 45 H 6.804809 -4.813197 3.373005 0
M  V30 46 H 5.262127 -5.273365 4.170835 0
M  V30 47 H 6.183876 -3.858955 4.740191 0
M  V30 48 H 4.852944 -3.561841 -0.854798 0
M  V30 49 H 3.384494 -2.441282 -2.961242 0
M  V30 50 H 2.099760 2.630637 -2.530862 0
M  V30 51 H 0.451121 -0.295005 -0.884594 0
M  V30 52 H -1.853796 -0.411457 -0.219722 0
M  V30 53 H -5.334162 0.596510 -3.194570 0
M  V30 54 H -3.795954 -0.251833 -2.692817 0
M  V30 55 H -5.116035 -2.108500 -2.820278 0
M  V30 56 H -5.708578 -2.665547 -0.464974 0
M  V30 57 H -4.349119 -1.445360 -0.344951 0
M  V30 58 H -6.525973 -0.801210 0.950499 0
M  V30 59 H -6.742214 1.234374 -1.184559 0
M  V30 60 H -6.042601 1.332919 0.431581 0
M  V30 61 H -9.465516 -1.541323 -1.325812 0
M  V30 62 H -9.227770 -0.723859 0.270468 0
M  V30 63 H -7.407545 -2.227328 -2.630136 0
M  V30 64 H -7.383014 -0.508402 -3.009850 0
M  V30 65 H -2.431683 3.551730 -1.704038 0
M  V30 66 H 4.127744 -0.488752 3.116004 0
M  V30 67 H 3.984745 1.761963 3.069517 0
M  V30 68 H 3.023686 1.422199 1.602139 0
M  V30 69 H 5.457964 2.963938 1.865852 0
M  V30 70 H 4.874583 2.399417 0.293902 0
M  V30 71 H 6.359226 0.500550 0.385750 0
M  V30 72 H 7.273489 1.700967 1.447819 0
M  V30 73 H 6.597858 -0.700412 2.437571 0
M  V30 74 H 6.095618 0.763357 3.437743 0
M  V30 END ATOM
M  V30 BEGIN BOND
M  V30 1 1 1 2
M  V30 2 1 2 3
M  V30 3 1 2 4
M  V30 4 2 4 5
M  V30 5 1 4 6
M  V30 6 2 6 7
M  V30 7 1 7 8
M  V30 8 2 8 9
M  V30 9 1 9 10
M  V30 10 2 10 11
M  V30 11 1 11 12
M  V30 12 1 12 13
M  V30 13 2 13 14
M  V30 14 1 14 15
M  V30 15 2 15 16
M  V30 16 1 16 17
M  V30 17 2 17 18
M  V30 18 1 17 19
M  V30 19 1 19 20
M  V30 20 1 20 21
M  V30 21 1 21 22
M  V30 22 1 22 23
M  V30 23 1 23 24
M  V30 24 1 23 25
M  V30 25 1 25 26
M  V30 26 1 26 27
M  V30 27 1 27 28
M  V30 28 1 27 29
M  V30 29 1 27 30
M  V30 30 1 25 31
M  V30 31 1 16 32
M  V30 32 2 32 33
M  V30 33 1 11 34
M  V30 34 2 34 35
M  V30 35 1 35 36
M  V30 36 1 36 37
M  V30 37 1 37 38
M  V30 38 1 38 39
M  V30 39 1 39 40
M  V30 40 1 40 41
M  V30 41 1 36 6
M  V30 42 1 41 37
M  V30 43 1 35 8
M  V30 44 1 33 13
M  V30 45 1 24 19
M  V30 46 1 31 21
M  V30 47 1 1 42
M  V30 48 1 1 43
M  V30 49 1 1 44
M  V30 50 1 3 45
M  V30 51 1 3 46
M  V30 52 1 3 47
M  V30 53 1 7 48
M  V30 54 1 9 49
M  V30 55 1 12 50
M  V30 56 1 14 51
M  V30 57 1 15 52
M  V30 58 1 20 53
M  V30 59 1 20 54
M  V30 60 1 21 55
M  V30 61 1 22 56
M  V30 62 1 22 57
M  V30 63 1 23 58
M  V30 64 1 24 59
M  V30 65 1 24 60
M  V30 66 1 26 61
M  V30 67 1 26 62
M  V30 68 1 31 63
M  V30 69 1 31 64
M  V30 70 1 32 65
M  V30 71 1 37 66
M  V30 72 1 38 67
M  V30 73 1 38 68
M  V30 74 1 39 69
M  V30 75 1 39 70
M  V30 76 1 40 71
M  V30 77 1 40 72
M  V30 78 1 41 73
M  V30 79 1 41 74
M  V30 END BOND
M  V30 END CTAB
M  END
>  <Dataset>  (546) 
ChEMBL_Kinases

>  <Ligand_Instance>  (546) 
nan

>  <PDB_ID>  (546) 
nan

>  <Standardized_SMILES>  (546) 
CN(C)C(=O)c1cc2cnc(Nc3ccc(C(=O)N4CC5CC(C4)N(CC(F)(F)F)C5)cn3)nc2n1C1CCCC1

>  <Name>  (546) 
nan

>  <Pocket>  (546) 
nan

>  <ATP_Site>  (546) 
nan

>  <Peripheral>  (546) 
nan

>  <Num_H_Atoms_ProtBoundConf>  (546) 
nan

>  <Num_Resolved_Atoms>  (546) 
nan

>  <Num_Not_Resolved_Atoms>  (546) 
nan

$$$$
CHEMBL3691554
     RDKit          3D

  0  0  0  0  0  0  0  0  0  0999 V3000
M  V30 BEGIN CTAB
M  V30 COUNTS 68 73 0 0 0
M  V30 BEGIN ATOM
M  V30 1 C 1.460740 -6.890797 -2.470711 0
M  V30 2 N 1.589693 -5.431574 -2.485632 0
M  V30 3 C 1.992928 -4.894360 -1.208731 0
M  V30 4 C 1.318056 -4.759259 -3.710115 0
M  V30 5 O 0.989579 -5.467874 -4.688861 0
M  V30 6 C 1.496794 -3.303135 -3.522706 0
M  V30 7 C 2.578894 -2.683206 -4.152562 0
M  V30 8 C 2.499214 -1.348330 -3.806780 0
M  V30 9 C 3.211587 -0.204848 -4.057907 0
M  V30 10 N 2.834074 0.950025 -3.534861 0
M  V30 11 C 1.753066 1.128908 -2.727743 0
M  V30 12 N 1.470180 2.413986 -2.225022 0
M  V30 13 C 0.448428 2.727748 -1.274670 0
M  V30 14 C -0.430796 1.819711 -0.729859 0
M  V30 15 C -1.374873 2.205911 0.230129 0
M  V30 16 C -1.442258 3.535612 0.655717 0
M  V30 17 C -2.503031 3.639518 1.664489 0
M  V30 18 O -3.670606 4.093271 1.625617 0
M  V30 19 N -2.079026 3.099246 2.935512 0
M  V30 20 C -3.008845 3.103662 4.015186 0
M  V30 21 C -2.997093 1.853580 4.851883 0 CFG=1
M  V30 22 C -3.281541 0.665060 3.961590 0
M  V30 23 N -2.059965 0.547868 3.193408 0
M  V30 24 C -1.006129 1.201512 3.903164 0 CFG=2
M  V30 25 C -1.567371 1.509788 5.299560 0
M  V30 26 C -0.779521 2.549965 3.262138 0
M  V30 27 C -0.547609 4.409994 0.085421 0
M  V30 28 N 0.332853 3.985275 -0.826352 0
M  V30 29 N 1.113561 -0.021268 -2.532040 0
M  V30 30 C 1.396294 -1.218411 -2.999429 0
M  V30 31 N 0.760279 -2.404393 -2.808567 0
M  V30 32 C -0.437766 -2.722742 -2.057130 0
M  V30 33 C -1.648979 -2.031370 -2.642249 0
M  V30 34 C -2.512182 -1.754552 -1.454633 0
M  V30 35 C -1.706531 -1.908597 -0.209845 0
M  V30 36 C -0.294327 -2.278224 -0.647383 0
M  V30 37 H 1.646721 -7.330025 -3.481691 0
M  V30 38 H 2.228912 -7.338673 -1.803326 0
M  V30 39 H 0.446335 -7.142831 -2.102111 0
M  V30 40 H 2.119993 -3.790395 -1.217837 0
M  V30 41 H 1.233152 -5.208059 -0.438092 0
M  V30 42 H 2.959794 -5.348806 -0.951721 0
M  V30 43 H 3.341654 -3.106161 -4.788730 0
M  V30 44 H 4.094873 -0.272782 -4.697274 0
M  V30 45 H 2.049095 3.203200 -2.576004 0
M  V30 46 H -0.388245 0.807497 -1.050639 0
M  V30 47 H -1.995461 1.384138 0.558734 0
M  V30 48 H -2.855781 4.013078 4.667304 0
M  V30 49 H -4.071519 3.217926 3.666064 0
M  V30 50 H -3.695057 1.938471 5.691404 0
M  V30 51 H -3.291539 -0.265777 4.609985 0
M  V30 52 H -4.192189 0.745471 3.367452 0
M  V30 53 H -1.844143 -0.417885 2.899766 0
M  V30 54 H -0.076298 0.604120 3.965455 0
M  V30 55 H -1.609969 0.601854 5.901527 0
M  V30 56 H -1.052727 2.346970 5.771773 0
M  V30 57 H -0.261022 3.160828 4.033669 0
M  V30 58 H -0.136574 2.381773 2.367463 0
M  V30 59 H -0.690752 5.391736 0.488501 0
M  V30 60 H -0.630733 -3.801462 -2.106519 0
M  V30 61 H -1.276684 -1.102907 -3.126345 0
M  V30 62 H -2.108854 -2.651272 -3.427684 0
M  V30 63 H -2.923377 -0.721317 -1.554540 0
M  V30 64 H -3.334168 -2.501682 -1.434595 0
M  V30 65 H -2.095036 -2.750003 0.435059 0
M  V30 66 H -1.672019 -0.990755 0.416101 0
M  V30 67 H 0.379765 -1.386388 -0.556574 0
M  V30 68 H 0.093336 -3.115199 -0.005821 0
M  V30 END ATOM
M  V30 BEGIN BOND
M  V30 1 1 1 2
M  V30 2 1 2 3
M  V30 3 1 2 4
M  V30 4 2 4 5
M  V30 5 1 4 6
M  V30 6 2 6 7
M  V30 7 1 7 8
M  V30 8 2 8 9
M  V30 9 1 9 10
M  V30 10 2 10 11
M  V30 11 1 11 12
M  V30 12 1 12 13
M  V30 13 2 13 14
M  V30 14 1 14 15
M  V30 15 2 15 16
M  V30 16 1 16 17
M  V30 17 2 17 18
M  V30 18 1 17 19
M  V30 19 1 19 20
M  V30 20 1 20 21
M  V30 21 1 21 22
M  V30 22 1 22 23
M  V30 23 1 23 24
M  V30 24 1 24 25
M  V30 25 1 24 26
M  V30 26 1 16 27
M  V30 27 2 27 28
M  V30 28 1 11 29
M  V30 29 2 29 30
M  V30 30 1 30 31
M  V30 31 1 31 32
M  V30 32 1 32 33
M  V30 33 1 33 34
M  V30 34 1 34 35
M  V30 35 1 35 36
M  V30 36 1 31 6
M  V30 37 1 36 32
M  V30 38 1 30 8
M  V30 39 1 28 13
M  V30 40 1 26 19
M  V30 41 1 25 21
M  V30 42 1 1 37
M  V30 43 1 1 38
M  V30 44 1 1 39
M  V30 45 1 3 40
M  V30 46 1 3 41
M  V30 47 1 3 42
M  V30 48 1 7 43
M  V30 49 1 9 44
M  V30 50 1 12 45
M  V30 51 1 14 46
M  V30 52 1 15 47
M  V30 53 1 20 48
M  V30 54 1 20 49
M  V30 55 1 21 50 CFG=1
M  V30 56 1 22 51
M  V30 57 1 22 52
M  V30 58 1 23 53
M  V30 59 1 24 54 CFG=1
M  V30 60 1 25 55
M  V30 61 1 25 56
M  V30 62 1 26 57
M  V30 63 1 26 58
M  V30 64 1 27 59
M  V30 65 1 32 60
M  V30 66 1 33 61
M  V30 67 1 33 62
M  V30 68 1 34 63
M  V30 69 1 34 64
M  V30 70 1 35 65
M  V30 71 1 35 66
M  V30 72 1 36 67
M  V30 73 1 36 68
M  V30 END BOND
M  V30 END CTAB
M  END
>  <Dataset>  (547) 
ChEMBL_Kinases

>  <Ligand_Instance>  (547) 
nan

>  <PDB_ID>  (547) 
nan

>  <Standardized_SMILES>  (547) 
CN(C)C(=O)c1cc2cnc(Nc3ccc(C(=O)N4C[C@H]5CN[C@H](C5)C4)cn3)nc2n1C1CCCC1

>  <Name>  (547) 
nan

>  <Pocket>  (547) 
nan

>  <ATP_Site>  (547) 
nan

>  <Peripheral>  (547) 
nan

>  <Num_H_Atoms_ProtBoundConf>  (547) 
nan

>  <Num_Resolved_Atoms>  (547) 
nan

>  <Num_Not_Resolved_Atoms>  (547) 
nan

$$$$
CHEMBL3689496
     RDKit          3D

  0  0  0  0  0  0  0  0  0  0999 V3000
M  V30 BEGIN CTAB
M  V30 COUNTS 52 55 0 0 0
M  V30 BEGIN ATOM
M  V30 1 O 1.915615 -6.776700 2.428070 0
M  V30 2 C 0.615063 -6.379036 2.048417 0
M  V30 3 C 0.710683 -5.389583 0.898764 0
M  V30 4 O 1.454884 -4.268806 1.336003 0
M  V30 5 C 1.682741 -3.219569 0.461732 0
M  V30 6 C 1.201147 -3.237372 -0.831207 0
M  V30 7 C 1.468402 -2.157915 -1.640774 0
M  V30 8 C 2.198463 -1.085463 -1.173493 0
M  V30 9 C 2.703974 -1.026943 0.126700 0
M  V30 10 C 3.469744 0.146844 0.541712 0
M  V30 11 N 2.748584 1.224308 1.102987 0
M  V30 12 C 2.000553 0.989571 2.280258 0
M  V30 13 C 0.700276 1.763413 2.205414 0
M  V30 14 C 0.626640 2.213256 0.766704 0 CFG=2
M  V30 15 N -0.393682 1.481224 0.080353 0
M  V30 16 C -1.750845 1.591472 0.454874 0
M  V30 17 C -2.163424 2.414744 1.475719 0
M  V30 18 C -3.480276 2.537572 1.864522 0
M  V30 19 C -4.467845 1.827689 1.237079 0
M  V30 20 C -4.095816 0.988649 0.205513 0
M  V30 21 C -5.073522 0.259669 -0.445795 0
M  V30 22 N -4.751666 -0.579971 -1.468524 0
M  V30 23 C -3.457457 -0.704209 -1.854485 0
M  V30 24 C -2.512000 0.038355 -1.181548 0
M  V30 25 C -2.779330 0.899871 -0.144047 0
M  V30 26 C 2.005494 2.059075 0.220802 0
M  V30 27 C 2.409609 -2.131738 0.898245 0
M  V30 28 H 2.288503 -6.029937 2.964821 0
M  V30 29 H -0.011281 -7.244609 1.798512 0
M  V30 30 H 0.127308 -5.843143 2.887920 0
M  V30 31 H -0.335901 -5.027165 0.719475 0
M  V30 32 H 1.123535 -5.834807 -0.012037 0
M  V30 33 H 0.642784 -4.087213 -1.146538 0
M  V30 34 H 1.066846 -2.231504 -2.635197 0
M  V30 35 H 2.328188 -0.319114 -1.914295 0
M  V30 36 H 4.148363 0.505028 -0.267928 0
M  V30 37 H 4.190926 -0.200876 1.341163 0
M  V30 38 H 2.585556 1.429844 3.129229 0
M  V30 39 H 1.794786 -0.052315 2.549630 0
M  V30 40 H 0.683780 2.603403 2.928734 0
M  V30 41 H -0.158960 1.098904 2.478481 0
M  V30 42 H 0.287942 3.282036 0.786453 0
M  V30 43 H -0.016897 0.897454 -0.680618 0
M  V30 44 H -1.490167 3.025858 2.042473 0
M  V30 45 H -3.801347 3.184346 2.666062 0
M  V30 46 H -5.495428 1.915986 1.531741 0
M  V30 47 H -6.116583 0.299492 -0.203860 0
M  V30 48 H -3.205372 -1.377500 -2.673342 0
M  V30 49 H -1.509129 -0.110862 -1.541223 0
M  V30 50 H 1.998001 1.794243 -0.832544 0
M  V30 51 H 2.475954 3.085489 0.264145 0
M  V30 52 H 2.776921 -2.137985 1.908437 0
M  V30 END ATOM
M  V30 BEGIN BOND
M  V30 1 1 1 2
M  V30 2 1 2 3
M  V30 3 1 3 4
M  V30 4 1 4 5
M  V30 5 2 5 6
M  V30 6 1 6 7
M  V30 7 2 7 8
M  V30 8 1 8 9
M  V30 9 1 9 10
M  V30 10 1 10 11
M  V30 11 1 11 12
M  V30 12 1 12 13
M  V30 13 1 13 14
M  V30 14 1 14 15
M  V30 15 1 15 16
M  V30 16 2 16 17
M  V30 17 1 17 18
M  V30 18 2 18 19
M  V30 19 1 19 20
M  V30 20 2 20 21
M  V30 21 1 21 22
M  V30 22 2 22 23
M  V30 23 1 23 24
M  V30 24 2 24 25
M  V30 25 1 14 26
M  V30 26 2 9 27
M  V30 27 1 27 5
M  V30 28 1 26 11
M  V30 29 1 25 16
M  V30 30 1 25 20
M  V30 31 1 1 28
M  V30 32 1 2 29
M  V30 33 1 2 30
M  V30 34 1 3 31
M  V30 35 1 3 32
M  V30 36 1 6 33
M  V30 37 1 7 34
M  V30 38 1 8 35
M  V30 39 1 10 36
M  V30 40 1 10 37
M  V30 41 1 12 38
M  V30 42 1 12 39
M  V30 43 1 13 40
M  V30 44 1 13 41
M  V30 45 1 14 42 CFG=1
M  V30 46 1 15 43
M  V30 47 1 17 44
M  V30 48 1 18 45
M  V30 49 1 19 46
M  V30 50 1 21 47
M  V30 51 1 23 48
M  V30 52 1 24 49
M  V30 53 1 26 50
M  V30 54 1 26 51
M  V30 55 1 27 52
M  V30 END BOND
M  V30 END CTAB
M  END
>  <Dataset>  (548) 
ChEMBL_Kinases

>  <Ligand_Instance>  (548) 
nan

>  <PDB_ID>  (548) 
nan

>  <Standardized_SMILES>  (548) 
OCCOc1cccc(CN2CC[C@H](Nc3cccc4cnccc34)C2)c1

>  <Name>  (548) 
nan

>  <Pocket>  (548) 
nan

>  <ATP_Site>  (548) 
nan

>  <Peripheral>  (548) 
nan

>  <Num_H_Atoms_ProtBoundConf>  (548) 
nan

>  <Num_Resolved_Atoms>  (548) 
nan

>  <Num_Not_Resolved_Atoms>  (548) 
nan

$$$$
CHEMBL3689497
     RDKit          3D

  0  0  0  0  0  0  0  0  0  0999 V3000
M  V30 BEGIN CTAB
M  V30 COUNTS 55 58 0 0 0
M  V30 BEGIN ATOM
M  V30 1 C 0.401601 -2.184732 4.538162 0
M  V30 2 S 1.841790 -3.152626 4.166960 0
M  V30 3 O 2.082465 -4.218125 5.167483 0
M  V30 4 O 1.614175 -3.809935 2.814514 0
M  V30 5 N 3.237153 -2.149269 3.964527 0
M  V30 6 C 3.323346 -1.162291 2.948444 0
M  V30 7 C 4.552646 -1.189771 2.287227 0
M  V30 8 C 4.872142 -0.332998 1.267351 0
M  V30 9 C 3.923017 0.604992 0.877988 0
M  V30 10 C 2.697485 0.650176 1.519734 0
M  V30 11 C 1.653557 1.635374 1.138879 0
M  V30 12 N 0.760069 1.201786 0.132379 0
M  V30 13 C -0.204788 2.238042 -0.119703 0
M  V30 14 C -1.190432 2.330426 1.030854 0
M  V30 15 C -1.457978 0.986155 1.638716 0
M  V30 16 C -1.224218 -0.148375 0.656083 0 CFG=1
M  V30 17 N -2.130861 -0.061970 -0.431979 0
M  V30 18 C -2.767007 -0.545635 -1.607921 0
M  V30 19 C -3.701653 0.198928 -2.329089 0
M  V30 20 C -4.294845 -0.304040 -3.453486 0
M  V30 21 C -3.962344 -1.551298 -3.867960 0
M  V30 22 C -3.061697 -2.360066 -3.234211 0
M  V30 23 C -2.806306 -3.611180 -3.738584 0
M  V30 24 N -1.933357 -4.381046 -3.098341 0
M  V30 25 C -1.312694 -3.942479 -1.977925 0
M  V30 26 C -1.600774 -2.681209 -1.510470 0
M  V30 27 C -2.485928 -1.802694 -2.095292 0
M  V30 28 C 0.208721 -0.079650 0.181286 0
M  V30 29 C 2.406862 -0.227849 2.544307 0
M  V30 30 H 0.641844 -1.265315 5.116453 0
M  V30 31 H -0.171455 -1.923566 3.631927 0
M  V30 32 H -0.266783 -2.825243 5.162742 0
M  V30 33 H 4.043512 -2.297504 4.637691 0
M  V30 34 H 5.366187 -1.888298 2.517444 0
M  V30 35 H 5.803592 -0.321159 0.734238 0
M  V30 36 H 4.097282 1.306232 0.092106 0
M  V30 37 H 1.195612 2.079792 2.039147 0
M  V30 38 H 2.230298 2.501277 0.683695 0
M  V30 39 H -0.674826 2.207323 -1.110123 0
M  V30 40 H 0.385731 3.198206 -0.078202 0
M  V30 41 H -0.869580 3.049170 1.789928 0
M  V30 42 H -2.147306 2.693077 0.601558 0
M  V30 43 H -0.769410 0.820510 2.481625 0
M  V30 44 H -2.495389 0.921954 1.970167 0
M  V30 45 H -1.399013 -1.131490 1.183180 0
M  V30 46 H -2.538217 0.879196 -0.257338 0
M  V30 47 H -3.976110 1.207653 -2.001371 0
M  V30 48 H -4.999312 0.327947 -3.949011 0
M  V30 49 H -4.457849 -1.883737 -4.748168 0
M  V30 50 H -3.305935 -3.956779 -4.635237 0
M  V30 51 H -0.617369 -4.614052 -1.506627 0
M  V30 52 H -1.084833 -2.420167 -0.630750 0
M  V30 53 H 0.826763 -0.803485 0.748585 0
M  V30 54 H 0.205347 -0.480968 -0.880234 0
M  V30 55 H 1.482150 -0.270149 3.103887 0
M  V30 END ATOM
M  V30 BEGIN BOND
M  V30 1 1 1 2
M  V30 2 2 2 3
M  V30 3 2 2 4
M  V30 4 1 2 5
M  V30 5 1 5 6
M  V30 6 2 6 7
M  V30 7 1 7 8
M  V30 8 2 8 9
M  V30 9 1 9 10
M  V30 10 1 10 11
M  V30 11 1 11 12
M  V30 12 1 12 13
M  V30 13 1 13 14
M  V30 14 1 14 15
M  V30 15 1 15 16
M  V30 16 1 16 17
M  V30 17 1 17 18
M  V30 18 2 18 19
M  V30 19 1 19 20
M  V30 20 2 20 21
M  V30 21 1 21 22
M  V30 22 2 22 23
M  V30 23 1 23 24
M  V30 24 2 24 25
M  V30 25 1 25 26
M  V30 26 2 26 27
M  V30 27 1 16 28
M  V30 28 2 10 29
M  V30 29 1 29 6
M  V30 30 1 28 12
M  V30 31 1 27 18
M  V30 32 1 27 22
M  V30 33 1 1 30
M  V30 34 1 1 31
M  V30 35 1 1 32
M  V30 36 1 5 33
M  V30 37 1 7 34
M  V30 38 1 8 35
M  V30 39 1 9 36
M  V30 40 1 11 37
M  V30 41 1 11 38
M  V30 42 1 13 39
M  V30 43 1 13 40
M  V30 44 1 14 41
M  V30 45 1 14 42
M  V30 46 1 15 43
M  V30 47 1 15 44
M  V30 48 1 16 45 CFG=1
M  V30 49 1 17 46
M  V30 50 1 19 47
M  V30 51 1 20 48
M  V30 52 1 21 49
M  V30 53 1 23 50
M  V30 54 1 25 51
M  V30 55 1 26 52
M  V30 56 1 28 53
M  V30 57 1 28 54
M  V30 58 1 29 55
M  V30 END BOND
M  V30 END CTAB
M  END
>  <Dataset>  (549) 
ChEMBL_Kinases

>  <Ligand_Instance>  (549) 
nan

>  <PDB_ID>  (549) 
nan

>  <Standardized_SMILES>  (549) 
CS(=O)(=O)Nc1cccc(CN2CCC[C@@H](Nc3cccc4cnccc34)C2)c1

>  <Name>  (549) 
nan

>  <Pocket>  (549) 
nan

>  <ATP_Site>  (549) 
nan

>  <Peripheral>  (549) 
nan

>  <Num_H_Atoms_ProtBoundConf>  (549) 
nan

>  <Num_Resolved_Atoms>  (549) 
nan

>  <Num_Not_Resolved_Atoms>  (549) 
nan

$$$$
CHEMBL3689498
     RDKit          3D

  0  0  0  0  0  0  0  0  0  0999 V3000
M  V30 BEGIN CTAB
M  V30 COUNTS 55 58 0 0 0
M  V30 BEGIN ATOM
M  V30 1 O 0.994034 -2.065610 4.807728 0
M  V30 2 C 1.849989 -2.751332 3.923317 0
M  V30 3 C 3.283925 -2.398474 4.162932 0
M  V30 4 O 3.594960 -1.049724 4.006933 0
M  V30 5 C 3.520005 -0.238872 2.934680 0
M  V30 6 C 3.940729 1.030060 3.327017 0
M  V30 7 C 3.983472 2.112515 2.441966 0
M  V30 8 C 3.587450 1.893460 1.126546 0
M  V30 9 C 3.166768 0.648482 0.710214 0
M  V30 10 C 2.737466 0.361862 -0.668071 0
M  V30 11 N 1.397646 0.532380 -0.945401 0
M  V30 12 C 0.760773 1.762331 -0.792452 0
M  V30 13 C -0.129085 1.680517 0.419047 0
M  V30 14 C -0.667099 0.361612 0.770200 0
M  V30 15 C -0.280214 -0.825231 -0.030539 0 CFG=1
M  V30 16 N -1.443682 -1.636327 -0.303173 0
M  V30 17 C -2.611418 -1.252555 -0.974282 0
M  V30 18 C -2.858591 -0.011735 -1.495069 0
M  V30 19 C -3.999179 0.386465 -2.159705 0
M  V30 20 C -5.010933 -0.537146 -2.332534 0
M  V30 21 C -4.820809 -1.792536 -1.833690 0
M  V30 22 C -5.849848 -2.684508 -2.025057 0
M  V30 23 N -5.762101 -3.958639 -1.568238 0
M  V30 24 C -4.634641 -4.358143 -0.909379 0
M  V30 25 C -3.632945 -3.428639 -0.743085 0
M  V30 26 C -3.655015 -2.126157 -1.178361 0
M  V30 27 C 0.543868 -0.530730 -1.276355 0
M  V30 28 C 3.155370 -0.348475 1.632460 0
M  V30 29 H 0.092611 -2.012341 4.394114 0
M  V30 30 H 1.543612 -2.427989 2.921149 0
M  V30 31 H 1.716049 -3.853777 4.071243 0
M  V30 32 H 3.559168 -2.763212 5.189639 0
M  V30 33 H 3.954367 -3.010819 3.490774 0
M  V30 34 H 4.286776 1.393599 4.309231 0
M  V30 35 H 4.287649 3.116532 2.641573 0
M  V30 36 H 3.593598 2.681705 0.386232 0
M  V30 37 H 3.055569 -0.674135 -0.897381 0
M  V30 38 H 3.377995 1.007157 -1.327584 0
M  V30 39 H 0.156102 1.980557 -1.722141 0
M  V30 40 H 1.459989 2.593791 -0.709234 0
M  V30 41 H 0.416803 2.182102 1.244080 0
M  V30 42 H -0.988983 2.378358 0.201139 0
M  V30 43 H -0.340550 0.158342 1.841206 0
M  V30 44 H -1.791285 0.387281 0.883181 0
M  V30 45 H 0.428525 -1.492877 0.570626 0
M  V30 46 H -1.385749 -2.608095 0.045814 0
M  V30 47 H -2.141653 0.791383 -1.419610 0
M  V30 48 H -4.158452 1.380001 -2.558600 0
M  V30 49 H -5.919478 -0.261004 -2.848540 0
M  V30 50 H -6.760807 -2.424547 -2.536886 0
M  V30 51 H -4.621416 -5.365363 -0.574583 0
M  V30 52 H -2.800460 -3.845014 -0.217052 0
M  V30 53 H 1.063694 -1.468986 -1.567880 0
M  V30 54 H -0.148925 -0.236938 -2.084925 0
M  V30 55 H 2.849439 -1.321496 1.354012 0
M  V30 END ATOM
M  V30 BEGIN BOND
M  V30 1 1 1 2
M  V30 2 1 2 3
M  V30 3 1 3 4
M  V30 4 1 4 5
M  V30 5 2 5 6
M  V30 6 1 6 7
M  V30 7 2 7 8
M  V30 8 1 8 9
M  V30 9 1 9 10
M  V30 10 1 10 11
M  V30 11 1 11 12
M  V30 12 1 12 13
M  V30 13 1 13 14
M  V30 14 1 14 15
M  V30 15 1 15 16
M  V30 16 1 16 17
M  V30 17 2 17 18
M  V30 18 1 18 19
M  V30 19 2 19 20
M  V30 20 1 20 21
M  V30 21 2 21 22
M  V30 22 1 22 23
M  V30 23 2 23 24
M  V30 24 1 24 25
M  V30 25 2 25 26
M  V30 26 1 15 27
M  V30 27 2 9 28
M  V30 28 1 28 5
M  V30 29 1 27 11
M  V30 30 1 26 17
M  V30 31 1 26 21
M  V30 32 1 1 29
M  V30 33 1 2 30
M  V30 34 1 2 31
M  V30 35 1 3 32
M  V30 36 1 3 33
M  V30 37 1 6 34
M  V30 38 1 7 35
M  V30 39 1 8 36
M  V30 40 1 10 37
M  V30 41 1 10 38
M  V30 42 1 12 39
M  V30 43 1 12 40
M  V30 44 1 13 41
M  V30 45 1 13 42
M  V30 46 1 14 43
M  V30 47 1 14 44
M  V30 48 1 15 45 CFG=1
M  V30 49 1 16 46
M  V30 50 1 18 47
M  V30 51 1 19 48
M  V30 52 1 20 49
M  V30 53 1 22 50
M  V30 54 1 24 51
M  V30 55 1 25 52
M  V30 56 1 27 53
M  V30 57 1 27 54
M  V30 58 1 28 55
M  V30 END BOND
M  V30 END CTAB
M  END
>  <Dataset>  (550) 
ChEMBL_Kinases

>  <Ligand_Instance>  (550) 
nan

>  <PDB_ID>  (550) 
nan

>  <Standardized_SMILES>  (550) 
OCCOc1cccc(CN2CCC[C@@H](Nc3cccc4cnccc34)C2)c1

>  <Name>  (550) 
nan

>  <Pocket>  (550) 
nan

>  <ATP_Site>  (550) 
nan

>  <Peripheral>  (550) 
nan

>  <Num_H_Atoms_ProtBoundConf>  (550) 
nan

>  <Num_Resolved_Atoms>  (550) 
nan

>  <Num_Not_Resolved_Atoms>  (550) 
nan

$$$$
CHEMBL3689499
     RDKit          3D

  0  0  0  0  0  0  0  0  0  0999 V3000
M  V30 BEGIN CTAB
M  V30 COUNTS 52 55 0 0 0
M  V30 BEGIN ATOM
M  V30 1 C 2.481648 -4.451319 2.958697 0
M  V30 2 S 3.760510 -4.967063 1.839355 0
M  V30 3 O 4.898580 -5.525976 2.668301 0
M  V30 4 O 3.226109 -6.029724 0.955577 0
M  V30 5 N 4.381736 -3.602683 0.997018 0
M  V30 6 C 3.466564 -2.888155 0.183328 0
M  V30 7 C 2.575691 -3.502166 -0.671270 0
M  V30 8 C 1.745351 -2.677846 -1.401194 0
M  V30 9 C 1.830722 -1.315778 -1.256915 0
M  V30 10 C 2.727402 -0.672893 -0.395311 0
M  V30 11 C 2.655115 0.788804 -0.406093 0
M  V30 12 N 1.694048 1.359472 0.487538 0
M  V30 13 C 1.887050 1.049609 1.864488 0
M  V30 14 C 0.504612 1.000365 2.497129 0
M  V30 15 C -0.412197 1.482456 1.364186 0 CFG=2
M  V30 16 N -1.667364 0.767672 1.370244 0
M  V30 17 C -2.695119 1.139322 0.490522 0
M  V30 18 C -2.561733 2.200219 -0.373860 0
M  V30 19 C -3.553331 2.589627 -1.260905 0
M  V30 20 C -4.751272 1.910412 -1.316237 0
M  V30 21 C -4.933379 0.838489 -0.468325 0
M  V30 22 C -6.121878 0.133487 -0.495470 0
M  V30 23 N -6.331779 -0.921031 0.321846 0
M  V30 24 C -5.353156 -1.297830 1.190436 0
M  V30 25 C -4.183555 -0.579935 1.195842 0
M  V30 26 C -3.908675 0.501485 0.390302 0
M  V30 27 C 0.374401 0.900853 0.174610 0
M  V30 28 C 3.543525 -1.516727 0.320044 0
M  V30 29 H 2.662781 -3.410709 3.317868 0
M  V30 30 H 2.404846 -5.194399 3.781105 0
M  V30 31 H 1.520177 -4.499136 2.407543 0
M  V30 32 H 5.384998 -3.279209 1.054391 0
M  V30 33 H 2.557119 -4.564356 -0.739133 0
M  V30 34 H 1.040494 -3.141041 -2.076443 0
M  V30 35 H 1.124650 -0.749825 -1.884049 0
M  V30 36 H 2.419045 1.158146 -1.445968 0
M  V30 37 H 3.643816 1.264138 -0.162070 0
M  V30 38 H 2.490832 1.851561 2.369757 0
M  V30 39 H 2.422510 0.097240 1.985131 0
M  V30 40 H 0.403767 1.618739 3.392186 0
M  V30 41 H 0.267034 -0.066593 2.650878 0
M  V30 42 H -0.488970 2.563739 1.312506 0
M  V30 43 H -1.723252 -0.000990 2.051554 0
M  V30 44 H -1.701067 2.817334 -0.437928 0
M  V30 45 H -3.468473 3.418544 -1.947218 0
M  V30 46 H -5.535407 2.196044 -1.997995 0
M  V30 47 H -6.907883 0.410386 -1.170352 0
M  V30 48 H -5.540715 -2.144947 1.836644 0
M  V30 49 H -3.464501 -0.941898 1.909284 0
M  V30 50 H -0.025499 1.197937 -0.785471 0
M  V30 51 H 0.358045 -0.191555 0.357935 0
M  V30 52 H 4.240366 -1.018837 0.979647 0
M  V30 END ATOM
M  V30 BEGIN BOND
M  V30 1 1 1 2
M  V30 2 2 2 3
M  V30 3 2 2 4
M  V30 4 1 2 5
M  V30 5 1 5 6
M  V30 6 2 6 7
M  V30 7 1 7 8
M  V30 8 2 8 9
M  V30 9 1 9 10
M  V30 10 1 10 11
M  V30 11 1 11 12
M  V30 12 1 12 13
M  V30 13 1 13 14
M  V30 14 1 14 15
M  V30 15 1 15 16
M  V30 16 1 16 17
M  V30 17 2 17 18
M  V30 18 1 18 19
M  V30 19 2 19 20
M  V30 20 1 20 21
M  V30 21 2 21 22
M  V30 22 1 22 23
M  V30 23 2 23 24
M  V30 24 1 24 25
M  V30 25 2 25 26
M  V30 26 1 15 27
M  V30 27 2 10 28
M  V30 28 1 28 6
M  V30 29 1 27 12
M  V30 30 1 26 17
M  V30 31 1 26 21
M  V30 32 1 1 29
M  V30 33 1 1 30
M  V30 34 1 1 31
M  V30 35 1 5 32
M  V30 36 1 7 33
M  V30 37 1 8 34
M  V30 38 1 9 35
M  V30 39 1 11 36
M  V30 40 1 11 37
M  V30 41 1 13 38
M  V30 42 1 13 39
M  V30 43 1 14 40
M  V30 44 1 14 41
M  V30 45 1 15 42 CFG=3
M  V30 46 1 16 43
M  V30 47 1 18 44
M  V30 48 1 19 45
M  V30 49 1 20 46
M  V30 50 1 22 47
M  V30 51 1 24 48
M  V30 52 1 25 49
M  V30 53 1 27 50
M  V30 54 1 27 51
M  V30 55 1 28 52
M  V30 END BOND
M  V30 END CTAB
M  END
>  <Dataset>  (551) 
ChEMBL_Kinases

>  <Ligand_Instance>  (551) 
nan

>  <PDB_ID>  (551) 
nan

>  <Standardized_SMILES>  (551) 
CS(=O)(=O)Nc1cccc(CN2CC[C@H](Nc3cccc4cnccc34)C2)c1

>  <Name>  (551) 
nan

>  <Pocket>  (551) 
nan

>  <ATP_Site>  (551) 
nan

>  <Peripheral>  (551) 
nan

>  <Num_H_Atoms_ProtBoundConf>  (551) 
nan

>  <Num_Resolved_Atoms>  (551) 
nan

>  <Num_Not_Resolved_Atoms>  (551) 
nan

$$$$
CHEMBL3689500
     RDKit          3D

  0  0  0  0  0  0  0  0  0  0999 V3000
M  V30 BEGIN CTAB
M  V30 COUNTS 55 58 0 0 0
M  V30 BEGIN ATOM
M  V30 1 O 0.691959 -2.754444 4.774016 0
M  V30 2 C 1.614156 -2.262003 3.822356 0
M  V30 3 C 2.623786 -1.393338 4.483253 0
M  V30 4 O 3.544371 -0.894564 3.573434 0
M  V30 5 C 3.390379 -0.078903 2.498829 0
M  V30 6 C 4.669960 0.076145 1.936664 0
M  V30 7 C 4.888127 0.865423 0.797525 0
M  V30 8 C 3.809878 1.508445 0.213814 0
M  V30 9 C 2.540830 1.377574 0.740467 0
M  V30 10 C 1.289421 1.996191 0.237558 0
M  V30 11 N 0.555432 1.271959 -0.703611 0
M  V30 12 C 1.143947 0.930278 -1.942303 0
M  V30 13 C 0.230078 1.241992 -3.106516 0
M  V30 14 C -1.222849 0.995737 -2.822894 0
M  V30 15 C -1.237175 0.002635 -1.634196 0 CFG=2
M  V30 16 N -2.496983 -0.576260 -1.381342 0
M  V30 17 C -3.344561 -1.491449 -0.716482 0
M  V30 18 C -4.718912 -1.526404 -0.941072 0
M  V30 19 C -5.528450 -2.420498 -0.294016 0
M  V30 20 C -4.934368 -3.285612 0.588127 0
M  V30 21 C -3.591460 -3.333803 0.880227 0
M  V30 22 C -3.099244 -4.249294 1.779341 0
M  V30 23 N -1.780467 -4.259572 2.022959 0
M  V30 24 C -0.944138 -3.383570 1.394774 0
M  V30 25 C -1.493548 -2.499747 0.513824 0
M  V30 26 C -2.831053 -2.397560 0.186366 0
M  V30 27 C -0.778996 0.912197 -0.465496 0
M  V30 28 C 2.391853 0.590106 1.858253 0
M  V30 29 H -0.003726 -2.051807 4.977451 0
M  V30 30 H 2.121133 -3.175093 3.402962 0
M  V30 31 H 1.077381 -1.722151 3.044682 0
M  V30 32 H 3.159528 -1.912489 5.313906 0
M  V30 33 H 2.077495 -0.505635 4.912917 0
M  V30 34 H 5.644131 -0.336158 2.233297 0
M  V30 35 H 5.801268 1.054184 0.289476 0
M  V30 36 H 3.883553 2.135619 -0.663242 0
M  V30 37 H 1.561847 2.981729 -0.244224 0
M  V30 38 H 0.633887 2.269668 1.089708 0
M  V30 39 H 1.523636 -0.117895 -1.968664 0
M  V30 40 H 2.042417 1.590622 -2.097941 0
M  V30 41 H 0.514735 0.550187 -3.942239 0
M  V30 42 H 0.408349 2.261699 -3.506441 0
M  V30 43 H -1.793426 0.576291 -3.673732 0
M  V30 44 H -1.752416 1.925370 -2.530669 0
M  V30 45 H -0.435582 -0.722773 -1.904812 0
M  V30 46 H -3.073500 -0.011276 -2.037573 0
M  V30 47 H -5.192501 -0.834278 -1.646646 0
M  V30 48 H -6.584128 -2.393219 -0.514550 0
M  V30 49 H -5.610587 -3.968586 1.072061 0
M  V30 50 H -3.727712 -4.949300 2.287796 0
M  V30 51 H 0.101063 -3.440064 1.629930 0
M  V30 52 H -0.786070 -1.848671 0.051081 0
M  V30 53 H -1.059456 0.461994 0.474146 0
M  V30 54 H -1.412352 1.838842 -0.580302 0
M  V30 55 H 1.444142 0.440592 2.345007 0
M  V30 END ATOM
M  V30 BEGIN BOND
M  V30 1 1 1 2
M  V30 2 1 2 3
M  V30 3 1 3 4
M  V30 4 1 4 5
M  V30 5 2 5 6
M  V30 6 1 6 7
M  V30 7 2 7 8
M  V30 8 1 8 9
M  V30 9 1 9 10
M  V30 10 1 10 11
M  V30 11 1 11 12
M  V30 12 1 12 13
M  V30 13 1 13 14
M  V30 14 1 14 15
M  V30 15 1 15 16
M  V30 16 1 16 17
M  V30 17 2 17 18
M  V30 18 1 18 19
M  V30 19 2 19 20
M  V30 20 1 20 21
M  V30 21 2 21 22
M  V30 22 1 22 23
M  V30 23 2 23 24
M  V30 24 1 24 25
M  V30 25 2 25 26
M  V30 26 1 15 27
M  V30 27 2 9 28
M  V30 28 1 28 5
M  V30 29 1 27 11
M  V30 30 1 26 17
M  V30 31 1 26 21
M  V30 32 1 1 29
M  V30 33 1 2 30
M  V30 34 1 2 31
M  V30 35 1 3 32
M  V30 36 1 3 33
M  V30 37 1 6 34
M  V30 38 1 7 35
M  V30 39 1 8 36
M  V30 40 1 10 37
M  V30 41 1 10 38
M  V30 42 1 12 39
M  V30 43 1 12 40
M  V30 44 1 13 41
M  V30 45 1 13 42
M  V30 46 1 14 43
M  V30 47 1 14 44
M  V30 48 1 15 45 CFG=3
M  V30 49 1 16 46
M  V30 50 1 18 47
M  V30 51 1 19 48
M  V30 52 1 20 49
M  V30 53 1 22 50
M  V30 54 1 24 51
M  V30 55 1 25 52
M  V30 56 1 27 53
M  V30 57 1 27 54
M  V30 58 1 28 55
M  V30 END BOND
M  V30 END CTAB
M  END
>  <Dataset>  (552) 
ChEMBL_Kinases

>  <Ligand_Instance>  (552) 
nan

>  <PDB_ID>  (552) 
nan

>  <Standardized_SMILES>  (552) 
OCCOc1cccc(CN2CCC[C@H](Nc3cccc4cnccc34)C2)c1

>  <Name>  (552) 
nan

>  <Pocket>  (552) 
nan

>  <ATP_Site>  (552) 
nan

>  <Peripheral>  (552) 
nan

>  <Num_H_Atoms_ProtBoundConf>  (552) 
nan

>  <Num_Resolved_Atoms>  (552) 
nan

>  <Num_Not_Resolved_Atoms>  (552) 
nan

$$$$
CHEMBL3689501
     RDKit          3D

  0  0  0  0  0  0  0  0  0  0999 V3000
M  V30 BEGIN CTAB
M  V30 COUNTS 55 58 0 0 0
M  V30 BEGIN ATOM
M  V30 1 C 3.013930 -0.644296 4.882623 0
M  V30 2 S 4.661208 -0.916410 4.301636 0
M  V30 3 O 5.627908 -0.570230 5.410101 0
M  V30 4 O 4.834060 -2.366129 4.009636 0
M  V30 5 N 5.053474 0.028727 2.915691 0
M  V30 6 C 4.366963 -0.082699 1.675745 0
M  V30 7 C 5.132350 -0.129053 0.529642 0
M  V30 8 C 4.609870 -0.234956 -0.731421 0
M  V30 9 C 3.226843 -0.295281 -0.801836 0
M  V30 10 C 2.416900 -0.251611 0.330174 0
M  V30 11 C 0.952795 -0.326037 0.095988 0
M  V30 12 N 0.325292 0.924037 -0.081266 0
M  V30 13 C 0.380453 1.872945 0.963625 0
M  V30 14 C -0.432681 1.474631 2.164858 0
M  V30 15 C -1.607168 0.638325 1.873987 0
M  V30 16 C -2.063990 0.516204 0.458875 0 CFG=2
M  V30 17 N -2.616873 -0.805775 0.175120 0
M  V30 18 C -3.243523 -1.163523 -1.031938 0
M  V30 19 C -3.446627 -0.299126 -2.080712 0
M  V30 20 C -4.047116 -0.636782 -3.272432 0
M  V30 21 C -4.490095 -1.922453 -3.466697 0
M  V30 22 C -4.307183 -2.822694 -2.440657 0
M  V30 23 C -4.755441 -4.106152 -2.648942 0
M  V30 24 N -4.621180 -5.058572 -1.703546 0
M  V30 25 C -4.028113 -4.739804 -0.516844 0
M  V30 26 C -3.585189 -3.431495 -0.337865 0
M  V30 27 C -3.694757 -2.434808 -1.254400 0
M  V30 28 C -1.008937 0.823538 -0.562097 0
M  V30 29 C 3.015471 -0.144296 1.566735 0
M  V30 30 H 2.979589 -0.838902 5.995184 0
M  V30 31 H 2.290229 -1.374391 4.465746 0
M  V30 32 H 2.650009 0.379059 4.764922 0
M  V30 33 H 5.824301 0.730199 2.938831 0
M  V30 34 H 6.217378 -0.080848 0.599805 0
M  V30 35 H 5.188316 -0.272986 -1.640545 0
M  V30 36 H 2.788039 -0.379841 -1.795636 0
M  V30 37 H 0.726623 -0.943734 -0.808658 0
M  V30 38 H 0.470065 -0.877234 0.929192 0
M  V30 39 H -0.090287 2.812214 0.571449 0
M  V30 40 H 1.378957 2.173569 1.313044 0
M  V30 41 H 0.287240 0.962008 2.869202 0
M  V30 42 H -0.679917 2.416503 2.709057 0
M  V30 43 H -1.440630 -0.382438 2.278045 0
M  V30 44 H -2.459686 1.019993 2.514484 0
M  V30 45 H -2.897396 1.223602 0.291083 0
M  V30 46 H -2.501865 -1.469435 0.963795 0
M  V30 47 H -3.147757 0.726997 -2.030932 0
M  V30 48 H -4.194222 0.071301 -4.087338 0
M  V30 49 H -4.966951 -2.233908 -4.385092 0
M  V30 50 H -5.236099 -4.395064 -3.590852 0
M  V30 51 H -3.929502 -5.517457 0.230259 0
M  V30 52 H -3.140229 -3.282902 0.611957 0
M  V30 53 H -1.237257 1.776306 -1.092892 0
M  V30 54 H -0.991218 0.031447 -1.361615 0
M  V30 55 H 2.388706 -0.111217 2.430969 0
M  V30 END ATOM
M  V30 BEGIN BOND
M  V30 1 1 1 2
M  V30 2 2 2 3
M  V30 3 2 2 4
M  V30 4 1 2 5
M  V30 5 1 5 6
M  V30 6 2 6 7
M  V30 7 1 7 8
M  V30 8 2 8 9
M  V30 9 1 9 10
M  V30 10 1 10 11
M  V30 11 1 11 12
M  V30 12 1 12 13
M  V30 13 1 13 14
M  V30 14 1 14 15
M  V30 15 1 15 16
M  V30 16 1 16 17
M  V30 17 1 17 18
M  V30 18 2 18 19
M  V30 19 1 19 20
M  V30 20 2 20 21
M  V30 21 1 21 22
M  V30 22 2 22 23
M  V30 23 1 23 24
M  V30 24 2 24 25
M  V30 25 1 25 26
M  V30 26 2 26 27
M  V30 27 1 16 28
M  V30 28 2 10 29
M  V30 29 1 29 6
M  V30 30 1 28 12
M  V30 31 1 27 18
M  V30 32 1 27 22
M  V30 33 1 1 30
M  V30 34 1 1 31
M  V30 35 1 1 32
M  V30 36 1 5 33
M  V30 37 1 7 34
M  V30 38 1 8 35
M  V30 39 1 9 36
M  V30 40 1 11 37
M  V30 41 1 11 38
M  V30 42 1 13 39
M  V30 43 1 13 40
M  V30 44 1 14 41
M  V30 45 1 14 42
M  V30 46 1 15 43
M  V30 47 1 15 44
M  V30 48 1 16 45 CFG=1
M  V30 49 1 17 46
M  V30 50 1 19 47
M  V30 51 1 20 48
M  V30 52 1 21 49
M  V30 53 1 23 50
M  V30 54 1 25 51
M  V30 55 1 26 52
M  V30 56 1 28 53
M  V30 57 1 28 54
M  V30 58 1 29 55
M  V30 END BOND
M  V30 END CTAB
M  END
>  <Dataset>  (553) 
ChEMBL_Kinases

>  <Ligand_Instance>  (553) 
nan

>  <PDB_ID>  (553) 
nan

>  <Standardized_SMILES>  (553) 
CS(=O)(=O)Nc1cccc(CN2CCC[C@H](Nc3cccc4cnccc34)C2)c1

>  <Name>  (553) 
nan

>  <Pocket>  (553) 
nan

>  <ATP_Site>  (553) 
nan

>  <Peripheral>  (553) 
nan

>  <Num_H_Atoms_ProtBoundConf>  (553) 
nan

>  <Num_Resolved_Atoms>  (553) 
nan

>  <Num_Not_Resolved_Atoms>  (553) 
nan

$$$$
CHEMBL3689502
     RDKit          3D

  0  0  0  0  0  0  0  0  0  0999 V3000
M  V30 BEGIN CTAB
M  V30 COUNTS 52 55 0 0 0
M  V30 BEGIN ATOM
M  V30 1 C 0.123166 -4.249612 1.428008 0
M  V30 2 S 1.844743 -4.570131 1.287149 0
M  V30 3 O 2.067138 -6.042603 1.494952 0
M  V30 4 O 2.597588 -3.870667 2.382998 0
M  V30 5 N 2.479998 -4.202058 -0.266905 0
M  V30 6 C 2.516955 -2.943565 -0.927622 0
M  V30 7 C 2.173382 -2.775475 -2.273794 0
M  V30 8 C 2.241907 -1.513976 -2.827074 0
M  V30 9 C 2.640907 -0.426174 -2.077844 0
M  V30 10 C 2.991661 -0.558409 -0.728312 0
M  V30 11 C 3.402508 0.658095 -0.027889 0
M  V30 12 N 2.380500 1.416492 0.597042 0
M  V30 13 C 1.353068 1.913269 -0.281851 0
M  V30 14 C 0.330876 2.452835 0.725278 0
M  V30 15 C 0.335650 1.376630 1.783076 0 CFG=1
M  V30 16 N -0.642529 0.337194 1.542497 0
M  V30 17 C -2.024078 0.647402 1.647598 0
M  V30 18 C -2.452965 1.902550 2.019686 0
M  V30 19 C -3.779748 2.252044 2.123941 0
M  V30 20 C -4.764517 1.334207 1.853016 0
M  V30 21 C -4.384151 0.062795 1.476606 0
M  V30 22 C -5.333368 -0.910703 1.189073 0
M  V30 23 N -5.007589 -2.165170 0.817384 0
M  V30 24 C -3.685156 -2.489184 0.720452 0
M  V30 25 C -2.755657 -1.513719 1.008568 0
M  V30 26 C -3.043982 -0.239955 1.385935 0
M  V30 27 C 1.727342 0.828283 1.719104 0
M  V30 28 C 2.911208 -1.834802 -0.208866 0
M  V30 29 H -0.327958 -5.025671 2.078080 0
M  V30 30 H -0.105778 -3.285789 1.922851 0
M  V30 31 H -0.385873 -4.311676 0.449857 0
M  V30 32 H 2.928169 -4.917437 -0.913545 0
M  V30 33 H 1.868671 -3.679460 -2.799114 0
M  V30 34 H 1.962158 -1.451857 -3.875725 0
M  V30 35 H 2.645952 0.504756 -2.650980 0
M  V30 36 H 3.930713 1.329083 -0.753253 0
M  V30 37 H 4.156207 0.410950 0.761130 0
M  V30 38 H 0.913645 1.161736 -0.939095 0
M  V30 39 H 1.740906 2.821120 -0.799888 0
M  V30 40 H -0.652491 2.595758 0.228648 0
M  V30 41 H 0.699524 3.375834 1.171382 0
M  V30 42 H 0.132018 1.846787 2.797852 0
M  V30 43 H -0.270447 -0.594480 1.302345 0
M  V30 44 H -1.790029 2.713771 2.270235 0
M  V30 45 H -4.130695 3.226287 2.412371 0
M  V30 46 H -5.816208 1.573163 1.924373 0
M  V30 47 H -6.399838 -0.666647 1.262200 0
M  V30 48 H -3.456723 -3.501863 0.420435 0
M  V30 49 H -1.745733 -1.861808 0.904349 0
M  V30 50 H 2.280199 1.189077 2.636114 0
M  V30 51 H 1.767848 -0.273171 1.778104 0
M  V30 52 H 3.175247 -1.950597 0.812754 0
M  V30 END ATOM
M  V30 BEGIN BOND
M  V30 1 1 1 2
M  V30 2 2 2 3
M  V30 3 2 2 4
M  V30 4 1 2 5
M  V30 5 1 5 6
M  V30 6 2 6 7
M  V30 7 1 7 8
M  V30 8 2 8 9
M  V30 9 1 9 10
M  V30 10 1 10 11
M  V30 11 1 11 12
M  V30 12 1 12 13
M  V30 13 1 13 14
M  V30 14 1 14 15
M  V30 15 1 15 16
M  V30 16 1 16 17
M  V30 17 2 17 18
M  V30 18 1 18 19
M  V30 19 2 19 20
M  V30 20 1 20 21
M  V30 21 2 21 22
M  V30 22 1 22 23
M  V30 23 2 23 24
M  V30 24 1 24 25
M  V30 25 2 25 26
M  V30 26 1 15 27
M  V30 27 2 10 28
M  V30 28 1 28 6
M  V30 29 1 27 12
M  V30 30 1 26 17
M  V30 31 1 26 21
M  V30 32 1 1 29
M  V30 33 1 1 30
M  V30 34 1 1 31
M  V30 35 1 5 32
M  V30 36 1 7 33
M  V30 37 1 8 34
M  V30 38 1 9 35
M  V30 39 1 11 36
M  V30 40 1 11 37
M  V30 41 1 13 38
M  V30 42 1 13 39
M  V30 43 1 14 40
M  V30 44 1 14 41
M  V30 45 1 15 42 CFG=1
M  V30 46 1 16 43
M  V30 47 1 18 44
M  V30 48 1 19 45
M  V30 49 1 20 46
M  V30 50 1 22 47
M  V30 51 1 24 48
M  V30 52 1 25 49
M  V30 53 1 27 50
M  V30 54 1 27 51
M  V30 55 1 28 52
M  V30 END BOND
M  V30 END CTAB
M  END
>  <Dataset>  (554) 
ChEMBL_Kinases

>  <Ligand_Instance>  (554) 
nan

>  <PDB_ID>  (554) 
nan

>  <Standardized_SMILES>  (554) 
CS(=O)(=O)Nc1cccc(CN2CC[C@@H](Nc3cccc4cnccc34)C2)c1

>  <Name>  (554) 
nan

>  <Pocket>  (554) 
nan

>  <ATP_Site>  (554) 
nan

>  <Peripheral>  (554) 
nan

>  <Num_H_Atoms_ProtBoundConf>  (554) 
nan

>  <Num_Resolved_Atoms>  (554) 
nan

>  <Num_Not_Resolved_Atoms>  (554) 
nan

$$$$
CHEMBL3689504
     RDKit          3D

  0  0  0  0  0  0  0  0  0  0999 V3000
M  V30 BEGIN CTAB
M  V30 COUNTS 52 55 0 0 0
M  V30 BEGIN ATOM
M  V30 1 N 1.399635 -4.771465 2.189314 0
M  V30 2 C 1.278514 -3.990025 0.982098 0
M  V30 3 O 0.399087 -3.457865 1.699453 0
M  V30 4 C 2.285516 -4.530364 0.033107 0
M  V30 5 O 2.269835 -3.849074 -1.198133 0
M  V30 6 C 2.502394 -2.511377 -1.390755 0
M  V30 7 C 2.422015 -2.103335 -2.725305 0
M  V30 8 C 2.636448 -0.765527 -3.071344 0
M  V30 9 C 2.928395 0.121425 -2.039699 0
M  V30 10 C 3.018717 -0.234808 -0.704179 0
M  V30 11 C 3.330287 0.736217 0.340629 0
M  V30 12 N 2.238963 1.405014 0.948784 0
M  V30 13 C 1.397671 2.180857 0.110787 0
M  V30 14 C 0.065555 2.275223 0.819421 0
M  V30 15 C 0.042108 1.201039 1.838856 0 CFG=1
M  V30 16 N -0.921888 0.137266 1.589397 0
M  V30 17 C -2.289539 0.426932 1.584387 0
M  V30 18 C -2.750889 1.701366 1.834965 0
M  V30 19 C -4.073874 2.046144 1.838533 0
M  V30 20 C -5.045697 1.090668 1.580377 0
M  V30 21 C -4.638300 -0.205549 1.322488 0
M  V30 22 C -5.577812 -1.194698 1.058649 0
M  V30 23 N -5.194189 -2.438859 0.810339 0
M  V30 24 C -3.875458 -2.794000 0.804207 0
M  V30 25 C -2.958267 -1.789983 1.070125 0
M  V30 26 C -3.285453 -0.486851 1.334062 0
M  V30 27 C 1.450598 0.684228 1.879727 0
M  V30 28 C 2.796672 -1.567603 -0.429666 0
M  V30 29 H 1.445661 -5.367799 3.066301 0
M  V30 30 H 1.846601 -5.107691 3.084082 0
M  V30 31 H 2.034178 -5.592393 -0.159802 0
M  V30 32 H 3.306010 -4.529246 0.493986 0
M  V30 33 H 2.193891 -2.788612 -3.546466 0
M  V30 34 H 2.576167 -0.443753 -4.100471 0
M  V30 35 H 3.084907 1.136112 -2.365112 0
M  V30 36 H 4.009847 1.535518 -0.076958 0
M  V30 37 H 3.951558 0.208576 1.099423 0
M  V30 38 H 1.288124 1.765949 -0.912828 0
M  V30 39 H 1.848031 3.188663 -0.016513 0
M  V30 40 H -0.783074 2.278397 0.106718 0
M  V30 41 H 0.049069 3.266430 1.332202 0
M  V30 42 H -0.194323 1.604526 2.872761 0
M  V30 43 H -0.499737 -0.799303 1.426757 0
M  V30 44 H -2.112033 2.543679 2.056137 0
M  V30 45 H -4.472280 3.022681 2.027957 0
M  V30 46 H -6.099768 1.313544 1.572191 0
M  V30 47 H -6.632278 -0.969147 1.051362 0
M  V30 48 H -3.594796 -3.819256 0.597896 0
M  V30 49 H -1.945163 -2.119391 1.053099 0
M  V30 50 H 1.449792 -0.421062 1.753180 0
M  V30 51 H 1.922739 0.843620 2.894709 0
M  V30 52 H 2.840176 -1.961580 0.562454 0
M  V30 END ATOM
M  V30 BEGIN BOND
M  V30 1 1 1 2
M  V30 2 2 2 3
M  V30 3 1 2 4
M  V30 4 1 4 5
M  V30 5 1 5 6
M  V30 6 2 6 7
M  V30 7 1 7 8
M  V30 8 2 8 9
M  V30 9 1 9 10
M  V30 10 1 10 11
M  V30 11 1 11 12
M  V30 12 1 12 13
M  V30 13 1 13 14
M  V30 14 1 14 15
M  V30 15 1 15 16
M  V30 16 1 16 17
M  V30 17 2 17 18
M  V30 18 1 18 19
M  V30 19 2 19 20
M  V30 20 1 20 21
M  V30 21 2 21 22
M  V30 22 1 22 23
M  V30 23 2 23 24
M  V30 24 1 24 25
M  V30 25 2 25 26
M  V30 26 1 15 27
M  V30 27 2 10 28
M  V30 28 1 28 6
M  V30 29 1 27 12
M  V30 30 1 26 17
M  V30 31 1 26 21
M  V30 32 1 1 29
M  V30 33 1 1 30
M  V30 34 1 4 31
M  V30 35 1 4 32
M  V30 36 1 7 33
M  V30 37 1 8 34
M  V30 38 1 9 35
M  V30 39 1 11 36
M  V30 40 1 11 37
M  V30 41 1 13 38
M  V30 42 1 13 39
M  V30 43 1 14 40
M  V30 44 1 14 41
M  V30 45 1 15 42 CFG=1
M  V30 46 1 16 43
M  V30 47 1 18 44
M  V30 48 1 19 45
M  V30 49 1 20 46
M  V30 50 1 22 47
M  V30 51 1 24 48
M  V30 52 1 25 49
M  V30 53 1 27 50
M  V30 54 1 27 51
M  V30 55 1 28 52
M  V30 END BOND
M  V30 END CTAB
M  END
>  <Dataset>  (555) 
ChEMBL_Kinases

>  <Ligand_Instance>  (555) 
nan

>  <PDB_ID>  (555) 
nan

>  <Standardized_SMILES>  (555) 
NC(=O)COc1cccc(CN2CC[C@@H](Nc3cccc4cnccc34)C2)c1

>  <Name>  (555) 
nan

>  <Pocket>  (555) 
nan

>  <ATP_Site>  (555) 
nan

>  <Peripheral>  (555) 
nan

>  <Num_H_Atoms_ProtBoundConf>  (555) 
nan

>  <Num_Resolved_Atoms>  (555) 
nan

>  <Num_Not_Resolved_Atoms>  (555) 
nan

$$$$
CHEMBL3691552
     RDKit          3D

  0  0  0  0  0  0  0  0  0  0999 V3000
M  V30 BEGIN CTAB
M  V30 COUNTS 68 73 0 0 0
M  V30 BEGIN ATOM
M  V30 1 C 3.410264 -1.607034 6.563216 0
M  V30 2 N 2.951077 -0.787929 5.428701 0
M  V30 3 C 1.756579 -0.009386 5.720986 0
M  V30 4 C 3.728998 -0.864398 4.212428 0
M  V30 5 O 4.695279 -1.651521 4.360712 0
M  V30 6 C 3.129435 0.005980 3.204705 0
M  V30 7 C 3.587520 1.305289 3.144193 0
M  V30 8 C 2.826359 1.867601 2.115872 0
M  V30 9 C 2.887006 3.180694 1.645802 0
M  V30 10 N 2.048725 3.504260 0.647788 0
M  V30 11 C 1.198992 2.595137 0.137612 0
M  V30 12 N 0.303139 2.971760 -0.929420 0
M  V30 13 C -0.636199 2.139528 -1.561725 0
M  V30 14 C -1.460038 2.567024 -2.554503 0
M  V30 15 C -2.383767 1.764768 -3.185222 0
M  V30 16 C -2.523656 0.434507 -2.825681 0
M  V30 17 C -3.448144 -0.529314 -3.400141 0
M  V30 18 O -4.330131 -1.248576 -2.907256 0
M  V30 19 N -3.451274 -0.801839 -4.795270 0
M  V30 20 C -4.326664 -1.737411 -5.422213 0
M  V30 21 C -5.046289 -1.120047 -6.602465 0
M  V30 22 C -5.663507 0.202270 -6.163866 0
M  V30 23 N -4.556124 1.116730 -6.081303 0
M  V30 24 C -3.439401 0.536422 -6.773447 0
M  V30 25 C -4.015484 -0.612353 -7.610436 0
M  V30 26 C -2.557349 -0.156898 -5.750206 0
M  V30 27 C -1.672217 0.013973 -1.807739 0
M  V30 28 N -0.791377 0.847421 -1.232512 0
M  V30 29 N 1.189574 1.348045 0.633229 0
M  V30 30 C 1.976940 0.902260 1.628410 0
M  V30 31 N 2.166194 -0.255813 2.305299 0
M  V30 32 C 1.449225 -1.465126 2.062352 0
M  V30 33 C 2.078530 -2.729101 2.512200 0
M  V30 34 C 3.150992 -3.011892 1.525113 0
M  V30 35 C 2.720833 -2.283821 0.253759 0
M  V30 36 C 1.345808 -1.729726 0.565055 0
M  V30 37 H 4.415147 -1.985449 6.390010 0
M  V30 38 H 2.683559 -2.440435 6.746675 0
M  V30 39 H 3.436313 -0.903469 7.437034 0
M  V30 40 H 1.859209 0.388280 6.750936 0
M  V30 41 H 0.829233 -0.589110 5.671392 0
M  V30 42 H 1.724672 0.914263 5.075104 0
M  V30 43 H 4.342345 1.829534 3.715974 0
M  V30 44 H 3.567708 3.913929 2.053098 0
M  V30 45 H 0.355279 3.973301 -1.273671 0
M  V30 46 H -1.405969 3.611766 -2.892448 0
M  V30 47 H -3.023618 2.118751 -3.962052 0
M  V30 48 H -3.771705 -2.609629 -5.832659 0
M  V30 49 H -5.068343 -2.116822 -4.695422 0
M  V30 50 H -5.766267 -1.801058 -7.057349 0
M  V30 51 H -6.307898 0.536433 -7.020785 0
M  V30 52 H -6.235173 0.091311 -5.232579 0
M  V30 53 H -4.843668 2.038494 -6.486566 0
M  V30 54 H -2.882939 1.261676 -7.401058 0
M  V30 55 H -4.526696 -0.170920 -8.482160 0
M  V30 56 H -3.261271 -1.359199 -7.858580 0
M  V30 57 H -1.831333 0.520350 -5.282059 0
M  V30 58 H -2.014321 -0.990423 -6.280545 0
M  V30 59 H -1.710092 -1.024884 -1.454679 0
M  V30 60 H 0.425091 -1.305933 2.483360 0
M  V30 61 H 1.297696 -3.527697 2.377251 0
M  V30 62 H 2.355457 -2.798874 3.574395 0
M  V30 63 H 4.110075 -2.641981 1.889367 0
M  V30 64 H 3.179267 -4.107658 1.301925 0
M  V30 65 H 2.682861 -2.967373 -0.612378 0
M  V30 66 H 3.428873 -1.457640 0.099026 0
M  V30 67 H 1.042163 -0.884931 -0.033643 0
M  V30 68 H 0.593568 -2.541224 0.363908 0
M  V30 END ATOM
M  V30 BEGIN BOND
M  V30 1 1 1 2
M  V30 2 1 2 3
M  V30 3 1 2 4
M  V30 4 2 4 5
M  V30 5 1 4 6
M  V30 6 2 6 7
M  V30 7 1 7 8
M  V30 8 2 8 9
M  V30 9 1 9 10
M  V30 10 2 10 11
M  V30 11 1 11 12
M  V30 12 1 12 13
M  V30 13 2 13 14
M  V30 14 1 14 15
M  V30 15 2 15 16
M  V30 16 1 16 17
M  V30 17 2 17 18
M  V30 18 1 17 19
M  V30 19 1 19 20
M  V30 20 1 20 21
M  V30 21 1 21 22
M  V30 22 1 22 23
M  V30 23 1 23 24
M  V30 24 1 24 25
M  V30 25 1 24 26
M  V30 26 1 16 27
M  V30 27 2 27 28
M  V30 28 1 11 29
M  V30 29 2 29 30
M  V30 30 1 30 31
M  V30 31 1 31 32
M  V30 32 1 32 33
M  V30 33 1 33 34
M  V30 34 1 34 35
M  V30 35 1 35 36
M  V30 36 1 31 6
M  V30 37 1 36 32
M  V30 38 1 30 8
M  V30 39 1 28 13
M  V30 40 1 26 19
M  V30 41 1 25 21
M  V30 42 1 1 37
M  V30 43 1 1 38
M  V30 44 1 1 39
M  V30 45 1 3 40
M  V30 46 1 3 41
M  V30 47 1 3 42
M  V30 48 1 7 43
M  V30 49 1 9 44
M  V30 50 1 12 45
M  V30 51 1 14 46
M  V30 52 1 15 47
M  V30 53 1 20 48
M  V30 54 1 20 49
M  V30 55 1 21 50
M  V30 56 1 22 51
M  V30 57 1 22 52
M  V30 58 1 23 53
M  V30 59 1 24 54
M  V30 60 1 25 55
M  V30 61 1 25 56
M  V30 62 1 26 57
M  V30 63 1 26 58
M  V30 64 1 27 59
M  V30 65 1 32 60
M  V30 66 1 33 61
M  V30 67 1 33 62
M  V30 68 1 34 63
M  V30 69 1 34 64
M  V30 70 1 35 65
M  V30 71 1 35 66
M  V30 72 1 36 67
M  V30 73 1 36 68
M  V30 END BOND
M  V30 END CTAB
M  END
>  <Dataset>  (556) 
ChEMBL_Kinases

>  <Ligand_Instance>  (556) 
nan

>  <PDB_ID>  (556) 
nan

>  <Standardized_SMILES>  (556) 
CN(C)C(=O)c1cc2cnc(Nc3ccc(C(=O)N4CC5CNC(C5)C4)cn3)nc2n1C1CCCC1

>  <Name>  (556) 
nan

>  <Pocket>  (556) 
nan

>  <ATP_Site>  (556) 
nan

>  <Peripheral>  (556) 
nan

>  <Num_H_Atoms_ProtBoundConf>  (556) 
nan

>  <Num_Resolved_Atoms>  (556) 
nan

>  <Num_Not_Resolved_Atoms>  (556) 
nan

$$$$
CHEMBL3689506
     RDKit          3D

  0  0  0  0  0  0  0  0  0  0999 V3000
M  V30 BEGIN CTAB
M  V30 COUNTS 63 67 0 0 0
M  V30 BEGIN ATOM
M  V30 1 O 3.162476 -2.981857 1.495099 0
M  V30 2 C 2.110041 -2.884766 2.178928 0
M  V30 3 C 1.463714 -1.915753 3.093679 0
M  V30 4 O 2.192823 -0.750875 3.288701 0
M  V30 5 C 2.590967 0.175514 2.365090 0
M  V30 6 C 3.319800 1.253892 2.863565 0
M  V30 7 C 3.752478 2.226301 1.981494 0
M  V30 8 C 3.475819 2.145511 0.627220 0
M  V30 9 C 2.745664 1.073676 0.097757 0
M  V30 10 C 2.470756 1.016078 -1.334693 0
M  V30 11 N 1.290336 1.625624 -1.804205 0
M  V30 12 C 1.143821 3.030927 -1.571516 0
M  V30 13 C -0.331969 3.258119 -1.805002 0
M  V30 14 C -0.914397 2.060421 -1.046886 0 CFG=1
M  V30 15 N -2.263833 1.755498 -1.350160 0
M  V30 16 C -3.467756 1.055012 -1.174901 0
M  V30 17 C -4.593771 1.272336 -1.978193 0
M  V30 18 C -5.757077 0.582003 -1.787939 0
M  V30 19 C -5.780644 -0.337954 -0.773668 0
M  V30 20 C -4.754196 -0.633937 0.068439 0
M  V30 21 C -4.888105 -1.569576 1.053911 0
M  V30 22 N -3.857813 -1.820712 1.857707 0
M  V30 23 C -2.708942 -1.163204 1.698924 0
M  V30 24 C -2.575649 -0.226067 0.711233 0
M  V30 25 C -3.585451 0.095751 -0.162761 0
M  V30 26 C 0.053586 0.986581 -1.520463 0
M  V30 27 C 2.331655 0.124000 1.010057 0
M  V30 28 N 1.404059 -4.097339 1.942403 0
M  V30 29 C 2.056331 -5.031545 1.043479 0
M  V30 30 C 1.169166 -6.263733 0.971631 0
M  V30 31 O -0.126332 -5.997567 0.609588 0
M  V30 32 C -0.711264 -4.933672 1.253754 0
M  V30 33 C 0.121026 -4.555304 2.461708 0
M  V30 34 H 0.443220 -1.661029 2.742550 0
M  V30 35 H 1.341799 -2.393843 4.089156 0
M  V30 36 H 3.576731 1.390845 3.901754 0
M  V30 37 H 4.317723 3.075308 2.323173 0
M  V30 38 H 3.830686 2.924471 -0.031149 0
M  V30 39 H 2.510314 -0.019736 -1.746907 0
M  V30 40 H 3.331629 1.534886 -1.850752 0
M  V30 41 H 1.431603 3.378916 -0.581514 0
M  V30 42 H 1.749977 3.573203 -2.313445 0
M  V30 43 H -0.531223 3.098670 -2.874333 0
M  V30 44 H -0.700142 4.207184 -1.415047 0
M  V30 45 H -0.804359 2.295108 0.020671 0
M  V30 46 H -2.396034 2.435862 -2.126790 0
M  V30 47 H -4.562244 2.013333 -2.788877 0
M  V30 48 H -6.573272 0.796254 -2.433603 0
M  V30 49 H -6.713564 -0.857592 -0.659460 0
M  V30 50 H -5.852142 -2.066372 1.125567 0
M  V30 51 H -1.916211 -1.416718 2.385679 0
M  V30 52 H -1.647207 0.263180 0.641335 0
M  V30 53 H -0.358307 0.632137 -2.509745 0
M  V30 54 H 0.111130 0.107991 -0.889840 0
M  V30 55 H 1.765258 -0.726259 0.666182 0
M  V30 56 H 2.114424 -4.619612 0.027368 0
M  V30 57 H 3.037261 -5.364625 1.437866 0
M  V30 58 H 1.577094 -7.015103 0.262598 0
M  V30 59 H 1.239218 -6.753922 1.981278 0
M  V30 60 H -0.668502 -4.058567 0.558020 0
M  V30 61 H -1.763494 -5.151538 1.528049 0
M  V30 62 H -0.339690 -3.719287 3.029634 0
M  V30 63 H 0.255542 -5.409095 3.156893 0
M  V30 END ATOM
M  V30 BEGIN BOND
M  V30 1 2 1 2
M  V30 2 1 2 3
M  V30 3 1 3 4
M  V30 4 1 4 5
M  V30 5 2 5 6
M  V30 6 1 6 7
M  V30 7 2 7 8
M  V30 8 1 8 9
M  V30 9 1 9 10
M  V30 10 1 10 11
M  V30 11 1 11 12
M  V30 12 1 12 13
M  V30 13 1 13 14
M  V30 14 1 14 15
M  V30 15 1 15 16
M  V30 16 2 16 17
M  V30 17 1 17 18
M  V30 18 2 18 19
M  V30 19 1 19 20
M  V30 20 2 20 21
M  V30 21 1 21 22
M  V30 22 2 22 23
M  V30 23 1 23 24
M  V30 24 2 24 25
M  V30 25 1 14 26
M  V30 26 2 9 27
M  V30 27 1 2 28
M  V30 28 1 28 29
M  V30 29 1 29 30
M  V30 30 1 30 31
M  V30 31 1 31 32
M  V30 32 1 32 33
M  V30 33 1 27 5
M  V30 34 1 33 28
M  V30 35 1 26 11
M  V30 36 1 25 16
M  V30 37 1 25 20
M  V30 38 1 3 34
M  V30 39 1 3 35
M  V30 40 1 6 36
M  V30 41 1 7 37
M  V30 42 1 8 38
M  V30 43 1 10 39
M  V30 44 1 10 40
M  V30 45 1 12 41
M  V30 46 1 12 42
M  V30 47 1 13 43
M  V30 48 1 13 44
M  V30 49 1 14 45 CFG=1
M  V30 50 1 15 46
M  V30 51 1 17 47
M  V30 52 1 18 48
M  V30 53 1 19 49
M  V30 54 1 21 50
M  V30 55 1 23 51
M  V30 56 1 24 52
M  V30 57 1 26 53
M  V30 58 1 26 54
M  V30 59 1 27 55
M  V30 60 1 29 56
M  V30 61 1 29 57
M  V30 62 1 30 58
M  V30 63 1 30 59
M  V30 64 1 32 60
M  V30 65 1 32 61
M  V30 66 1 33 62
M  V30 67 1 33 63
M  V30 END BOND
M  V30 END CTAB
M  END
>  <Dataset>  (557) 
ChEMBL_Kinases

>  <Ligand_Instance>  (557) 
nan

>  <PDB_ID>  (557) 
nan

>  <Standardized_SMILES>  (557) 
O=C(COc1cccc(CN2CC[C@@H](Nc3cccc4cnccc34)C2)c1)N1CCOCC1

>  <Name>  (557) 
nan

>  <Pocket>  (557) 
nan

>  <ATP_Site>  (557) 
nan

>  <Peripheral>  (557) 
nan

>  <Num_H_Atoms_ProtBoundConf>  (557) 
nan

>  <Num_Resolved_Atoms>  (557) 
nan

>  <Num_Not_Resolved_Atoms>  (557) 
nan

$$$$
CHEMBL369094
     RDKit          3D

  0  0  0  0  0  0  0  0  0  0999 V3000
M  V30 BEGIN CTAB
M  V30 COUNTS 63 68 0 0 0
M  V30 BEGIN ATOM
M  V30 1 N 5.032610 -3.523563 7.148608 0
M  V30 2 C 4.622701 -3.076225 6.160260 0
M  V30 3 C 4.124616 -2.500380 4.930337 0
M  V30 4 C 4.662630 -2.883676 3.699549 0
M  V30 5 N 4.167770 -2.320895 2.575299 0
M  V30 6 C 3.178735 -1.407875 2.601203 0
M  V30 7 C 2.707165 -0.852888 1.332453 0
M  V30 8 C 2.797553 0.461121 0.986035 0
M  V30 9 C 2.346361 0.959678 -0.215309 0
M  V30 10 C 1.769674 0.133772 -1.142107 0
M  V30 11 C 1.210019 0.442316 -2.477334 0
M  V30 12 N -0.189653 0.672210 -2.374307 0
M  V30 13 C -0.615381 1.745162 -1.540964 0
M  V30 14 C -2.015250 1.382447 -1.022578 0
M  V30 15 C -2.867996 0.862172 -2.129486 0
M  V30 16 C -3.265247 -0.562386 -1.880737 0
M  V30 17 N -4.553332 -0.930197 -1.672283 0
M  V30 18 C -4.636818 -2.257730 -1.474453 0
M  V30 19 C -5.648997 -3.169336 -1.222254 0
M  V30 20 C -5.412595 -4.534262 -1.057683 0
M  V30 21 C -4.123038 -5.011115 -1.147066 0
M  V30 22 C -3.133745 -4.095051 -1.397030 0
M  V30 23 C -3.348310 -2.742485 -1.562477 0
M  V30 24 N -2.557437 -1.694996 -1.806618 0
M  V30 25 C -2.309426 1.005080 -3.503422 0
M  V30 26 C -0.866994 0.658365 -3.657307 0
M  V30 27 C 1.672017 -1.217701 -0.796617 0
M  V30 28 C 2.130521 -1.711630 0.418311 0
M  V30 29 C 2.615768 -0.998471 3.799717 0
M  V30 30 C 1.558269 -0.025166 3.839651 0
M  V30 31 C 1.615318 1.210719 4.451109 0
M  V30 32 C 0.582839 2.121387 4.472093 0
M  V30 33 C -0.584644 1.748549 3.827827 0
M  V30 34 C -0.722652 0.520866 3.187964 0
M  V30 35 C 0.357542 -0.354700 3.202730 0
M  V30 36 C 3.105995 -1.561945 4.977590 0
M  V30 37 H 5.448906 -3.616946 3.758795 0
M  V30 38 H 3.248737 1.138694 1.698902 0
M  V30 39 H 2.413046 1.989482 -0.514913 0
M  V30 40 H 1.774291 1.321428 -2.853690 0
M  V30 41 H 1.368729 -0.394940 -3.187523 0
M  V30 42 H -0.788177 2.668874 -2.148464 0
M  V30 43 H 0.067246 1.917581 -0.707265 0
M  V30 44 H -2.409568 2.327911 -0.574780 0
M  V30 45 H -1.915886 0.682348 -0.161978 0
M  V30 46 H -3.814898 1.462947 -2.108953 0
M  V30 47 H -6.650116 -2.778009 -1.155593 0
M  V30 48 H -6.213602 -5.234278 -0.861104 0
M  V30 49 H -3.834973 -6.046401 -1.035690 0
M  V30 50 H -2.109080 -4.437369 -1.473268 0
M  V30 51 H -1.541488 -1.730949 -1.924874 0
M  V30 52 H -2.877257 0.267252 -4.144271 0
M  V30 53 H -2.554354 2.001450 -3.961213 0
M  V30 54 H -0.702112 -0.322354 -4.135456 0
M  V30 55 H -0.393550 1.456439 -4.295055 0
M  V30 56 H 1.230945 -1.974954 -1.454354 0
M  V30 57 H 2.039278 -2.774165 0.658428 0
M  V30 58 H 2.581807 1.412630 4.933471 0
M  V30 59 H 0.719182 3.065989 4.976607 0
M  V30 60 H -1.388225 2.476348 3.853102 0
M  V30 61 H -1.641915 0.261107 2.696937 0
M  V30 62 H 0.208362 -1.314780 2.686001 0
M  V30 63 H 2.672619 -1.249072 5.925786 0
M  V30 END ATOM
M  V30 BEGIN BOND
M  V30 1 3 1 2
M  V30 2 1 2 3
M  V30 3 2 3 4
M  V30 4 1 4 5
M  V30 5 2 5 6
M  V30 6 1 6 7
M  V30 7 2 7 8
M  V30 8 1 8 9
M  V30 9 2 9 10
M  V30 10 1 10 11
M  V30 11 1 11 12
M  V30 12 1 12 13
M  V30 13 1 13 14
M  V30 14 1 14 15
M  V30 15 1 15 16
M  V30 16 2 16 17
M  V30 17 1 17 18
M  V30 18 2 18 19
M  V30 19 1 19 20
M  V30 20 2 20 21
M  V30 21 1 21 22
M  V30 22 2 22 23
M  V30 23 1 23 24
M  V30 24 1 15 25
M  V30 25 1 25 26
M  V30 26 1 10 27
M  V30 27 2 27 28
M  V30 28 1 6 29
M  V30 29 1 29 30
M  V30 30 2 30 31
M  V30 31 1 31 32
M  V30 32 2 32 33
M  V30 33 1 33 34
M  V30 34 2 34 35
M  V30 35 2 29 36
M  V30 36 1 36 3
M  V30 37 1 28 7
M  V30 38 1 35 30
M  V30 39 1 26 12
M  V30 40 1 24 16
M  V30 41 1 23 18
M  V30 42 1 4 37
M  V30 43 1 8 38
M  V30 44 1 9 39
M  V30 45 1 11 40
M  V30 46 1 11 41
M  V30 47 1 13 42
M  V30 48 1 13 43
M  V30 49 1 14 44
M  V30 50 1 14 45
M  V30 51 1 15 46
M  V30 52 1 19 47
M  V30 53 1 20 48
M  V30 54 1 21 49
M  V30 55 1 22 50
M  V30 56 1 24 51
M  V30 57 1 25 52
M  V30 58 1 25 53
M  V30 59 1 26 54
M  V30 60 1 26 55
M  V30 61 1 27 56
M  V30 62 1 28 57
M  V30 63 1 31 58
M  V30 64 1 32 59
M  V30 65 1 33 60
M  V30 66 1 34 61
M  V30 67 1 35 62
M  V30 68 1 36 63
M  V30 END BOND
M  V30 END CTAB
M  END
>  <Dataset>  (558) 
ChEMBL_Kinases

>  <Ligand_Instance>  (558) 
nan

>  <PDB_ID>  (558) 
nan

>  <Standardized_SMILES>  (558) 
N#Cc1cnc(-c2ccc(CN3CCC(c4nc5ccccc5[nH]4)CC3)cc2)c(-c2ccccc2)c1

>  <Name>  (558) 
nan

>  <Pocket>  (558) 
nan

>  <ATP_Site>  (558) 
nan

>  <Peripheral>  (558) 
nan

>  <Num_H_Atoms_ProtBoundConf>  (558) 
nan

>  <Num_Resolved_Atoms>  (558) 
nan

>  <Num_Not_Resolved_Atoms>  (558) 
nan

$$$$
CHEMBL3691544
     RDKit          3D

  0  0  0  0  0  0  0  0  0  0999 V3000
M  V30 BEGIN CTAB
M  V30 COUNTS 72 77 0 0 0
M  V30 BEGIN ATOM
M  V30 1 C 6.144176 -0.548902 4.236700 0
M  V30 2 N 5.915635 -0.966439 2.846770 0
M  V30 3 C 6.526805 -2.155117 2.243054 0
M  V30 4 C 5.071952 -0.135226 2.134991 0
M  V30 5 O 4.990660 0.568513 3.207080 0
M  V30 6 C 4.310508 0.355470 1.020282 0
M  V30 7 C 4.809834 0.241293 -0.255340 0
M  V30 8 C 3.852181 0.803680 -1.081248 0
M  V30 9 C 3.829436 0.957702 -2.449249 0
M  V30 10 N 2.718919 1.563824 -2.956414 0
M  V30 11 C 1.735005 1.965521 -2.104980 0
M  V30 12 N 0.553481 2.580882 -2.612629 0
M  V30 13 C -0.692527 1.844857 -2.633025 0
M  V30 14 C -1.911368 2.349164 -3.129241 0
M  V30 15 C -3.003987 1.521140 -3.043128 0
M  V30 16 C -3.003362 0.257612 -2.519624 0
M  V30 17 C -4.106377 -0.654440 -2.398001 0
M  V30 18 O -4.541578 -0.848374 -3.562557 0
M  V30 19 N -4.753473 -1.328297 -1.337979 0
M  V30 20 C -5.847250 -2.182869 -1.668977 0
M  V30 21 C -5.788956 -3.508720 -0.942333 0 CFG=1
M  V30 22 C -4.678544 -4.357686 -1.483657 0
M  V30 23 N -3.407098 -3.806703 -1.188633 0
M  V30 24 C -3.161058 -3.359184 0.134589 0
M  V30 25 C -4.312119 -2.588879 0.733776 0 CFG=1
M  V30 26 C -4.429160 -1.251474 0.068743 0
M  V30 27 C -5.611323 -3.342600 0.532937 0
M  V30 28 O -6.644752 -2.647990 1.120223 0
M  V30 29 C -1.785192 -0.158358 -2.060625 0
M  V30 30 N -0.651742 0.588223 -2.102637 0
M  V30 31 N 1.797607 1.795329 -0.770342 0
M  V30 32 C 2.867253 1.202821 -0.212112 0
M  V30 33 N 3.120422 0.941985 1.071428 0
M  V30 34 C 2.404485 1.162236 2.289430 0
M  V30 35 C 1.026996 1.697574 2.103744 0
M  V30 36 C 0.187750 0.509128 1.809003 0
M  V30 37 C 0.718549 -0.514872 2.788858 0
M  V30 38 C 2.148779 -0.110755 3.067268 0
M  V30 39 H 6.728423 -1.299574 4.782146 0
M  V30 40 H 5.136279 -0.547037 4.752048 0
M  V30 41 H 6.560830 0.473769 4.307812 0
M  V30 42 H 5.835176 -3.021366 2.322014 0
M  V30 43 H 7.459722 -2.456979 2.791324 0
M  V30 44 H 6.759139 -1.972464 1.177796 0
M  V30 45 H 5.735748 -0.183669 -0.604414 0
M  V30 46 H 4.663644 0.604279 -3.051369 0
M  V30 47 H 0.436920 3.544081 -3.004556 0
M  V30 48 H -1.894934 3.343807 -3.539638 0
M  V30 49 H -3.965810 1.891361 -3.424637 0
M  V30 50 H -6.806086 -1.704526 -1.365008 0
M  V30 51 H -5.939625 -2.350959 -2.759501 0
M  V30 52 H -6.752493 -4.052057 -1.086729 0
M  V30 53 H -4.791430 -5.362103 -0.999809 0
M  V30 54 H -4.738016 -4.490397 -2.589328 0
M  V30 55 H -2.981769 -3.280377 -1.951575 0
M  V30 56 H -2.878311 -4.192677 0.819379 0
M  V30 57 H -2.273891 -2.681252 0.125834 0
M  V30 58 H -4.136656 -2.483036 1.804687 0
M  V30 59 H -3.524363 -0.631503 0.211459 0
M  V30 60 H -5.310328 -0.740963 0.560431 0
M  V30 61 H -5.502400 -4.345092 0.990367 0
M  V30 62 H -6.646153 -2.738942 2.107994 0
M  V30 63 H -1.584594 -1.143540 -1.604069 0
M  V30 64 H 3.010905 1.883717 2.915669 0
M  V30 65 H 0.699612 2.060742 3.127305 0
M  V30 66 H 0.961539 2.525053 1.370834 0
M  V30 67 H 0.331023 0.070272 0.804077 0
M  V30 68 H -0.907109 0.703724 1.994585 0
M  V30 69 H 0.622025 -1.547229 2.393831 0
M  V30 70 H 0.109304 -0.406338 3.727741 0
M  V30 71 H 2.771242 -0.964528 2.728758 0
M  V30 72 H 2.294141 0.137608 4.139031 0
M  V30 END ATOM
M  V30 BEGIN BOND
M  V30 1 1 1 2
M  V30 2 1 2 3
M  V30 3 1 2 4
M  V30 4 2 4 5
M  V30 5 1 4 6
M  V30 6 2 6 7
M  V30 7 1 7 8
M  V30 8 2 8 9
M  V30 9 1 9 10
M  V30 10 2 10 11
M  V30 11 1 11 12
M  V30 12 1 12 13
M  V30 13 2 13 14
M  V30 14 1 14 15
M  V30 15 2 15 16
M  V30 16 1 16 17
M  V30 17 2 17 18
M  V30 18 1 17 19
M  V30 19 1 19 20
M  V30 20 1 20 21
M  V30 21 1 21 22
M  V30 22 1 22 23
M  V30 23 1 23 24
M  V30 24 1 24 25
M  V30 25 1 25 26
M  V30 26 1 25 27
M  V30 27 1 27 28
M  V30 28 1 16 29
M  V30 29 2 29 30
M  V30 30 1 11 31
M  V30 31 2 31 32
M  V30 32 1 32 33
M  V30 33 1 33 34
M  V30 34 1 34 35
M  V30 35 1 35 36
M  V30 36 1 36 37
M  V30 37 1 37 38
M  V30 38 1 33 6
M  V30 39 1 38 34
M  V30 40 1 32 8
M  V30 41 1 30 13
M  V30 42 1 26 19
M  V30 43 1 27 21
M  V30 44 1 1 39
M  V30 45 1 1 40
M  V30 46 1 1 41
M  V30 47 1 3 42
M  V30 48 1 3 43
M  V30 49 1 3 44
M  V30 50 1 7 45
M  V30 51 1 9 46
M  V30 52 1 12 47
M  V30 53 1 14 48
M  V30 54 1 15 49
M  V30 55 1 20 50
M  V30 56 1 20 51
M  V30 57 1 21 52 CFG=1
M  V30 58 1 22 53
M  V30 59 1 22 54
M  V30 60 1 23 55
M  V30 61 1 24 56
M  V30 62 1 24 57
M  V30 63 1 25 58 CFG=1
M  V30 64 1 26 59
M  V30 65 1 26 60
M  V30 66 1 27 61
M  V30 67 1 28 62
M  V30 68 1 29 63
M  V30 69 1 34 64
M  V30 70 1 35 65
M  V30 71 1 35 66
M  V30 72 1 36 67
M  V30 73 1 36 68
M  V30 74 1 37 69
M  V30 75 1 37 70
M  V30 76 1 38 71
M  V30 77 1 38 72
M  V30 END BOND
M  V30 END CTAB
M  END
>  <Dataset>  (559) 
ChEMBL_Kinases

>  <Ligand_Instance>  (559) 
nan

>  <PDB_ID>  (559) 
nan

>  <Standardized_SMILES>  (559) 
CN(C)C(=O)c1cc2cnc(Nc3ccc(C(=O)N4C[C@H]5CNC[C@@H](C4)C5O)cn3)nc2n1C1CCCC1

>  <Name>  (559) 
nan

>  <Pocket>  (559) 
nan

>  <ATP_Site>  (559) 
nan

>  <Peripheral>  (559) 
nan

>  <Num_H_Atoms_ProtBoundConf>  (559) 
nan

>  <Num_Resolved_Atoms>  (559) 
nan

>  <Num_Not_Resolved_Atoms>  (559) 
nan

$$$$
CHEMBL3691545
     RDKit          3D

  0  0  0  0  0  0  0  0  0  0999 V3000
M  V30 BEGIN CTAB
M  V30 COUNTS 78 83 0 0 0
M  V30 BEGIN ATOM
M  V30 1 C 5.282056 -3.963131 1.974080 0
M  V30 2 N 4.414365 -3.097969 1.206308 0
M  V30 3 C 3.239094 -2.754447 1.989010 0
M  V30 4 C 4.816000 -2.729120 -0.135932 0
M  V30 5 O 5.906735 -3.200912 -0.506553 0
M  V30 6 C 3.731395 -1.864586 -0.643387 0
M  V30 7 C 2.798341 -2.513303 -1.425196 0
M  V30 8 C 1.856011 -1.590559 -1.806925 0
M  V30 9 C 0.712861 -1.571823 -2.545642 0
M  V30 10 N 0.044408 -0.417104 -2.676344 0
M  V30 11 C 0.458903 0.754846 -2.096784 0
M  V30 12 N -0.479017 1.767375 -2.422555 0
M  V30 13 C -1.662145 1.633034 -1.600027 0
M  V30 14 C -1.794792 0.624244 -0.642459 0
M  V30 15 C -2.974236 0.540992 0.106886 0
M  V30 16 C -4.026144 1.433584 -0.072325 0
M  V30 17 C -5.151731 1.146374 0.798808 0
M  V30 18 O -5.370102 1.719790 1.903828 0
M  V30 19 N -6.017091 0.115912 0.263979 0
M  V30 20 C -5.855105 -0.584219 -0.976574 0
M  V30 21 C -6.007635 -2.073151 -0.891389 0 CFG=1
M  V30 22 C -4.891519 -2.778319 -0.172343 0
M  V30 23 N -5.381825 -3.277978 1.096734 0
M  V30 24 C -6.061887 -2.288563 1.882847 0
M  V30 25 C -7.278647 -1.779557 1.159183 0 CFG=1
M  V30 26 C -7.181075 -0.271918 1.034894 0
M  V30 27 C -7.343188 -2.393116 -0.242159 0
M  V30 28 O -7.504224 -3.772127 -0.117357 0
M  V30 29 C -3.836457 2.406497 -1.028754 0
M  V30 30 N -2.713620 2.493048 -1.746887 0
M  V30 31 N 1.589213 0.713403 -1.374072 0
M  V30 32 C 2.289449 -0.419684 -1.217920 0
M  V30 33 N 3.421703 -0.564826 -0.511744 0
M  V30 34 C 4.250447 0.313424 0.243938 0
M  V30 35 C 5.581822 0.517883 -0.487340 0
M  V30 36 C 6.758212 0.440962 0.421289 0
M  V30 37 C 6.931294 1.711567 1.215690 0
M  V30 38 C 5.659880 2.068132 1.961744 0
M  V30 39 C 4.715215 2.642920 0.953872 0
M  V30 40 C 3.669407 1.671308 0.459254 0
M  V30 41 H 6.253111 -4.059148 1.469622 0
M  V30 42 H 5.474525 -3.574643 2.990738 0
M  V30 43 H 4.749298 -4.933906 2.088206 0
M  V30 44 H 3.512372 -2.458255 3.015046 0
M  V30 45 H 2.582495 -3.666203 2.065481 0
M  V30 46 H 2.607591 -1.998345 1.467232 0
M  V30 47 H 2.673773 -3.533394 -1.769991 0
M  V30 48 H 0.383005 -2.513647 -3.008820 0
M  V30 49 H -0.472080 2.538528 -3.103340 0
M  V30 50 H -0.994045 -0.086546 -0.480125 0
M  V30 51 H -2.974631 -0.272431 0.833644 0
M  V30 52 H -6.649043 -0.244071 -1.703785 0
M  V30 53 H -4.885595 -0.350898 -1.486008 0
M  V30 54 H -6.102649 -2.491795 -1.932130 0
M  V30 55 H -4.639020 -3.712375 -0.763507 0
M  V30 56 H -3.959568 -2.191225 -0.088787 0
M  V30 57 H -4.619701 -3.739897 1.655079 0
M  V30 58 H -5.348930 -1.461420 2.070622 0
M  V30 59 H -6.329286 -2.805786 2.850227 0
M  V30 60 H -8.182632 -2.097162 1.692562 0
M  V30 61 H -8.108553 0.070599 0.542102 0
M  V30 62 H -7.140760 0.188394 2.035091 0
M  V30 63 H -8.164412 -1.940745 -0.816660 0
M  V30 64 H -6.793683 -4.207885 -0.688971 0
M  V30 65 H -4.688404 3.066253 -1.115109 0
M  V30 66 H 4.426466 -0.134123 1.246848 0
M  V30 67 H 5.589462 1.449079 -1.061247 0
M  V30 68 H 5.679524 -0.321499 -1.229613 0
M  V30 69 H 6.708119 -0.463029 1.059063 0
M  V30 70 H 7.664082 0.363842 -0.240987 0
M  V30 71 H 7.806299 1.605741 1.873646 0
M  V30 72 H 7.099327 2.522136 0.464528 0
M  V30 73 H 5.978850 2.856594 2.706560 0
M  V30 74 H 5.254443 1.236563 2.555359 0
M  V30 75 H 5.297853 3.122614 0.126545 0
M  V30 76 H 4.161082 3.500765 1.421539 0
M  V30 77 H 3.236690 2.139740 -0.459288 0
M  V30 78 H 2.853107 1.638226 1.208865 0
M  V30 END ATOM
M  V30 BEGIN BOND
M  V30 1 1 1 2
M  V30 2 1 2 3
M  V30 3 1 2 4
M  V30 4 2 4 5
M  V30 5 1 4 6
M  V30 6 2 6 7
M  V30 7 1 7 8
M  V30 8 2 8 9
M  V30 9 1 9 10
M  V30 10 2 10 11
M  V30 11 1 11 12
M  V30 12 1 12 13
M  V30 13 2 13 14
M  V30 14 1 14 15
M  V30 15 2 15 16
M  V30 16 1 16 17
M  V30 17 2 17 18
M  V30 18 1 17 19
M  V30 19 1 19 20
M  V30 20 1 20 21
M  V30 21 1 21 22
M  V30 22 1 22 23
M  V30 23 1 23 24
M  V30 24 1 24 25
M  V30 25 1 25 26
M  V30 26 1 25 27
M  V30 27 1 27 28
M  V30 28 1 16 29
M  V30 29 2 29 30
M  V30 30 1 11 31
M  V30 31 2 31 32
M  V30 32 1 32 33
M  V30 33 1 33 34
M  V30 34 1 34 35
M  V30 35 1 35 36
M  V30 36 1 36 37
M  V30 37 1 37 38
M  V30 38 1 38 39
M  V30 39 1 39 40
M  V30 40 1 33 6
M  V30 41 1 40 34
M  V30 42 1 32 8
M  V30 43 1 30 13
M  V30 44 1 26 19
M  V30 45 1 27 21
M  V30 46 1 1 41
M  V30 47 1 1 42
M  V30 48 1 1 43
M  V30 49 1 3 44
M  V30 50 1 3 45
M  V30 51 1 3 46
M  V30 52 1 7 47
M  V30 53 1 9 48
M  V30 54 1 12 49
M  V30 55 1 14 50
M  V30 56 1 15 51
M  V30 57 1 20 52
M  V30 58 1 20 53
M  V30 59 1 21 54 CFG=3
M  V30 60 1 22 55
M  V30 61 1 22 56
M  V30 62 1 23 57
M  V30 63 1 24 58
M  V30 64 1 24 59
M  V30 65 1 25 60 CFG=1
M  V30 66 1 26 61
M  V30 67 1 26 62
M  V30 68 1 27 63
M  V30 69 1 28 64
M  V30 70 1 29 65
M  V30 71 1 34 66
M  V30 72 1 35 67
M  V30 73 1 35 68
M  V30 74 1 36 69
M  V30 75 1 36 70
M  V30 76 1 37 71
M  V30 77 1 37 72
M  V30 78 1 38 73
M  V30 79 1 38 74
M  V30 80 1 39 75
M  V30 81 1 39 76
M  V30 82 1 40 77
M  V30 83 1 40 78
M  V30 END BOND
M  V30 END CTAB
M  END
>  <Dataset>  (560) 
ChEMBL_Kinases

>  <Ligand_Instance>  (560) 
nan

>  <PDB_ID>  (560) 
nan

>  <Standardized_SMILES>  (560) 
CN(C)C(=O)c1cc2cnc(Nc3ccc(C(=O)N4C[C@H]5CNC[C@@H](C4)C5O)cn3)nc2n1C1CCCCCC1

>  <Name>  (560) 
nan

>  <Pocket>  (560) 
nan

>  <ATP_Site>  (560) 
nan

>  <Peripheral>  (560) 
nan

>  <Num_H_Atoms_ProtBoundConf>  (560) 
nan

>  <Num_Resolved_Atoms>  (560) 
nan

>  <Num_Not_Resolved_Atoms>  (560) 
nan

$$$$
CHEMBL3691548
     RDKit          3D

  0  0  0  0  0  0  0  0  0  0999 V3000
M  V30 BEGIN CTAB
M  V30 COUNTS 77 82 0 0 0
M  V30 BEGIN ATOM
M  V30 1 C 0.567216 5.001088 -5.305359 0
M  V30 2 N 1.623481 4.054209 -4.948004 0
M  V30 3 C 2.997674 4.307279 -5.364912 0
M  V30 4 C 1.385921 2.847915 -4.187704 0
M  V30 5 O 2.345400 2.054759 -3.906898 0
M  V30 6 C 0.139422 2.357748 -3.653807 0
M  V30 7 C -0.803515 1.917201 -4.589065 0
M  V30 8 C -1.897259 1.493120 -3.912776 0
M  V30 9 C -3.131276 0.957270 -4.217249 0
M  V30 10 N -4.044093 0.617005 -3.285431 0
M  V30 11 C -3.760139 0.800123 -1.979065 0
M  V30 12 N -4.448761 0.550668 -0.757327 0
M  V30 13 C -4.062188 -0.705662 -0.157571 0
M  V30 14 C -3.124347 -1.544316 -0.773095 0
M  V30 15 C -2.764583 -2.743511 -0.151548 0
M  V30 16 C -3.313461 -3.117008 1.054651 0
M  V30 17 C -2.838344 -4.380703 1.570568 0
M  V30 18 O -3.799753 -5.157505 1.684159 0
M  V30 19 N -1.421467 -4.455426 1.826810 0
M  V30 20 C -0.480337 -3.373837 1.603358 0
M  V30 21 C 0.522907 -3.285042 2.741685 0
M  V30 22 C 1.323690 -4.542890 2.820804 0
M  V30 23 C 0.639670 -5.656394 2.060475 0
M  V30 24 C -0.851502 -5.671842 2.338843 0
M  V30 25 C 2.775200 -4.408900 2.498823 0
M  V30 26 N 3.101933 -4.350336 3.917765 0
M  V30 27 C 1.792868 -4.905426 4.208405 0
M  V30 28 C -4.231351 -2.263145 1.623770 0
M  V30 29 N -4.581974 -1.109721 1.032431 0
M  V30 30 N -2.561578 1.320553 -1.681100 0
M  V30 31 C -1.612715 1.678016 -2.563252 0
M  V30 32 N -0.354925 2.211468 -2.413307 0
M  V30 33 C 0.321810 2.556337 -1.220686 0
M  V30 34 C 1.308897 1.639659 -0.630271 0
M  V30 35 C 1.737867 1.960967 0.777626 0
M  V30 36 C 0.989081 1.242666 1.861698 0
M  V30 37 C -0.302261 2.015963 2.046107 0
M  V30 38 C -1.073973 1.816395 0.758360 0
M  V30 39 C -0.723079 2.936918 -0.185369 0
M  V30 40 H 0.993985 5.636920 -6.130211 0
M  V30 41 H 0.225361 5.614354 -4.460852 0
M  V30 42 H -0.273197 4.452080 -5.824978 0
M  V30 43 H 3.148864 4.048896 -6.427713 0
M  V30 44 H 3.265353 5.361503 -5.124050 0
M  V30 45 H 3.700310 3.689036 -4.771081 0
M  V30 46 H -0.801699 1.863765 -5.678623 0
M  V30 47 H -3.408334 0.789558 -5.244814 0
M  V30 48 H -5.159277 1.104951 -0.242957 0
M  V30 49 H -2.678337 -1.277366 -1.717625 0
M  V30 50 H -2.040891 -3.340668 -0.676978 0
M  V30 51 H -0.967580 -2.383303 1.477432 0
M  V30 52 H 0.072016 -3.609617 0.683234 0
M  V30 53 H -0.025853 -3.184251 3.712996 0
M  V30 54 H 1.158410 -2.402643 2.618029 0
M  V30 55 H 1.146160 -6.601057 2.325796 0
M  V30 56 H 0.865631 -5.468858 0.981439 0
M  V30 57 H -1.252177 -6.597817 1.854787 0
M  V30 58 H -0.979324 -5.820453 3.427008 0
M  V30 59 H 3.018763 -3.469699 1.979313 0
M  V30 60 H 3.228663 -5.306355 2.013770 0
M  V30 61 H 3.198182 -3.371888 4.290534 0
M  V30 62 H 1.816857 -5.992889 4.413394 0
M  V30 63 H 1.195753 -4.333060 4.944434 0
M  V30 64 H -4.641057 -2.587107 2.568906 0
M  V30 65 H 0.856901 3.515181 -1.419818 0
M  V30 66 H 2.278529 1.771247 -1.211068 0
M  V30 67 H 1.158622 0.568964 -0.693806 0
M  V30 68 H 1.771228 3.048295 1.008496 0
M  V30 69 H 2.803702 1.643594 0.907925 0
M  V30 70 H 1.530028 1.227707 2.815816 0
M  V30 71 H 0.722461 0.209586 1.599640 0
M  V30 72 H -0.104679 3.113406 2.157593 0
M  V30 73 H -0.900790 1.615955 2.888088 0
M  V30 74 H -2.147043 1.938526 1.018892 0
M  V30 75 H -0.828457 0.807108 0.405657 0
M  V30 76 H -0.371403 3.842561 0.355578 0
M  V30 77 H -1.660038 3.306484 -0.702889 0
M  V30 END ATOM
M  V30 BEGIN BOND
M  V30 1 1 1 2
M  V30 2 1 2 3
M  V30 3 1 2 4
M  V30 4 2 4 5
M  V30 5 1 4 6
M  V30 6 2 6 7
M  V30 7 1 7 8
M  V30 8 2 8 9
M  V30 9 1 9 10
M  V30 10 2 10 11
M  V30 11 1 11 12
M  V30 12 1 12 13
M  V30 13 2 13 14
M  V30 14 1 14 15
M  V30 15 2 15 16
M  V30 16 1 16 17
M  V30 17 2 17 18
M  V30 18 1 17 19
M  V30 19 1 19 20
M  V30 20 1 20 21
M  V30 21 1 21 22
M  V30 22 1 22 23
M  V30 23 1 23 24
M  V30 24 1 22 25
M  V30 25 1 25 26
M  V30 26 1 26 27
M  V30 27 1 16 28
M  V30 28 2 28 29
M  V30 29 1 11 30
M  V30 30 2 30 31
M  V30 31 1 31 32
M  V30 32 1 32 33
M  V30 33 1 33 34
M  V30 34 1 34 35
M  V30 35 1 35 36
M  V30 36 1 36 37
M  V30 37 1 37 38
M  V30 38 1 38 39
M  V30 39 1 32 6
M  V30 40 1 39 33
M  V30 41 1 31 8
M  V30 42 1 29 13
M  V30 43 1 24 19
M  V30 44 1 27 22
M  V30 45 1 1 40
M  V30 46 1 1 41
M  V30 47 1 1 42
M  V30 48 1 3 43
M  V30 49 1 3 44
M  V30 50 1 3 45
M  V30 51 1 7 46
M  V30 52 1 9 47
M  V30 53 1 12 48
M  V30 54 1 14 49
M  V30 55 1 15 50
M  V30 56 1 20 51
M  V30 57 1 20 52
M  V30 58 1 21 53
M  V30 59 1 21 54
M  V30 60 1 23 55
M  V30 61 1 23 56
M  V30 62 1 24 57
M  V30 63 1 24 58
M  V30 64 1 25 59
M  V30 65 1 25 60
M  V30 66 1 26 61
M  V30 67 1 27 62
M  V30 68 1 27 63
M  V30 69 1 28 64
M  V30 70 1 33 65
M  V30 71 1 34 66
M  V30 72 1 34 67
M  V30 73 1 35 68
M  V30 74 1 35 69
M  V30 75 1 36 70
M  V30 76 1 36 71
M  V30 77 1 37 72
M  V30 78 1 37 73
M  V30 79 1 38 74
M  V30 80 1 38 75
M  V30 81 1 39 76
M  V30 82 1 39 77
M  V30 END BOND
M  V30 END CTAB
M  END
>  <Dataset>  (561) 
ChEMBL_Kinases

>  <Ligand_Instance>  (561) 
nan

>  <PDB_ID>  (561) 
nan

>  <Standardized_SMILES>  (561) 
CN(C)C(=O)c1cc2cnc(Nc3ccc(C(=O)N4CCC5(CC4)CNC5)cn3)nc2n1C1CCCCCC1

>  <Name>  (561) 
nan

>  <Pocket>  (561) 
nan

>  <ATP_Site>  (561) 
nan

>  <Peripheral>  (561) 
nan

>  <Num_H_Atoms_ProtBoundConf>  (561) 
nan

>  <Num_Resolved_Atoms>  (561) 
nan

>  <Num_Not_Resolved_Atoms>  (561) 
nan

$$$$
CHEMBL3691549
     RDKit          3D

  0  0  0  0  0  0  0  0  0  0999 V3000
M  V30 BEGIN CTAB
M  V30 COUNTS 79 84 0 0 0
M  V30 BEGIN ATOM
M  V30 1 C 2.789645 -4.398224 -0.167965 0
M  V30 2 N 3.790904 -4.526401 -1.223430 0
M  V30 3 C 4.329032 -5.874028 -1.229685 0
M  V30 4 C 4.202007 -3.515153 -2.145366 0
M  V30 5 O 5.114385 -3.872559 -2.965940 0
M  V30 6 C 3.467098 -2.246882 -1.948703 0
M  V30 7 C 2.212715 -2.343444 -2.569507 0
M  V30 8 C 1.516046 -1.160431 -2.386131 0
M  V30 9 C 0.289585 -0.613448 -2.718969 0
M  V30 10 N 0.022025 0.657526 -2.299381 0
M  V30 11 C 0.911418 1.391082 -1.574892 0
M  V30 12 N 0.204866 2.616118 -1.375281 0
M  V30 13 C -0.862706 2.499123 -0.405638 0
M  V30 14 C -1.720123 3.543897 -0.104775 0
M  V30 15 C -2.744278 3.415219 0.794729 0
M  V30 16 C -2.960783 2.217754 1.443883 0
M  V30 17 C -4.046292 1.930766 2.405247 0
M  V30 18 O -4.022589 2.577689 3.473219 0
M  V30 19 N -5.059677 0.949724 2.085087 0
M  V30 20 C -6.042371 0.815793 3.136710 0
M  V30 21 C -7.174161 -0.104331 2.750188 0
M  V30 22 C -6.711077 -1.542783 2.692062 0
M  V30 23 C -6.271970 -1.841857 1.298410 0
M  V30 24 C -6.314891 -0.464542 0.607311 0
M  V30 25 C -4.992571 0.238505 0.838340 0
M  V30 26 C -7.487079 0.174163 1.295537 0
M  V30 27 C -8.725165 -0.606082 0.859717 0
M  V30 28 O -7.643517 1.523542 1.015147 0
M  V30 29 C -2.106058 1.187133 1.144214 0
M  V30 30 N -1.118744 1.359789 0.257410 0
M  V30 31 N 2.112276 0.890443 -1.235024 0
M  V30 32 C 2.407774 -0.379206 -1.641344 0
M  V30 33 N 3.545041 -1.029805 -1.394427 0
M  V30 34 C 4.765574 -0.750847 -0.724102 0
M  V30 35 C 5.859720 -0.717677 -1.772443 0
M  V30 36 C 7.150937 -1.280201 -1.311701 0
M  V30 37 C 7.240639 -1.628792 0.144793 0
M  V30 38 C 6.746771 -0.594969 1.092877 0
M  V30 39 C 6.291478 0.684442 0.488231 0
M  V30 40 C 4.836809 0.539738 0.019029 0
M  V30 41 H 3.376582 -4.399576 0.798195 0
M  V30 42 H 2.311540 -3.380451 -0.208912 0
M  V30 43 H 2.062097 -5.206041 -0.133540 0
M  V30 44 H 5.011748 -5.984345 -0.366308 0
M  V30 45 H 4.928863 -6.093085 -2.145849 0
M  V30 46 H 3.528081 -6.650177 -1.091147 0
M  V30 47 H 1.665898 -3.089878 -3.139948 0
M  V30 48 H -0.373818 -1.249175 -3.295865 0
M  V30 49 H 0.303266 3.575235 -1.792675 0
M  V30 50 H -1.542486 4.475630 -0.617499 0
M  V30 51 H -3.425681 4.218378 1.046622 0
M  V30 52 H -5.560869 0.382829 4.057899 0
M  V30 53 H -6.435755 1.816966 3.466529 0
M  V30 54 H -8.056242 0.024735 3.398933 0
M  V30 55 H -7.547208 -2.223916 2.958154 0
M  V30 56 H -5.828459 -1.680140 3.356301 0
M  V30 57 H -5.229681 -2.239497 1.251781 0
M  V30 58 H -6.920351 -2.542461 0.753217 0
M  V30 59 H -6.492989 -0.671063 -0.462235 0
M  V30 60 H -4.751242 0.845941 -0.034316 0
M  V30 61 H -4.192707 -0.545573 0.944334 0
M  V30 62 H -9.641950 -0.123026 1.226220 0
M  V30 63 H -8.633958 -1.626802 1.304702 0
M  V30 64 H -8.743843 -0.734089 -0.237595 0
M  V30 65 H -8.426379 1.697758 0.431723 0
M  V30 66 H -2.073085 0.182927 1.533870 0
M  V30 67 H 5.059952 -1.564181 -0.016848 0
M  V30 68 H 5.986124 0.363883 -2.061156 0
M  V30 69 H 5.523569 -1.203381 -2.711048 0
M  V30 70 H 7.370006 -2.241366 -1.865479 0
M  V30 71 H 8.031124 -0.621267 -1.548265 0
M  V30 72 H 6.763508 -2.629352 0.373052 0
M  V30 73 H 8.338099 -1.795017 0.365330 0
M  V30 74 H 7.526808 -0.321152 1.867171 0
M  V30 75 H 5.910045 -1.001009 1.720681 0
M  V30 76 H 6.297889 1.514101 1.218909 0
M  V30 77 H 6.890218 1.028339 -0.376853 0
M  V30 78 H 4.217054 0.561584 0.926268 0
M  V30 79 H 4.691996 1.430649 -0.637987 0
M  V30 END ATOM
M  V30 BEGIN BOND
M  V30 1 1 1 2
M  V30 2 1 2 3
M  V30 3 1 2 4
M  V30 4 2 4 5
M  V30 5 1 4 6
M  V30 6 2 6 7
M  V30 7 1 7 8
M  V30 8 2 8 9
M  V30 9 1 9 10
M  V30 10 2 10 11
M  V30 11 1 11 12
M  V30 12 1 12 13
M  V30 13 2 13 14
M  V30 14 1 14 15
M  V30 15 2 15 16
M  V30 16 1 16 17
M  V30 17 2 17 18
M  V30 18 1 17 19
M  V30 19 1 19 20
M  V30 20 1 20 21
M  V30 21 1 21 22
M  V30 22 1 22 23
M  V30 23 1 23 24
M  V30 24 1 24 25
M  V30 25 1 24 26
M  V30 26 1 26 27
M  V30 27 1 26 28
M  V30 28 1 16 29
M  V30 29 2 29 30
M  V30 30 1 11 31
M  V30 31 2 31 32
M  V30 32 1 32 33
M  V30 33 1 33 34
M  V30 34 1 34 35
M  V30 35 1 35 36
M  V30 36 1 36 37
M  V30 37 1 37 38
M  V30 38 1 38 39
M  V30 39 1 39 40
M  V30 40 1 33 6
M  V30 41 1 40 34
M  V30 42 1 32 8
M  V30 43 1 30 13
M  V30 44 1 25 19
M  V30 45 1 26 21
M  V30 46 1 1 41
M  V30 47 1 1 42
M  V30 48 1 1 43
M  V30 49 1 3 44
M  V30 50 1 3 45
M  V30 51 1 3 46
M  V30 52 1 7 47
M  V30 53 1 9 48
M  V30 54 1 12 49
M  V30 55 1 14 50
M  V30 56 1 15 51
M  V30 57 1 20 52
M  V30 58 1 20 53
M  V30 59 1 21 54
M  V30 60 1 22 55
M  V30 61 1 22 56
M  V30 62 1 23 57
M  V30 63 1 23 58
M  V30 64 1 24 59
M  V30 65 1 25 60
M  V30 66 1 25 61
M  V30 67 1 27 62
M  V30 68 1 27 63
M  V30 69 1 27 64
M  V30 70 1 28 65
M  V30 71 1 29 66
M  V30 72 1 34 67
M  V30 73 1 35 68
M  V30 74 1 35 69
M  V30 75 1 36 70
M  V30 76 1 36 71
M  V30 77 1 37 72
M  V30 78 1 37 73
M  V30 79 1 38 74
M  V30 80 1 38 75
M  V30 81 1 39 76
M  V30 82 1 39 77
M  V30 83 1 40 78
M  V30 84 1 40 79
M  V30 END BOND
M  V30 END CTAB
M  END
>  <Dataset>  (562) 
ChEMBL_Kinases

>  <Ligand_Instance>  (562) 
nan

>  <PDB_ID>  (562) 
nan

>  <Standardized_SMILES>  (562) 
CN(C)C(=O)c1cc2cnc(Nc3ccc(C(=O)N4CC5CCC(C4)C5(C)O)cn3)nc2n1C1CCCCCC1

>  <Name>  (562) 
nan

>  <Pocket>  (562) 
nan

>  <ATP_Site>  (562) 
nan

>  <Peripheral>  (562) 
nan

>  <Num_H_Atoms_ProtBoundConf>  (562) 
nan

>  <Num_Resolved_Atoms>  (562) 
nan

>  <Num_Not_Resolved_Atoms>  (562) 
nan

$$$$
CHEMBL3691550
     RDKit          3D

  0  0  0  0  0  0  0  0  0  0999 V3000
M  V30 BEGIN CTAB
M  V30 COUNTS 73 78 0 0 0
M  V30 BEGIN ATOM
M  V30 1 C 4.781815 -1.483851 3.776532 0
M  V30 2 N 5.687972 -1.721870 2.638912 0
M  V30 3 C 6.699628 -2.708537 3.027945 0
M  V30 4 C 5.524410 -1.047278 1.368835 0
M  V30 5 O 6.433682 -1.439083 0.620860 0
M  V30 6 C 4.375923 -0.124639 1.321395 0
M  V30 7 C 4.505534 1.011290 2.096265 0
M  V30 8 C 3.319480 1.723450 1.909537 0
M  V30 9 C 2.891232 2.919870 2.430904 0
M  V30 10 N 1.654012 3.384037 2.067528 0
M  V30 11 C 0.906659 2.647095 1.211517 0
M  V30 12 N -0.389551 2.911647 0.657386 0
M  V30 13 C -1.465886 1.991434 0.600164 0
M  V30 14 C -1.261615 0.787789 1.215909 0
M  V30 15 C -2.280480 -0.173077 1.146337 0
M  V30 16 C -3.429596 0.140320 0.466986 0
M  V30 17 C -4.606593 -0.581723 0.206967 0
M  V30 18 O -3.912297 -1.651237 0.001793 0
M  V30 19 N -5.772111 -1.266800 -0.043569 0
M  V30 20 C -7.004657 -0.459030 0.045437 0
M  V30 21 C -8.158597 -1.419770 0.022054 0
M  V30 22 C -8.404511 -1.948194 -1.366061 0
M  V30 23 C -7.030669 -2.513317 -1.697805 0
M  V30 24 C -6.300368 -2.570640 -0.385497 0
M  V30 25 C -7.445291 -2.649273 0.605806 0
M  V30 26 O -7.055727 -2.348469 1.911565 0
M  V30 27 C -3.610955 1.385929 -0.154239 0
M  V30 28 N -2.595254 2.297719 -0.066198 0
M  V30 29 N 1.331669 1.486933 0.710121 0
M  V30 30 C 2.527499 0.979935 1.025481 0
M  V30 31 N 3.202609 -0.163657 0.673139 0
M  V30 32 C 2.724438 -1.179732 -0.204202 0
M  V30 33 C 1.653023 -0.674759 -1.153636 0
M  V30 34 C 2.153937 0.291760 -2.153363 0
M  V30 35 C 3.001783 -0.310546 -3.200008 0
M  V30 36 C 2.851410 -1.770107 -3.317776 0
M  V30 37 C 3.216646 -2.625811 -2.174275 0
M  V30 38 C 3.804016 -1.909915 -0.970777 0
M  V30 39 H 4.544826 -2.414295 4.326657 0
M  V30 40 H 3.831994 -1.039333 3.478288 0
M  V30 41 H 5.256520 -0.789663 4.502041 0
M  V30 42 H 6.254468 -3.531014 3.631450 0
M  V30 43 H 7.522027 -2.292283 3.604724 0
M  V30 44 H 7.135786 -3.212856 2.131610 0
M  V30 45 H 5.288245 1.386656 2.747449 0
M  V30 46 H 3.452739 3.525160 3.107662 0
M  V30 47 H -0.526232 3.870363 0.269809 0
M  V30 48 H -0.425777 0.410970 1.783688 0
M  V30 49 H -2.261683 -1.155907 1.582358 0
M  V30 50 H -7.022576 0.144576 -0.900566 0
M  V30 51 H -7.013127 0.180600 0.954245 0
M  V30 52 H -9.030482 -1.134488 0.595338 0
M  V30 53 H -8.783110 -1.227865 -2.086970 0
M  V30 54 H -9.130742 -2.798540 -1.244539 0
M  V30 55 H -6.506282 -1.860629 -2.431922 0
M  V30 56 H -7.113066 -3.539600 -2.101994 0
M  V30 57 H -5.584295 -3.380126 -0.297995 0
M  V30 58 H -8.019249 -3.569695 0.512251 0
M  V30 59 H -6.144469 -2.665964 2.047598 0
M  V30 60 H -4.422995 1.816717 -0.723394 0
M  V30 61 H 2.200223 -1.937927 0.432070 0
M  V30 62 H 0.792410 -0.362218 -0.551218 0
M  V30 63 H 1.297416 -1.592768 -1.711655 0
M  V30 64 H 1.239849 0.794800 -2.594663 0
M  V30 65 H 2.719564 1.146645 -1.716857 0
M  V30 66 H 2.646722 0.122247 -4.197783 0
M  V30 67 H 4.052040 0.049008 -3.151724 0
M  V30 68 H 3.407221 -2.070258 -4.269576 0
M  V30 69 H 1.778262 -1.976975 -3.612671 0
M  V30 70 H 2.383586 -3.295724 -1.806673 0
M  V30 71 H 4.021980 -3.349669 -2.510453 0
M  V30 72 H 4.260505 -2.710026 -0.360677 0
M  V30 73 H 4.615217 -1.263434 -1.344753 0
M  V30 END ATOM
M  V30 BEGIN BOND
M  V30 1 1 1 2
M  V30 2 1 2 3
M  V30 3 1 2 4
M  V30 4 2 4 5
M  V30 5 1 4 6
M  V30 6 2 6 7
M  V30 7 1 7 8
M  V30 8 2 8 9
M  V30 9 1 9 10
M  V30 10 2 10 11
M  V30 11 1 11 12
M  V30 12 1 12 13
M  V30 13 2 13 14
M  V30 14 1 14 15
M  V30 15 2 15 16
M  V30 16 1 16 17
M  V30 17 2 17 18
M  V30 18 1 17 19
M  V30 19 1 19 20
M  V30 20 1 20 21
M  V30 21 1 21 22
M  V30 22 1 22 23
M  V30 23 1 23 24
M  V30 24 1 24 25
M  V30 25 1 25 26
M  V30 26 1 16 27
M  V30 27 2 27 28
M  V30 28 1 11 29
M  V30 29 2 29 30
M  V30 30 1 30 31
M  V30 31 1 31 32
M  V30 32 1 32 33
M  V30 33 1 33 34
M  V30 34 1 34 35
M  V30 35 1 35 36
M  V30 36 1 36 37
M  V30 37 1 37 38
M  V30 38 1 31 6
M  V30 39 1 38 32
M  V30 40 1 30 8
M  V30 41 1 28 13
M  V30 42 1 24 19
M  V30 43 1 25 21
M  V30 44 1 1 39
M  V30 45 1 1 40
M  V30 46 1 1 41
M  V30 47 1 3 42
M  V30 48 1 3 43
M  V30 49 1 3 44
M  V30 50 1 7 45
M  V30 51 1 9 46
M  V30 52 1 12 47
M  V30 53 1 14 48
M  V30 54 1 15 49
M  V30 55 1 20 50
M  V30 56 1 20 51
M  V30 57 1 21 52
M  V30 58 1 22 53
M  V30 59 1 22 54
M  V30 60 1 23 55
M  V30 61 1 23 56
M  V30 62 1 24 57
M  V30 63 1 25 58
M  V30 64 1 26 59
M  V30 65 1 27 60
M  V30 66 1 32 61
M  V30 67 1 33 62
M  V30 68 1 33 63
M  V30 69 1 34 64
M  V30 70 1 34 65
M  V30 71 1 35 66
M  V30 72 1 35 67
M  V30 73 1 36 68
M  V30 74 1 36 69
M  V30 75 1 37 70
M  V30 76 1 37 71
M  V30 77 1 38 72
M  V30 78 1 38 73
M  V30 END BOND
M  V30 END CTAB
M  END
>  <Dataset>  (563) 
ChEMBL_Kinases

>  <Ligand_Instance>  (563) 
nan

>  <PDB_ID>  (563) 
nan

>  <Standardized_SMILES>  (563) 
CN(C)C(=O)c1cc2cnc(Nc3ccc(C(=O)N4CC5CCC4C5O)cn3)nc2n1C1CCCCCC1

>  <Name>  (563) 
nan

>  <Pocket>  (563) 
nan

>  <ATP_Site>  (563) 
nan

>  <Peripheral>  (563) 
nan

>  <Num_H_Atoms_ProtBoundConf>  (563) 
nan

>  <Num_Resolved_Atoms>  (563) 
nan

>  <Num_Not_Resolved_Atoms>  (563) 
nan

$$$$
CHEMBL3691551
     RDKit          3D

  0  0  0  0  0  0  0  0  0  0999 V3000
M  V30 BEGIN CTAB
M  V30 COUNTS 79 84 0 0 0
M  V30 BEGIN ATOM
M  V30 1 C 5.102621 -4.092715 -1.110366 0
M  V30 2 C 5.318237 -3.468084 -2.437180 0
M  V30 3 O 6.500728 -3.308757 -2.842712 0
M  V30 4 N 4.192602 -3.073687 -3.202120 0
M  V30 5 C 2.779614 -3.177326 -2.899119 0
M  V30 6 C 2.246932 -3.754390 -4.192795 0
M  V30 7 C 3.212976 -3.303547 -5.273238 0
M  V30 8 C 4.185951 -2.452471 -4.510427 0
M  V30 9 C 3.752316 -1.010820 -4.436336 0
M  V30 10 N 2.594023 -0.827185 -3.606676 0
M  V30 11 C 1.953107 0.394305 -3.885256 0
M  V30 12 O 2.658850 0.905715 -4.803089 0
M  V30 13 C 0.790524 1.070571 -3.375641 0
M  V30 14 C 0.206509 2.017186 -4.172081 0
M  V30 15 C -0.910442 2.703414 -3.747004 0
M  V30 16 C -1.460358 2.449621 -2.512148 0
M  V30 17 N -2.573188 3.005496 -1.854502 0
M  V30 18 C -3.120841 2.709267 -0.591126 0
M  V30 19 N -4.196836 3.438175 -0.214081 0
M  V30 20 C -4.799039 3.231334 0.968835 0
M  V30 21 C -4.273340 2.243694 1.782023 0
M  V30 22 C -4.631692 1.780532 3.028289 0
M  V30 23 C -3.721243 0.801299 3.283681 0
M  V30 24 C -3.765884 0.081103 4.527169 0
M  V30 25 O -4.528238 -0.915624 4.426820 0
M  V30 26 N -3.787110 -0.579473 5.718753 0
M  V30 27 C -4.568390 -1.782977 5.949565 0
M  V30 28 C -2.963495 0.009068 6.768718 0
M  V30 29 N -2.810304 0.589474 2.319788 0
M  V30 30 C -1.781840 -0.411294 2.437353 0
M  V30 31 C -1.448241 -0.968487 1.106395 0
M  V30 32 C -0.164602 -1.769964 1.091798 0
M  V30 33 C 1.054418 -0.979295 1.433796 0
M  V30 34 C 1.398231 -1.189822 2.890691 0
M  V30 35 C 0.276104 -0.752771 3.807241 0
M  V30 36 C -0.597034 0.259786 3.143266 0
M  V30 37 C -3.182677 1.494137 1.415945 0
M  V30 38 N -2.605167 1.740247 0.206233 0
M  V30 39 N -0.853336 1.506586 -1.754710 0
M  V30 40 C 0.235240 0.820500 -2.139389 0
M  V30 41 C 2.210485 -1.812278 -2.640317 0
M  V30 42 H 5.977646 -4.721965 -0.867328 0
M  V30 43 H 4.221011 -4.790680 -1.124615 0
M  V30 44 H 5.011137 -3.328077 -0.326200 0
M  V30 45 H 2.580577 -3.826914 -2.024436 0
M  V30 46 H 1.252802 -3.368394 -4.445833 0
M  V30 47 H 2.259671 -4.854098 -4.128190 0
M  V30 48 H 3.753593 -4.172406 -5.676094 0
M  V30 49 H 2.682414 -2.731126 -6.072332 0
M  V30 50 H 5.212752 -2.483230 -4.974504 0
M  V30 51 H 3.588065 -0.654375 -5.475368 0
M  V30 52 H 4.624950 -0.442945 -4.059070 0
M  V30 53 H 0.518595 2.332459 -5.171009 0
M  V30 54 H -1.453768 3.466288 -4.287392 0
M  V30 55 H -2.970284 3.718759 -2.467222 0
M  V30 56 H -5.670816 3.809194 1.297434 0
M  V30 57 H -5.449010 2.149806 3.609583 0
M  V30 58 H -4.190588 -2.574113 5.299575 0
M  V30 59 H -4.490925 -2.085422 7.033465 0
M  V30 60 H -5.649280 -1.658718 5.775375 0
M  V30 61 H -2.759376 -0.726978 7.596449 0
M  V30 62 H -3.436910 0.861202 7.251746 0
M  V30 63 H -1.967097 0.217925 6.309221 0
M  V30 64 H -2.082416 -1.224657 3.144495 0
M  V30 65 H -2.253848 -1.718511 0.858732 0
M  V30 66 H -1.437848 -0.270651 0.282750 0
M  V30 67 H -0.045068 -2.078919 0.013274 0
M  V30 68 H -0.214335 -2.688621 1.669806 0
M  V30 69 H 1.027112 0.073828 1.143437 0
M  V30 70 H 1.931309 -1.413048 0.866694 0
M  V30 71 H 2.338925 -0.693065 3.189263 0
M  V30 72 H 1.517517 -2.278644 3.051184 0
M  V30 73 H -0.396367 -1.622734 4.054493 0
M  V30 74 H 0.691874 -0.347653 4.750708 0
M  V30 75 H -1.090494 0.835122 3.981143 0
M  V30 76 H -0.099952 1.015404 2.542269 0
M  V30 77 H 0.678687 0.073082 -1.482607 0
M  V30 78 H 1.098357 -1.923148 -2.728951 0
M  V30 79 H 2.485670 -1.470804 -1.612188 0
M  V30 END ATOM
M  V30 BEGIN BOND
M  V30 1 1 1 2
M  V30 2 2 2 3
M  V30 3 1 2 4
M  V30 4 1 4 5
M  V30 5 1 5 6
M  V30 6 1 6 7
M  V30 7 1 7 8
M  V30 8 1 8 9
M  V30 9 1 9 10
M  V30 10 1 10 11
M  V30 11 2 11 12
M  V30 12 1 11 13
M  V30 13 2 13 14
M  V30 14 1 14 15
M  V30 15 2 15 16
M  V30 16 1 16 17
M  V30 17 1 17 18
M  V30 18 2 18 19
M  V30 19 1 19 20
M  V30 20 2 20 21
M  V30 21 1 21 22
M  V30 22 2 22 23
M  V30 23 1 23 24
M  V30 24 2 24 25
M  V30 25 1 24 26
M  V30 26 1 26 27
M  V30 27 1 26 28
M  V30 28 1 23 29
M  V30 29 1 29 30
M  V30 30 1 30 31
M  V30 31 1 31 32
M  V30 32 1 32 33
M  V30 33 1 33 34
M  V30 34 1 34 35
M  V30 35 1 35 36
M  V30 36 1 29 37
M  V30 37 2 37 38
M  V30 38 1 16 39
M  V30 39 2 39 40
M  V30 40 1 10 41
M  V30 41 1 8 4
M  V30 42 1 40 13
M  V30 43 1 41 5
M  V30 44 1 38 18
M  V30 45 1 37 21
M  V30 46 1 36 30
M  V30 47 1 1 42
M  V30 48 1 1 43
M  V30 49 1 1 44
M  V30 50 1 5 45
M  V30 51 1 6 46
M  V30 52 1 6 47
M  V30 53 1 7 48
M  V30 54 1 7 49
M  V30 55 1 8 50
M  V30 56 1 9 51
M  V30 57 1 9 52
M  V30 58 1 14 53
M  V30 59 1 15 54
M  V30 60 1 17 55
M  V30 61 1 20 56
M  V30 62 1 22 57
M  V30 63 1 27 58
M  V30 64 1 27 59
M  V30 65 1 27 60
M  V30 66 1 28 61
M  V30 67 1 28 62
M  V30 68 1 28 63
M  V30 69 1 30 64
M  V30 70 1 31 65
M  V30 71 1 31 66
M  V30 72 1 32 67
M  V30 73 1 32 68
M  V30 74 1 33 69
M  V30 75 1 33 70
M  V30 76 1 34 71
M  V30 77 1 34 72
M  V30 78 1 35 73
M  V30 79 1 35 74
M  V30 80 1 36 75
M  V30 81 1 36 76
M  V30 82 1 40 77
M  V30 83 1 41 78
M  V30 84 1 41 79
M  V30 END BOND
M  V30 END CTAB
M  END
>  <Dataset>  (564) 
ChEMBL_Kinases

>  <Ligand_Instance>  (564) 
nan

>  <PDB_ID>  (564) 
nan

>  <Standardized_SMILES>  (564) 
CC(=O)N1C2CCC1CN(C(=O)c1ccc(Nc3ncc4cc(C(=O)N(C)C)n(C5CCCCCC5)c4n3)nc1)C2

>  <Name>  (564) 
nan

>  <Pocket>  (564) 
nan

>  <ATP_Site>  (564) 
nan

>  <Peripheral>  (564) 
nan

>  <Num_H_Atoms_ProtBoundConf>  (564) 
nan

>  <Num_Resolved_Atoms>  (564) 
nan

>  <Num_Not_Resolved_Atoms>  (564) 
nan

$$$$
CHEMBL3689505
     RDKit          3D

  0  0  0  0  0  0  0  0  0  0999 V3000
M  V30 BEGIN CTAB
M  V30 COUNTS 55 58 0 0 0
M  V30 BEGIN ATOM
M  V30 1 C 0.181067 -2.602208 5.464959 0
M  V30 2 C 0.864075 -1.533304 4.652258 0
M  V30 3 S 2.630672 -1.601283 4.754550 0
M  V30 4 O 3.171588 -2.918463 4.284183 0
M  V30 5 O 3.037383 -1.354631 6.177450 0
M  V30 6 N 3.186615 -0.298202 3.756098 0
M  V30 7 C 2.890518 -0.275973 2.371374 0
M  V30 8 C 3.039360 -1.416880 1.615275 0
M  V30 9 C 2.751339 -1.396633 0.265830 0
M  V30 10 C 2.321436 -0.221186 -0.275692 0
M  V30 11 C 2.138033 0.975645 0.387504 0
M  V30 12 C 1.676730 2.225336 -0.226409 0
M  V30 13 N 0.274820 2.439461 -0.258698 0
M  V30 14 C -0.371495 2.458309 1.021952 0
M  V30 15 C -1.788239 1.931638 0.727248 0
M  V30 16 C -1.325018 0.767569 -0.189424 0 CFG=1
M  V30 17 N -2.363879 0.064172 -0.812690 0
M  V30 18 C -2.862994 -0.983275 -1.606205 0
M  V30 19 C -4.213549 -1.131629 -1.924755 0
M  V30 20 C -4.677794 -2.148739 -2.687225 0
M  V30 21 C -3.768441 -3.052380 -3.150864 0
M  V30 22 C -2.417722 -3.012088 -2.904854 0
M  V30 23 C -1.589596 -3.980946 -3.419657 0
M  V30 24 N -0.274937 -3.902760 -3.146857 0
M  V30 25 C 0.227456 -2.903026 -2.388295 0
M  V30 26 C -0.647272 -1.962185 -1.900342 0
M  V30 27 C -2.012711 -1.948069 -2.120107 0
M  V30 28 C -0.490549 1.617824 -1.135889 0
M  V30 29 C 2.446289 0.891878 1.751416 0
M  V30 30 H 0.455633 -3.631247 5.157025 0
M  V30 31 H -0.905958 -2.497862 5.236170 0
M  V30 32 H 0.290256 -2.397817 6.530261 0
M  V30 33 H 0.578283 -1.644644 3.600927 0
M  V30 34 H 0.556931 -0.558766 5.094720 0
M  V30 35 H 3.745901 0.508297 4.101216 0
M  V30 36 H 3.377198 -2.351666 2.026471 0
M  V30 37 H 2.859465 -2.282502 -0.357110 0
M  V30 38 H 2.100311 -0.228413 -1.340845 0
M  V30 39 H 2.132486 3.114384 0.282754 0
M  V30 40 H 2.037511 2.330906 -1.291974 0
M  V30 41 H -0.403080 3.433366 1.500353 0
M  V30 42 H 0.088126 1.665167 1.646184 0
M  V30 43 H -2.289438 1.535919 1.606935 0
M  V30 44 H -2.331250 2.679634 0.138849 0
M  V30 45 H -0.624911 0.212815 0.454164 0
M  V30 46 H -3.178457 0.655361 -0.511360 0
M  V30 47 H -4.940113 -0.406063 -1.551959 0
M  V30 48 H -5.728298 -2.203894 -2.894417 0
M  V30 49 H -4.162279 -3.854501 -3.756933 0
M  V30 50 H -1.999343 -4.792409 -4.035518 0
M  V30 51 H 1.290056 -2.862739 -2.182965 0
M  V30 52 H -0.201023 -1.199081 -1.302581 0
M  V30 53 H -1.246228 2.300907 -1.626975 0
M  V30 54 H 0.054552 1.069367 -1.892229 0
M  V30 55 H 2.355564 1.736570 2.393950 0
M  V30 END ATOM
M  V30 BEGIN BOND
M  V30 1 1 1 2
M  V30 2 1 2 3
M  V30 3 2 3 4
M  V30 4 2 3 5
M  V30 5 1 3 6
M  V30 6 1 6 7
M  V30 7 2 7 8
M  V30 8 1 8 9
M  V30 9 2 9 10
M  V30 10 1 10 11
M  V30 11 1 11 12
M  V30 12 1 12 13
M  V30 13 1 13 14
M  V30 14 1 14 15
M  V30 15 1 15 16
M  V30 16 1 16 17
M  V30 17 1 17 18
M  V30 18 2 18 19
M  V30 19 1 19 20
M  V30 20 2 20 21
M  V30 21 1 21 22
M  V30 22 2 22 23
M  V30 23 1 23 24
M  V30 24 2 24 25
M  V30 25 1 25 26
M  V30 26 2 26 27
M  V30 27 1 16 28
M  V30 28 2 11 29
M  V30 29 1 29 7
M  V30 30 1 28 13
M  V30 31 1 27 18
M  V30 32 1 27 22
M  V30 33 1 1 30
M  V30 34 1 1 31
M  V30 35 1 1 32
M  V30 36 1 2 33
M  V30 37 1 2 34
M  V30 38 1 6 35
M  V30 39 1 8 36
M  V30 40 1 9 37
M  V30 41 1 10 38
M  V30 42 1 12 39
M  V30 43 1 12 40
M  V30 44 1 14 41
M  V30 45 1 14 42
M  V30 46 1 15 43
M  V30 47 1 15 44
M  V30 48 1 16 45 CFG=1
M  V30 49 1 17 46
M  V30 50 1 19 47
M  V30 51 1 20 48
M  V30 52 1 21 49
M  V30 53 1 23 50
M  V30 54 1 25 51
M  V30 55 1 26 52
M  V30 56 1 28 53
M  V30 57 1 28 54
M  V30 58 1 29 55
M  V30 END BOND
M  V30 END CTAB
M  END
>  <Dataset>  (565) 
ChEMBL_Kinases

>  <Ligand_Instance>  (565) 
nan

>  <PDB_ID>  (565) 
nan

>  <Standardized_SMILES>  (565) 
CCS(=O)(=O)Nc1cccc(CN2CC[C@@H](Nc3cccc4cnccc34)C2)c1

>  <Name>  (565) 
nan

>  <Pocket>  (565) 
nan

>  <ATP_Site>  (565) 
nan

>  <Peripheral>  (565) 
nan

>  <Num_H_Atoms_ProtBoundConf>  (565) 
nan

>  <Num_Resolved_Atoms>  (565) 
nan

>  <Num_Not_Resolved_Atoms>  (565) 
nan

$$$$
CHEMBL3694359
     RDKit          3D

  0  0  0  0  0  0  0  0  0  0999 V3000
M  V30 BEGIN CTAB
M  V30 COUNTS 49 51 0 0 0
M  V30 BEGIN ATOM
M  V30 1 N -1.602333 -8.907644 -0.637698 0
M  V30 2 C -0.760879 -8.194410 -0.969225 0
M  V30 3 C 0.297647 -7.261885 -1.387665 0
M  V30 4 C 1.065457 -7.523805 -2.550608 0
M  V30 5 N 1.800235 -6.479587 -2.472851 0
M  V30 6 C 2.301121 -5.456231 -2.130473 0
M  V30 7 N 3.286211 -4.472229 -2.297213 0
M  V30 8 C 3.100375 -3.159810 -1.782929 0
M  V30 9 O 2.068846 -2.699972 -1.209224 0
M  V30 10 N 4.041478 -2.073321 -1.793022 0
M  V30 11 C 3.356611 -0.966265 -1.149168 0
M  V30 12 C 2.674178 0.118082 -1.714233 0
M  V30 13 C 2.006184 0.979152 -0.843837 0
M  V30 14 C 2.040406 0.734449 0.537302 0
M  V30 15 O 1.437360 1.485382 1.386715 0
M  V30 16 C 0.757534 2.364558 2.064135 0
M  V30 17 C -0.765319 2.366685 1.802274 0
M  V30 18 N -1.288144 1.042107 2.163115 0
M  V30 19 C -2.706652 0.987693 1.999032 0
M  V30 20 C -3.392837 2.087146 2.780679 0
M  V30 21 C -3.772543 1.969740 4.129334 0
M  V30 22 C -4.396717 3.086893 4.654844 0
M  V30 23 C -4.660150 4.253820 3.981945 0
M  V30 24 F -5.290980 5.230474 4.713856 0
M  V30 25 C -4.289043 4.392715 2.635248 0
M  V30 26 C -3.662360 3.248898 2.133406 0
M  V30 27 C 2.720949 -0.333767 1.100596 0
M  V30 28 Cl 2.733487 -0.598067 2.839254 0
M  V30 29 C 3.397743 -1.208975 0.230711 0
M  V30 30 C 1.492549 -5.269038 -0.985306 0
M  V30 31 N 0.551015 -6.133910 -0.649216 0
M  V30 32 H 0.911062 -8.381821 -3.156697 0
M  V30 33 H 4.215438 -4.540515 -2.716201 0
M  V30 34 H 4.943845 -2.310057 -2.228411 0
M  V30 35 H 2.766045 0.132157 -2.779286 0
M  V30 36 H 1.509742 1.792422 -1.333033 0
M  V30 37 H 1.128907 3.418772 1.879591 0
M  V30 38 H 0.810886 2.264774 3.196296 0
M  V30 39 H -1.194748 3.086909 2.517621 0
M  V30 40 H -1.010837 2.521641 0.756868 0
M  V30 41 H -1.058967 0.922636 3.192380 0
M  V30 42 H -3.027514 1.111626 0.948844 0
M  V30 43 H -3.140957 0.000621 2.312661 0
M  V30 44 H -3.537712 1.035438 4.592757 0
M  V30 45 H -4.686551 2.984245 5.709908 0
M  V30 46 H -4.506396 5.314246 2.138481 0
M  V30 47 H -3.411993 3.461111 1.068828 0
M  V30 48 H 3.908930 -2.032429 0.739230 0
M  V30 49 H 1.432289 -4.498106 -0.174015 0
M  V30 END ATOM
M  V30 BEGIN BOND
M  V30 1 3 1 2
M  V30 2 1 2 3
M  V30 3 2 3 4
M  V30 4 1 4 5
M  V30 5 2 5 6
M  V30 6 1 6 7
M  V30 7 1 7 8
M  V30 8 2 8 9
M  V30 9 1 8 10
M  V30 10 1 10 11
M  V30 11 2 11 12
M  V30 12 1 12 13
M  V30 13 2 13 14
M  V30 14 1 14 15
M  V30 15 1 15 16
M  V30 16 1 16 17
M  V30 17 1 17 18
M  V30 18 1 18 19
M  V30 19 1 19 20
M  V30 20 2 20 21
M  V30 21 1 21 22
M  V30 22 2 22 23
M  V30 23 1 23 24
M  V30 24 1 23 25
M  V30 25 2 25 26
M  V30 26 1 14 27
M  V30 27 1 27 28
M  V30 28 2 27 29
M  V30 29 1 6 30
M  V30 30 2 30 31
M  V30 31 1 31 3
M  V30 32 1 29 11
M  V30 33 1 26 20
M  V30 34 1 4 32
M  V30 35 1 7 33
M  V30 36 1 10 34
M  V30 37 1 12 35
M  V30 38 1 13 36
M  V30 39 1 16 37
M  V30 40 1 16 38
M  V30 41 1 17 39
M  V30 42 1 17 40
M  V30 43 1 18 41
M  V30 44 1 19 42
M  V30 45 1 19 43
M  V30 46 1 21 44
M  V30 47 1 22 45
M  V30 48 1 25 46
M  V30 49 1 26 47
M  V30 50 1 29 48
M  V30 51 1 30 49
M  V30 END BOND
M  V30 END CTAB
M  END
>  <Dataset>  (566) 
ChEMBL_Kinases

>  <Ligand_Instance>  (566) 
nan

>  <PDB_ID>  (566) 
nan

>  <Standardized_SMILES>  (566) 
N#Cc1cnc(NC(=O)Nc2ccc(OCCNCc3ccc(F)cc3)c(Cl)c2)cn1

>  <Name>  (566) 
nan

>  <Pocket>  (566) 
nan

>  <ATP_Site>  (566) 
nan

>  <Peripheral>  (566) 
nan

>  <Num_H_Atoms_ProtBoundConf>  (566) 
nan

>  <Num_Resolved_Atoms>  (566) 
nan

>  <Num_Not_Resolved_Atoms>  (566) 
nan

$$$$
CHEMBL3694358
     RDKit          3D

  0  0  0  0  0  0  0  0  0  0999 V3000
M  V30 BEGIN CTAB
M  V30 COUNTS 61 64 0 0 0
M  V30 BEGIN ATOM
M  V30 1 N 7.832205 -1.354651 -4.834932 0
M  V30 2 C 7.227349 -0.577099 -4.199576 0
M  V30 3 C 6.506027 0.383656 -3.413627 0
M  V30 4 C 5.315732 0.896334 -3.918691 0
M  V30 5 N 4.693593 1.793762 -3.126554 0
M  V30 6 C 5.220217 2.142781 -1.936925 0
M  V30 7 N 4.349128 3.115844 -1.310680 0
M  V30 8 C 3.307767 2.710175 -0.448022 0
M  V30 9 O 3.167179 1.462811 -0.230805 0
M  V30 10 N 2.372090 3.538739 0.225201 0
M  V30 11 C 1.443705 2.780519 1.020509 0
M  V30 12 C 1.541028 2.387272 2.342227 0
M  V30 13 C 0.493365 1.654713 2.867363 0
M  V30 14 C -0.622084 1.310430 2.131220 0
M  V30 15 C -1.700184 0.501416 2.817331 0
M  V30 16 C -2.902499 1.276530 3.187246 0
M  V30 17 N -3.868203 0.482210 3.832931 0
M  V30 18 C -4.650877 -0.471264 3.202909 0
M  V30 19 C -4.095220 -1.504474 2.347700 0
M  V30 20 C -4.046629 -1.543449 0.943433 0
M  V30 21 C -3.489383 -2.571576 0.224577 0
M  V30 22 C -2.933280 -3.648740 0.871599 0
M  V30 23 N -2.373522 -4.696204 0.105448 0
M  V30 24 C -2.467284 -4.850727 -1.331897 0
M  V30 25 C -1.081356 -4.906676 -1.972930 0
M  V30 26 O -0.238223 -5.779052 -1.323341 0
M  V30 27 C -0.188287 -5.614004 0.047551 0
M  V30 28 C -1.591935 -5.811740 0.597936 0
M  V30 29 C -2.946380 -3.675475 2.239839 0
M  V30 30 C -3.519770 -2.616690 2.944343 0
M  V30 31 C -0.741047 1.691995 0.810625 0
M  V30 32 Cl -2.158817 1.254572 -0.115387 0
M  V30 33 C 0.306560 2.424475 0.286455 0
M  V30 34 C 6.408742 1.615394 -1.458326 0
M  V30 35 N 7.039428 0.720506 -2.236205 0
M  V30 36 H 4.954705 0.570070 -4.880291 0
M  V30 37 H 4.370302 4.152163 -1.414838 0
M  V30 38 H 2.491918 4.572494 0.047049 0
M  V30 39 H 2.447184 2.710227 2.809150 0
M  V30 40 H 0.634906 1.372670 3.922767 0
M  V30 41 H -1.286910 0.069426 3.764768 0
M  V30 42 H -1.922304 -0.321246 2.165924 0
M  V30 43 H -3.378451 1.677871 2.231622 0
M  V30 44 H -2.664943 2.150983 3.855916 0
M  V30 45 H -3.519253 0.085732 4.758363 0
M  V30 46 H -5.316200 -1.031415 3.959884 0
M  V30 47 H -5.427418 0.073282 2.586157 0
M  V30 48 H -4.506888 -0.656572 0.480110 0
M  V30 49 H -3.547434 -2.419086 -0.831696 0
M  V30 50 H -3.078049 -4.101375 -1.830508 0
M  V30 51 H -2.930049 -5.851706 -1.563281 0
M  V30 52 H -1.227526 -5.328964 -3.005635 0
M  V30 53 H -0.627195 -3.916703 -2.053239 0
M  V30 54 H 0.553972 -6.300013 0.462077 0
M  V30 55 H 0.098029 -4.549068 0.266241 0
M  V30 56 H -1.959458 -6.776364 0.219487 0
M  V30 57 H -1.584599 -5.897547 1.704116 0
M  V30 58 H -2.528102 -4.492503 2.811485 0
M  V30 59 H -3.506897 -2.681015 4.031954 0
M  V30 60 H 0.143167 2.692748 -0.770792 0
M  V30 61 H 6.680544 2.012983 -0.479904 0
M  V30 END ATOM
M  V30 BEGIN BOND
M  V30 1 3 1 2
M  V30 2 1 2 3
M  V30 3 2 3 4
M  V30 4 1 4 5
M  V30 5 2 5 6
M  V30 6 1 6 7
M  V30 7 1 7 8
M  V30 8 2 8 9
M  V30 9 1 8 10
M  V30 10 1 10 11
M  V30 11 2 11 12
M  V30 12 1 12 13
M  V30 13 2 13 14
M  V30 14 1 14 15
M  V30 15 1 15 16
M  V30 16 1 16 17
M  V30 17 1 17 18
M  V30 18 1 18 19
M  V30 19 2 19 20
M  V30 20 1 20 21
M  V30 21 2 21 22
M  V30 22 1 22 23
M  V30 23 1 23 24
M  V30 24 1 24 25
M  V30 25 1 25 26
M  V30 26 1 26 27
M  V30 27 1 27 28
M  V30 28 1 22 29
M  V30 29 2 29 30
M  V30 30 1 14 31
M  V30 31 1 31 32
M  V30 32 2 31 33
M  V30 33 1 6 34
M  V30 34 2 34 35
M  V30 35 1 35 3
M  V30 36 1 33 11
M  V30 37 1 30 19
M  V30 38 1 28 23
M  V30 39 1 4 36
M  V30 40 1 7 37
M  V30 41 1 10 38
M  V30 42 1 12 39
M  V30 43 1 13 40
M  V30 44 1 15 41
M  V30 45 1 15 42
M  V30 46 1 16 43
M  V30 47 1 16 44
M  V30 48 1 17 45
M  V30 49 1 18 46
M  V30 50 1 18 47
M  V30 51 1 20 48
M  V30 52 1 21 49
M  V30 53 1 24 50
M  V30 54 1 24 51
M  V30 55 1 25 52
M  V30 56 1 25 53
M  V30 57 1 27 54
M  V30 58 1 27 55
M  V30 59 1 28 56
M  V30 60 1 28 57
M  V30 61 1 29 58
M  V30 62 1 30 59
M  V30 63 1 33 60
M  V30 64 1 34 61
M  V30 END BOND
M  V30 END CTAB
M  END
>  <Dataset>  (567) 
ChEMBL_Kinases

>  <Ligand_Instance>  (567) 
nan

>  <PDB_ID>  (567) 
nan

>  <Standardized_SMILES>  (567) 
N#Cc1cnc(NC(=O)Nc2ccc(CCNCc3ccc(N4CCOCC4)cc3)c(Cl)c2)cn1

>  <Name>  (567) 
nan

>  <Pocket>  (567) 
nan

>  <ATP_Site>  (567) 
nan

>  <Peripheral>  (567) 
nan

>  <Num_H_Atoms_ProtBoundConf>  (567) 
nan

>  <Num_Resolved_Atoms>  (567) 
nan

>  <Num_Not_Resolved_Atoms>  (567) 
nan

$$$$
CHEMBL3694357
     RDKit          3D

  0  0  0  0  0  0  0  0  0  0999 V3000
M  V30 BEGIN CTAB
M  V30 COUNTS 48 50 0 0 0
M  V30 BEGIN ATOM
M  V30 1 N 3.596403 -6.549290 -6.863185 0
M  V30 2 C 3.245495 -5.607768 -6.295529 0
M  V30 3 C 2.824568 -4.417731 -5.598111 0
M  V30 4 C 3.685062 -3.365164 -5.360865 0
M  V30 5 N 3.178844 -2.310745 -4.707895 0
M  V30 6 C 1.900876 -2.236188 -4.284345 0
M  V30 7 N 1.333474 -1.126851 -3.600309 0
M  V30 8 C 1.354223 -0.962943 -2.195400 0
M  V30 9 O 1.916034 -1.848727 -1.512050 0
M  V30 10 N 0.780496 0.132854 -1.542973 0
M  V30 11 C 0.701875 0.469243 -0.168356 0
M  V30 12 C 0.054885 1.598733 0.208277 0
M  V30 13 C -0.057342 1.981934 1.525923 0
M  V30 14 C 0.501358 1.211532 2.566970 0
M  V30 15 C 0.234716 1.824313 3.855329 0
M  V30 16 C 0.496853 1.098943 5.098704 0
M  V30 17 N -0.163910 -0.132153 5.316638 0
M  V30 18 C -1.543337 -0.208732 5.529349 0
M  V30 19 C -2.375964 0.061690 4.342961 0
M  V30 20 C -3.220624 1.079575 3.980481 0
M  V30 21 C -3.936820 1.088905 2.806965 0
M  V30 22 C -3.850713 0.053215 1.899445 0
M  V30 23 C -3.018780 -0.970291 2.235927 0
M  V30 24 C -2.290607 -0.994180 3.414342 0
M  V30 25 F -1.510381 -2.111584 3.568676 0
M  V30 26 C 1.148674 0.078109 2.159989 0
M  V30 27 Cl 1.850885 -0.858279 3.423167 0
M  V30 28 C 1.245215 -0.279116 0.847304 0
M  V30 29 C 1.051238 -3.319400 -4.539048 0
M  V30 30 N 1.513636 -4.427040 -5.204099 0
M  V30 31 H 4.717714 -3.411501 -5.695570 0
M  V30 32 H 0.872790 -0.404938 -4.199122 0
M  V30 33 H 0.336489 0.806448 -2.236014 0
M  V30 34 H -0.394467 2.225507 -0.584402 0
M  V30 35 H -0.607116 2.918324 1.667381 0
M  V30 36 H 0.925488 2.757807 3.869277 0
M  V30 37 H -0.763041 2.329045 3.927966 0
M  V30 38 H 1.589571 1.023230 5.362259 0
M  V30 39 H 0.126215 1.768994 5.952781 0
M  V30 40 H 0.368816 -0.778067 5.966364 0
M  V30 41 H -1.899401 0.402143 6.412374 0
M  V30 42 H -1.779653 -1.277071 5.849911 0
M  V30 43 H -3.222462 1.845210 4.754165 0
M  V30 44 H -4.567225 1.959920 2.648028 0
M  V30 45 H -4.420113 0.084111 0.991391 0
M  V30 46 H -2.962348 -1.777970 1.510068 0
M  V30 47 H 1.777112 -1.191995 0.648844 0
M  V30 48 H -0.000676 -3.399273 -4.259254 0
M  V30 END ATOM
M  V30 BEGIN BOND
M  V30 1 3 1 2
M  V30 2 1 2 3
M  V30 3 2 3 4
M  V30 4 1 4 5
M  V30 5 2 5 6
M  V30 6 1 6 7
M  V30 7 1 7 8
M  V30 8 2 8 9
M  V30 9 1 8 10
M  V30 10 1 10 11
M  V30 11 2 11 12
M  V30 12 1 12 13
M  V30 13 2 13 14
M  V30 14 1 14 15
M  V30 15 1 15 16
M  V30 16 1 16 17
M  V30 17 1 17 18
M  V30 18 1 18 19
M  V30 19 2 19 20
M  V30 20 1 20 21
M  V30 21 2 21 22
M  V30 22 1 22 23
M  V30 23 2 23 24
M  V30 24 1 24 25
M  V30 25 1 14 26
M  V30 26 1 26 27
M  V30 27 2 26 28
M  V30 28 1 6 29
M  V30 29 2 29 30
M  V30 30 1 30 3
M  V30 31 1 28 11
M  V30 32 1 24 19
M  V30 33 1 4 31
M  V30 34 1 7 32
M  V30 35 1 10 33
M  V30 36 1 12 34
M  V30 37 1 13 35
M  V30 38 1 15 36
M  V30 39 1 15 37
M  V30 40 1 16 38
M  V30 41 1 16 39
M  V30 42 1 17 40
M  V30 43 1 18 41
M  V30 44 1 18 42
M  V30 45 1 20 43
M  V30 46 1 21 44
M  V30 47 1 22 45
M  V30 48 1 23 46
M  V30 49 1 28 47
M  V30 50 1 29 48
M  V30 END BOND
M  V30 END CTAB
M  END
>  <Dataset>  (568) 
ChEMBL_Kinases

>  <Ligand_Instance>  (568) 
nan

>  <PDB_ID>  (568) 
nan

>  <Standardized_SMILES>  (568) 
N#Cc1cnc(NC(=O)Nc2ccc(CCNCc3ccccc3F)c(Cl)c2)cn1

>  <Name>  (568) 
nan

>  <Pocket>  (568) 
nan

>  <ATP_Site>  (568) 
nan

>  <Peripheral>  (568) 
nan

>  <Num_H_Atoms_ProtBoundConf>  (568) 
nan

>  <Num_Resolved_Atoms>  (568) 
nan

>  <Num_Not_Resolved_Atoms>  (568) 
nan

$$$$
CHEMBL3694356
     RDKit          3D

  0  0  0  0  0  0  0  0  0  0999 V3000
M  V30 BEGIN CTAB
M  V30 COUNTS 49 51 0 0 0
M  V30 BEGIN ATOM
M  V30 1 C -0.432273 -2.169029 4.338111 0
M  V30 2 O -1.206433 -1.566621 3.301677 0
M  V30 3 C -0.820874 -0.319301 2.828877 0
M  V30 4 C 0.284127 0.385271 3.308347 0
M  V30 5 C 0.643644 1.640344 2.808681 0
M  V30 6 C 1.820275 2.149050 3.521008 0
M  V30 7 N 3.091647 1.761869 3.141104 0
M  V30 8 C 3.693565 2.038425 1.919752 0
M  V30 9 C 3.160025 1.423729 0.693783 0
M  V30 10 C 3.700438 0.137868 0.546270 0
M  V30 11 C 3.391867 -0.675118 -0.543288 0
M  V30 12 C 2.536054 -0.240089 -1.524516 0
M  V30 13 C 2.003963 1.023552 -1.381222 0
M  V30 14 C 2.314039 1.802446 -0.315312 0
M  V30 15 C -0.166253 2.133226 1.812334 0
M  V30 16 C -1.250184 1.441423 1.342353 0
M  V30 17 C -1.599231 0.223940 1.826720 0
M  V30 18 N -2.731484 -0.473853 1.319919 0
M  V30 19 C -2.467721 -1.333136 0.222809 0
M  V30 20 O -1.363053 -1.525776 -0.321430 0
M  V30 21 N -3.518244 -2.100661 -0.390222 0
M  V30 22 C -3.323291 -2.984408 -1.496778 0
M  V30 23 C -3.401026 -2.703092 -2.845811 0
M  V30 24 N -3.179419 -3.692943 -3.731307 0
M  V30 25 C -2.888796 -4.927715 -3.297091 0
M  V30 26 C -2.656698 -5.966738 -4.281196 0
M  V30 27 N -2.478660 -6.790078 -5.069126 0
M  V30 28 C -2.801631 -5.249552 -1.945495 0
M  V30 29 N -3.025990 -4.248577 -1.078423 0
M  V30 30 H 0.587176 -2.353584 3.982866 0
M  V30 31 H -0.391458 -1.438961 5.192212 0
M  V30 32 H -0.908958 -3.064948 4.741266 0
M  V30 33 H 0.793105 -0.185893 4.101642 0
M  V30 34 H 1.715313 2.001366 4.638503 0
M  V30 35 H 1.767949 3.289513 3.420673 0
M  V30 36 H 3.649604 1.205027 3.825989 0
M  V30 37 H 4.831631 1.916234 1.945141 0
M  V30 38 H 3.601484 3.171555 1.755222 0
M  V30 39 H 4.388695 -0.376399 1.210713 0
M  V30 40 H 3.781330 -1.670472 -0.701695 0
M  V30 41 H 2.213611 -0.758494 -2.411786 0
M  V30 42 H 1.313630 1.489368 -2.085568 0
M  V30 43 H 1.958004 2.822284 -0.091556 0
M  V30 44 H 0.198984 3.110164 1.498579 0
M  V30 45 H -1.802701 1.938571 0.559696 0
M  V30 46 H -3.719896 -0.442448 1.639245 0
M  V30 47 H -4.503206 -2.038434 -0.035224 0
M  V30 48 H -3.645040 -1.659821 -3.046079 0
M  V30 49 H -2.564741 -6.256537 -1.604769 0
M  V30 END ATOM
M  V30 BEGIN BOND
M  V30 1 1 1 2
M  V30 2 1 2 3
M  V30 3 2 3 4
M  V30 4 1 4 5
M  V30 5 1 5 6
M  V30 6 1 6 7
M  V30 7 1 7 8
M  V30 8 1 8 9
M  V30 9 2 9 10
M  V30 10 1 10 11
M  V30 11 2 11 12
M  V30 12 1 12 13
M  V30 13 2 13 14
M  V30 14 2 5 15
M  V30 15 1 15 16
M  V30 16 2 16 17
M  V30 17 1 17 18
M  V30 18 1 18 19
M  V30 19 2 19 20
M  V30 20 1 19 21
M  V30 21 1 21 22
M  V30 22 2 22 23
M  V30 23 1 23 24
M  V30 24 2 24 25
M  V30 25 1 25 26
M  V30 26 3 26 27
M  V30 27 1 25 28
M  V30 28 2 28 29
M  V30 29 1 17 3
M  V30 30 1 29 22
M  V30 31 1 14 9
M  V30 32 1 1 30
M  V30 33 1 1 31
M  V30 34 1 1 32
M  V30 35 1 4 33
M  V30 36 1 6 34
M  V30 37 1 6 35
M  V30 38 1 7 36
M  V30 39 1 8 37
M  V30 40 1 8 38
M  V30 41 1 10 39
M  V30 42 1 11 40
M  V30 43 1 12 41
M  V30 44 1 13 42
M  V30 45 1 14 43
M  V30 46 1 15 44
M  V30 47 1 16 45
M  V30 48 1 18 46
M  V30 49 1 21 47
M  V30 50 1 23 48
M  V30 51 1 28 49
M  V30 END BOND
M  V30 END CTAB
M  END
>  <Dataset>  (569) 
ChEMBL_Kinases

>  <Ligand_Instance>  (569) 
nan

>  <PDB_ID>  (569) 
nan

>  <Standardized_SMILES>  (569) 
COc1cc(CNCc2ccccc2)ccc1NC(=O)Nc1cnc(C#N)cn1

>  <Name>  (569) 
nan

>  <Pocket>  (569) 
nan

>  <ATP_Site>  (569) 
nan

>  <Peripheral>  (569) 
nan

>  <Num_H_Atoms_ProtBoundConf>  (569) 
nan

>  <Num_Resolved_Atoms>  (569) 
nan

>  <Num_Not_Resolved_Atoms>  (569) 
nan

$$$$
CHEMBL3694355
     RDKit          3D

  0  0  0  0  0  0  0  0  0  0999 V3000
M  V30 BEGIN CTAB
M  V30 COUNTS 53 55 0 0 0
M  V30 BEGIN ATOM
M  V30 1 C 0.744857 -2.253284 3.890207 0
M  V30 2 O -0.006095 -2.393574 2.693280 0
M  V30 3 C 0.504203 -2.065781 1.450467 0
M  V30 4 C 1.791161 -1.588662 1.406983 0
M  V30 5 C 2.426364 -1.223852 0.244598 0
M  V30 6 O 3.686824 -0.733141 0.010100 0
M  V30 7 C 4.692830 -0.432704 0.900712 0
M  V30 8 C 4.487404 0.700735 1.854694 0
M  V30 9 N 4.301235 1.972320 1.296015 0
M  V30 10 C 3.164421 2.370229 0.599895 0
M  V30 11 C 1.943792 2.646508 1.373466 0
M  V30 12 C 0.802455 1.983713 1.716917 0
M  V30 13 C -0.209189 2.459268 2.493486 0
M  V30 14 C -0.116313 3.742489 3.010562 0
M  V30 15 F -1.131536 4.178842 3.771195 0
M  V30 16 C 1.004397 4.483440 2.712501 0
M  V30 17 C 2.002254 3.928949 1.909090 0
M  V30 18 C 1.672411 -1.368225 -0.927544 0
M  V30 19 C 0.376249 -1.851985 -0.856690 0
M  V30 20 C -0.240292 -2.209125 0.302114 0
M  V30 21 N -1.547856 -2.707890 0.475196 0
M  V30 22 C -2.535998 -2.957162 -0.511428 0
M  V30 23 O -2.286798 -2.728108 -1.720130 0
M  V30 24 N -3.829944 -3.460135 -0.254397 0
M  V30 25 C -4.766954 -3.683664 -1.304122 0
M  V30 26 C -4.945389 -4.851447 -2.043574 0
M  V30 27 N -5.890165 -4.871999 -3.007314 0
M  V30 28 C -6.664278 -3.790241 -3.270754 0
M  V30 29 C -7.666874 -3.834537 -4.304862 0
M  V30 30 N -8.485936 -3.864436 -5.122265 0
M  V30 31 C -6.492874 -2.615012 -2.534744 0
M  V30 32 N -5.546620 -2.594830 -1.569680 0
M  V30 33 H 0.145703 -2.430196 4.781456 0
M  V30 34 H 1.588519 -2.968942 3.815392 0
M  V30 35 H 1.111514 -1.192713 3.886895 0
M  V30 36 H 2.367535 -1.487028 2.299033 0
M  V30 37 H 4.897068 -1.353871 1.542453 0
M  V30 38 H 5.648920 -0.327332 0.327067 0
M  V30 39 H 5.411207 0.762051 2.521325 0
M  V30 40 H 3.687726 0.408787 2.595133 0
M  V30 41 H 5.181059 2.485064 1.075478 0
M  V30 42 H 3.394949 3.269246 -0.056098 0
M  V30 43 H 2.836508 1.611423 -0.183231 0
M  V30 44 H 0.809701 1.007253 1.261732 0
M  V30 45 H -1.022016 1.769988 2.641859 0
M  V30 46 H 1.009183 5.458667 3.142042 0
M  V30 47 H 2.809766 4.669164 1.785821 0
M  V30 48 H 2.061283 -1.112521 -1.926821 0
M  V30 49 H -0.171779 -1.949646 -1.776435 0
M  V30 50 H -1.920412 -2.951811 1.418731 0
M  V30 51 H -4.092988 -3.670205 0.743836 0
M  V30 52 H -4.297164 -5.647314 -1.770114 0
M  V30 53 H -7.107960 -1.750746 -2.741922 0
M  V30 END ATOM
M  V30 BEGIN BOND
M  V30 1 1 1 2
M  V30 2 1 2 3
M  V30 3 2 3 4
M  V30 4 1 4 5
M  V30 5 1 5 6
M  V30 6 1 6 7
M  V30 7 1 7 8
M  V30 8 1 8 9
M  V30 9 1 9 10
M  V30 10 1 10 11
M  V30 11 2 11 12
M  V30 12 1 12 13
M  V30 13 2 13 14
M  V30 14 1 14 15
M  V30 15 1 14 16
M  V30 16 2 16 17
M  V30 17 2 5 18
M  V30 18 1 18 19
M  V30 19 2 19 20
M  V30 20 1 20 21
M  V30 21 1 21 22
M  V30 22 2 22 23
M  V30 23 1 22 24
M  V30 24 1 24 25
M  V30 25 2 25 26
M  V30 26 1 26 27
M  V30 27 2 27 28
M  V30 28 1 28 29
M  V30 29 3 29 30
M  V30 30 1 28 31
M  V30 31 2 31 32
M  V30 32 1 20 3
M  V30 33 1 32 25
M  V30 34 1 17 11
M  V30 35 1 1 33
M  V30 36 1 1 34
M  V30 37 1 1 35
M  V30 38 1 4 36
M  V30 39 1 7 37
M  V30 40 1 7 38
M  V30 41 1 8 39
M  V30 42 1 8 40
M  V30 43 1 9 41
M  V30 44 1 10 42
M  V30 45 1 10 43
M  V30 46 1 12 44
M  V30 47 1 13 45
M  V30 48 1 16 46
M  V30 49 1 17 47
M  V30 50 1 18 48
M  V30 51 1 19 49
M  V30 52 1 21 50
M  V30 53 1 24 51
M  V30 54 1 26 52
M  V30 55 1 31 53
M  V30 END BOND
M  V30 END CTAB
M  END
>  <Dataset>  (570) 
ChEMBL_Kinases

>  <Ligand_Instance>  (570) 
nan

>  <PDB_ID>  (570) 
nan

>  <Standardized_SMILES>  (570) 
COc1cc(OCCNCc2ccc(F)cc2)ccc1NC(=O)Nc1cnc(C#N)cn1

>  <Name>  (570) 
nan

>  <Pocket>  (570) 
nan

>  <ATP_Site>  (570) 
nan

>  <Peripheral>  (570) 
nan

>  <Num_H_Atoms_ProtBoundConf>  (570) 
nan

>  <Num_Resolved_Atoms>  (570) 
nan

>  <Num_Not_Resolved_Atoms>  (570) 
nan

$$$$
CHEMBL3694354
     RDKit          3D

  0  0  0  0  0  0  0  0  0  0999 V3000
M  V30 BEGIN CTAB
M  V30 COUNTS 52 54 0 0 0
M  V30 BEGIN ATOM
M  V30 1 C -2.594902 1.697141 1.265940 0
M  V30 2 O -2.662485 0.288232 1.490970 0
M  V30 3 C -1.680171 -0.278149 2.291910 0
M  V30 4 C -0.634029 0.405953 2.895833 0
M  V30 5 C 0.291608 -0.242780 3.672815 0
M  V30 6 C 1.406270 0.479551 4.317587 0
M  V30 7 C 2.630621 0.531524 3.419464 0
M  V30 8 N 2.297531 1.221822 2.165685 0
M  V30 9 C 3.426435 1.295228 1.284276 0
M  V30 10 C 3.114388 1.991709 0.004449 0
M  V30 11 C 3.318721 3.368286 0.000514 0
M  V30 12 C 3.081961 4.169937 -1.096081 0
M  V30 13 C 2.618830 3.544393 -2.233273 0
M  V30 14 F 2.383156 4.343173 -3.325185 0
M  V30 15 C 2.402274 2.179917 -2.272497 0
M  V30 16 C 2.651224 1.404750 -1.150575 0
M  V30 17 C 0.198347 -1.624201 3.874451 0
M  V30 18 C -0.853254 -2.314492 3.267884 0
M  V30 19 C -1.774748 -1.640468 2.488925 0
M  V30 20 N -2.779195 -2.513380 1.950876 0
M  V30 21 C -2.496456 -3.091599 0.692935 0
M  V30 22 O -1.415349 -2.838380 0.098033 0
M  V30 23 N -3.366725 -3.980481 0.000001 0
M  V30 24 C -3.032851 -4.536306 -1.268321 0
M  V30 25 C -2.348717 -5.748063 -1.221865 0
M  V30 26 N -1.976288 -6.375411 -2.371894 0
M  V30 27 C -2.273125 -5.817018 -3.579121 0
M  V30 28 C -1.884498 -6.470536 -4.819555 0
M  V30 29 N -1.569770 -7.001988 -5.802648 0
M  V30 30 C -2.961397 -4.598185 -3.616616 0
M  V30 31 N -3.328627 -3.979710 -2.478320 0
M  V30 32 H -1.668464 1.896144 0.695448 0
M  V30 33 H -3.470313 2.029091 0.671208 0
M  V30 34 H -2.615446 2.257931 2.232051 0
M  V30 35 H -0.591816 1.474924 2.718722 0
M  V30 36 H 1.116641 1.504746 4.640993 0
M  V30 37 H 1.717050 -0.057477 5.240474 0
M  V30 38 H 3.454600 1.095785 3.887174 0
M  V30 39 H 2.968207 -0.499802 3.222125 0
M  V30 40 H 1.878139 2.137732 2.365602 0
M  V30 41 H 3.769495 0.250290 1.084012 0
M  V30 42 H 4.314448 1.790431 1.744034 0
M  V30 43 H 3.683505 3.879105 0.887907 0
M  V30 44 H 3.261261 5.251658 -1.041540 0
M  V30 45 H 2.041543 1.710605 -3.166490 0
M  V30 46 H 2.503852 0.334415 -1.112127 0
M  V30 47 H 0.947384 -2.103369 4.494336 0
M  V30 48 H -0.860620 -3.380049 3.468854 0
M  V30 49 H -3.695939 -2.770898 2.382108 0
M  V30 50 H -4.273081 -4.212863 0.464387 0
M  V30 51 H -2.096848 -6.219765 -0.273973 0
M  V30 52 H -3.208039 -4.135646 -4.568215 0
M  V30 END ATOM
M  V30 BEGIN BOND
M  V30 1 1 1 2
M  V30 2 1 2 3
M  V30 3 2 3 4
M  V30 4 1 4 5
M  V30 5 1 5 6
M  V30 6 1 6 7
M  V30 7 1 7 8
M  V30 8 1 8 9
M  V30 9 1 9 10
M  V30 10 2 10 11
M  V30 11 1 11 12
M  V30 12 2 12 13
M  V30 13 1 13 14
M  V30 14 1 13 15
M  V30 15 2 15 16
M  V30 16 2 5 17
M  V30 17 1 17 18
M  V30 18 2 18 19
M  V30 19 1 19 20
M  V30 20 1 20 21
M  V30 21 2 21 22
M  V30 22 1 21 23
M  V30 23 1 23 24
M  V30 24 2 24 25
M  V30 25 1 25 26
M  V30 26 2 26 27
M  V30 27 1 27 28
M  V30 28 3 28 29
M  V30 29 1 27 30
M  V30 30 2 30 31
M  V30 31 1 19 3
M  V30 32 1 31 24
M  V30 33 1 16 10
M  V30 34 1 1 32
M  V30 35 1 1 33
M  V30 36 1 1 34
M  V30 37 1 4 35
M  V30 38 1 6 36
M  V30 39 1 6 37
M  V30 40 1 7 38
M  V30 41 1 7 39
M  V30 42 1 8 40
M  V30 43 1 9 41
M  V30 44 1 9 42
M  V30 45 1 11 43
M  V30 46 1 12 44
M  V30 47 1 15 45
M  V30 48 1 16 46
M  V30 49 1 17 47
M  V30 50 1 18 48
M  V30 51 1 20 49
M  V30 52 1 23 50
M  V30 53 1 25 51
M  V30 54 1 30 52
M  V30 END BOND
M  V30 END CTAB
M  END
>  <Dataset>  (571) 
ChEMBL_Kinases

>  <Ligand_Instance>  (571) 
nan

>  <PDB_ID>  (571) 
nan

>  <Standardized_SMILES>  (571) 
COc1cc(CCNCc2ccc(F)cc2)ccc1NC(=O)Nc1cnc(C#N)cn1

>  <Name>  (571) 
nan

>  <Pocket>  (571) 
nan

>  <ATP_Site>  (571) 
nan

>  <Peripheral>  (571) 
nan

>  <Num_H_Atoms_ProtBoundConf>  (571) 
nan

>  <Num_Resolved_Atoms>  (571) 
nan

>  <Num_Not_Resolved_Atoms>  (571) 
nan

$$$$
CHEMBL3694353
     RDKit          3D

  0  0  0  0  0  0  0  0  0  0999 V3000
M  V30 BEGIN CTAB
M  V30 COUNTS 52 54 0 0 0
M  V30 BEGIN ATOM
M  V30 1 C -1.988786 -0.580465 4.251366 0
M  V30 2 O -1.430032 -1.538715 3.400089 0
M  V30 3 C -0.142730 -1.598318 2.944195 0
M  V30 4 C 0.886146 -0.736228 3.217338 0
M  V30 5 C 2.196176 -0.819703 2.737247 0
M  V30 6 C 3.083506 0.272418 3.189562 0
M  V30 7 C 3.241922 1.352787 2.164315 0
M  V30 8 N 3.844657 0.860311 0.954124 0
M  V30 9 C 3.940685 1.913238 -0.056479 0
M  V30 10 C 2.572119 2.391808 -0.351072 0
M  V30 11 C 1.875218 1.731349 -1.345400 0
M  V30 12 C 0.602435 2.053812 -1.746241 0
M  V30 13 C -0.055609 3.102814 -1.136777 0
M  V30 14 C 0.615666 3.779212 -0.141910 0
M  V30 15 F 0.094564 4.835887 0.549605 0
M  V30 16 C 1.894863 3.453468 0.259635 0
M  V30 17 C 2.390523 -1.897260 1.920370 0
M  V30 18 Cl 4.005437 -2.094335 1.296932 0
M  V30 19 C 1.414896 -2.796653 1.603545 0
M  V30 20 C 0.136885 -2.672278 2.101427 0
M  V30 21 N -0.845865 -3.634419 1.742814 0
M  V30 22 C -1.594151 -3.322539 0.567708 0
M  V30 23 O -1.452319 -2.308972 -0.134541 0
M  V30 24 N -2.612708 -4.200730 0.091421 0
M  V30 25 C -3.409293 -3.971642 -1.069592 0
M  V30 26 C -4.375422 -4.914762 -1.433514 0
M  V30 27 N -5.122894 -4.666822 -2.549875 0
M  V30 28 C -4.910623 -3.534131 -3.260145 0
M  V30 29 C -5.759566 -3.385925 -4.414942 0
M  V30 30 N -6.449415 -3.250777 -5.350641 0
M  V30 31 C -3.956504 -2.595049 -2.907346 0
M  V30 32 N -3.210959 -2.845981 -1.790812 0
M  V30 33 H -2.337536 -1.019841 5.219777 0
M  V30 34 H -2.945829 -0.218237 3.773035 0
M  V30 35 H -1.376254 0.301821 4.433314 0
M  V30 36 H 0.568478 0.074181 3.887637 0
M  V30 37 H 2.722353 0.688680 4.158525 0
M  V30 38 H 4.113149 -0.151373 3.413428 0
M  V30 39 H 3.877294 2.192703 2.535327 0
M  V30 40 H 2.202013 1.731688 1.952384 0
M  V30 41 H 4.874628 0.677033 1.214157 0
M  V30 42 H 4.388096 1.529824 -0.990096 0
M  V30 43 H 4.558734 2.771873 0.327132 0
M  V30 44 H 2.277334 0.883769 -1.909187 0
M  V30 45 H 0.045675 1.550476 -2.517963 0
M  V30 46 H -1.052743 3.485546 -1.330502 0
M  V30 47 H 2.462226 3.951542 1.032600 0
M  V30 48 H 1.692290 -3.615337 0.940304 0
M  V30 49 H -1.040290 -4.518175 2.270600 0
M  V30 50 H -2.753592 -5.053385 0.655665 0
M  V30 51 H -4.512923 -5.806790 -0.837826 0
M  V30 52 H -3.877585 -1.733942 -3.547024 0
M  V30 END ATOM
M  V30 BEGIN BOND
M  V30 1 1 1 2
M  V30 2 1 2 3
M  V30 3 2 3 4
M  V30 4 1 4 5
M  V30 5 1 5 6
M  V30 6 1 6 7
M  V30 7 1 7 8
M  V30 8 1 8 9
M  V30 9 1 9 10
M  V30 10 2 10 11
M  V30 11 1 11 12
M  V30 12 2 12 13
M  V30 13 1 13 14
M  V30 14 1 14 15
M  V30 15 2 14 16
M  V30 16 2 5 17
M  V30 17 1 17 18
M  V30 18 1 17 19
M  V30 19 2 19 20
M  V30 20 1 20 21
M  V30 21 1 21 22
M  V30 22 2 22 23
M  V30 23 1 22 24
M  V30 24 1 24 25
M  V30 25 2 25 26
M  V30 26 1 26 27
M  V30 27 2 27 28
M  V30 28 1 28 29
M  V30 29 3 29 30
M  V30 30 1 28 31
M  V30 31 2 31 32
M  V30 32 1 20 3
M  V30 33 1 32 25
M  V30 34 1 16 10
M  V30 35 1 1 33
M  V30 36 1 1 34
M  V30 37 1 1 35
M  V30 38 1 4 36
M  V30 39 1 6 37
M  V30 40 1 6 38
M  V30 41 1 7 39
M  V30 42 1 7 40
M  V30 43 1 8 41
M  V30 44 1 9 42
M  V30 45 1 9 43
M  V30 46 1 11 44
M  V30 47 1 12 45
M  V30 48 1 13 46
M  V30 49 1 16 47
M  V30 50 1 19 48
M  V30 51 1 21 49
M  V30 52 1 24 50
M  V30 53 1 26 51
M  V30 54 1 31 52
M  V30 END BOND
M  V30 END CTAB
M  END
>  <Dataset>  (572) 
ChEMBL_Kinases

>  <Ligand_Instance>  (572) 
nan

>  <PDB_ID>  (572) 
nan

>  <Standardized_SMILES>  (572) 
COc1cc(CCNCc2cccc(F)c2)c(Cl)cc1NC(=O)Nc1cnc(C#N)cn1

>  <Name>  (572) 
nan

>  <Pocket>  (572) 
nan

>  <ATP_Site>  (572) 
nan

>  <Peripheral>  (572) 
nan

>  <Num_H_Atoms_ProtBoundConf>  (572) 
nan

>  <Num_Resolved_Atoms>  (572) 
nan

>  <Num_Not_Resolved_Atoms>  (572) 
nan

$$$$
CHEMBL3694352
     RDKit          3D

  0  0  0  0  0  0  0  0  0  0999 V3000
M  V30 BEGIN CTAB
M  V30 COUNTS 51 53 0 0 0
M  V30 BEGIN ATOM
M  V30 1 C -1.208320 -3.713856 3.721064 0
M  V30 2 C 0.136662 -3.844361 3.007075 0 CFG=2
M  V30 3 N 0.959395 -2.697081 3.447275 0
M  V30 4 C 2.258377 -2.826990 2.845090 0
M  V30 5 C 3.122703 -1.643970 3.164675 0
M  V30 6 C 2.541550 -0.400422 2.612080 0
M  V30 7 C 3.146138 -0.036299 1.420651 0
M  V30 8 C 2.782960 1.064647 0.688531 0
M  V30 9 C 1.757950 1.850605 1.169181 0
M  V30 10 N 1.231856 3.038969 0.540002 0
M  V30 11 C 0.170929 2.678844 -0.342402 0
M  V30 12 O -0.091150 1.455146 -0.401951 0
M  V30 13 N -0.611179 3.555151 -1.152340 0
M  V30 14 C -1.645900 3.068008 -1.996876 0
M  V30 15 C -2.910287 2.953434 -1.509587 0
M  V30 16 N -3.902379 2.489958 -2.298214 0
M  V30 17 C -3.619352 2.146816 -3.563484 0
M  V30 18 C -4.631184 1.637965 -4.474893 0
M  V30 19 N -5.440388 1.244269 -5.220156 0
M  V30 20 C -2.345414 2.247145 -4.102158 0
M  V30 21 N -1.357805 2.717801 -3.288077 0
M  V30 22 C 1.119008 1.537896 2.350825 0
M  V30 23 C 1.533190 0.420562 3.034699 0
M  V30 24 Cl 0.785332 -0.020158 4.543083 0
M  V30 25 C -0.091472 -3.733467 1.552923 0
M  V30 26 C 0.026179 -4.717348 0.612503 0
M  V30 27 C -0.204292 -4.558844 -0.735752 0
M  V30 28 C -0.579706 -3.282519 -1.094069 0
M  V30 29 F -0.837953 -2.992875 -2.398937 0
M  V30 30 C -0.724274 -2.236681 -0.231628 0
M  V30 31 C -0.472391 -2.479603 1.115505 0
M  V30 32 H -1.186146 -4.269386 4.668958 0
M  V30 33 H -1.432513 -2.635914 3.862111 0
M  V30 34 H -1.979555 -4.182404 3.065717 0
M  V30 35 H 0.575052 -4.806768 3.309876 0
M  V30 36 H 1.100395 -2.917919 4.480553 0
M  V30 37 H 2.773170 -3.772998 3.183587 0
M  V30 38 H 2.204224 -2.935613 1.729402 0
M  V30 39 H 4.177832 -1.787113 2.891551 0
M  V30 40 H 3.082554 -1.544850 4.297826 0
M  V30 41 H 3.970884 -0.575098 0.931295 0
M  V30 42 H 3.228656 1.381324 -0.243280 0
M  V30 43 H 1.450466 4.054877 0.589743 0
M  V30 44 H -0.319227 4.572968 -1.036936 0
M  V30 45 H -3.112440 3.228603 -0.511087 0
M  V30 46 H -2.112496 1.970155 -5.126571 0
M  V30 47 H 0.309143 2.102627 2.792072 0
M  V30 48 H 0.329087 -5.687512 1.005736 0
M  V30 49 H -0.097446 -5.368060 -1.434227 0
M  V30 50 H -1.023201 -1.234897 -0.543488 0
M  V30 51 H -0.589521 -1.641471 1.797184 0
M  V30 END ATOM
M  V30 BEGIN BOND
M  V30 1 1 1 2
M  V30 2 1 2 3
M  V30 3 1 3 4
M  V30 4 1 4 5
M  V30 5 1 5 6
M  V30 6 2 6 7
M  V30 7 1 7 8
M  V30 8 2 8 9
M  V30 9 1 9 10
M  V30 10 1 10 11
M  V30 11 2 11 12
M  V30 12 1 11 13
M  V30 13 1 13 14
M  V30 14 2 14 15
M  V30 15 1 15 16
M  V30 16 2 16 17
M  V30 17 1 17 18
M  V30 18 3 18 19
M  V30 19 1 17 20
M  V30 20 2 20 21
M  V30 21 1 9 22
M  V30 22 2 22 23
M  V30 23 1 23 24
M  V30 24 1 2 25
M  V30 25 2 25 26
M  V30 26 1 26 27
M  V30 27 2 27 28
M  V30 28 1 28 29
M  V30 29 1 28 30
M  V30 30 2 30 31
M  V30 31 1 23 6
M  V30 32 1 31 25
M  V30 33 1 21 14
M  V30 34 1 1 32
M  V30 35 1 1 33
M  V30 36 1 1 34
M  V30 37 1 2 35 CFG=3
M  V30 38 1 3 36
M  V30 39 1 4 37
M  V30 40 1 4 38
M  V30 41 1 5 39
M  V30 42 1 5 40
M  V30 43 1 7 41
M  V30 44 1 8 42
M  V30 45 1 10 43
M  V30 46 1 13 44
M  V30 47 1 15 45
M  V30 48 1 20 46
M  V30 49 1 22 47
M  V30 50 1 26 48
M  V30 51 1 27 49
M  V30 52 1 30 50
M  V30 53 1 31 51
M  V30 END BOND
M  V30 END CTAB
M  END
>  <Dataset>  (573) 
ChEMBL_Kinases

>  <Ligand_Instance>  (573) 
nan

>  <PDB_ID>  (573) 
nan

>  <Standardized_SMILES>  (573) 
C[C@H](NCCc1ccc(NC(=O)Nc2cnc(C#N)cn2)cc1Cl)c1ccc(F)cc1

>  <Name>  (573) 
nan

>  <Pocket>  (573) 
nan

>  <ATP_Site>  (573) 
nan

>  <Peripheral>  (573) 
nan

>  <Num_H_Atoms_ProtBoundConf>  (573) 
nan

>  <Num_Resolved_Atoms>  (573) 
nan

>  <Num_Not_Resolved_Atoms>  (573) 
nan

$$$$
CHEMBL3694351
     RDKit          3D

  0  0  0  0  0  0  0  0  0  0999 V3000
M  V30 BEGIN CTAB
M  V30 COUNTS 51 53 0 0 0
M  V30 BEGIN ATOM
M  V30 1 N 5.990219 -7.895684 1.296580 0
M  V30 2 C 5.723936 -6.849908 0.886145 0
M  V30 3 C 5.391390 -5.564508 0.357519 0
M  V30 4 C 6.027644 -5.049296 -0.745853 0
M  V30 5 N 5.698001 -3.846400 -1.219434 0
M  V30 6 C 4.750790 -3.057723 -0.682928 0
M  V30 7 N 4.494487 -1.801671 -1.279837 0
M  V30 8 C 3.586249 -0.800335 -0.941497 0
M  V30 9 O 2.866378 -1.004812 0.038076 0
M  V30 10 N 3.410072 0.433887 -1.617048 0
M  V30 11 C 2.382015 1.234028 -0.995681 0
M  V30 12 C 2.742675 2.112152 0.003617 0
M  V30 13 C 1.699710 2.831123 0.539587 0
M  V30 14 C 0.340243 2.774018 0.192975 0
M  V30 15 C -0.598408 3.631629 0.928977 0
M  V30 16 C -1.347654 2.916541 2.025719 0
M  V30 17 N -2.186472 1.828818 1.566130 0
M  V30 18 C -2.799575 1.143588 2.707721 0
M  V30 19 C -3.655249 0.031885 2.282737 0
M  V30 20 C -5.005286 0.079525 1.986697 0
M  V30 21 C -5.707101 -1.054506 1.592839 0
M  V30 22 C -5.085336 -2.277371 1.480472 0
M  V30 23 C -5.804624 -3.506708 1.062442 0
M  V30 24 F -5.064047 -4.621304 1.353730 0
M  V30 25 F -7.010059 -3.604122 1.707832 0
M  V30 26 F -6.020011 -3.460946 -0.295755 0
M  V30 27 C -3.747348 -2.371556 1.764120 0
M  V30 28 C -3.083352 -1.237370 2.149466 0
M  V30 29 C 0.112229 1.865819 -0.811038 0
M  V30 30 Cl -1.530051 1.701818 -1.367544 0
M  V30 31 C 1.076823 1.094357 -1.418293 0
M  V30 32 C 4.130112 -3.593318 0.416877 0
M  V30 33 N 4.423568 -4.798999 0.934187 0
M  V30 34 H 6.807367 -5.607412 -1.252070 0
M  V30 35 H 5.045595 -1.521307 -2.117739 0
M  V30 36 H 4.010261 0.626530 -2.449939 0
M  V30 37 H 3.747717 2.248436 0.358566 0
M  V30 38 H 1.987991 3.533699 1.339521 0
M  V30 39 H -0.011786 4.430515 1.446496 0
M  V30 40 H -1.315206 4.148031 0.244056 0
M  V30 41 H -0.580014 2.427798 2.696958 0
M  V30 42 H -1.888787 3.615238 2.687270 0
M  V30 43 H -3.018877 2.298296 1.065782 0
M  V30 44 H -1.967105 0.741773 3.309495 0
M  V30 45 H -3.446315 1.858697 3.276418 0
M  V30 46 H -5.467178 1.054975 2.083858 0
M  V30 47 H -6.756062 -0.970117 1.372835 0
M  V30 48 H -3.228185 -3.319358 1.685561 0
M  V30 49 H -2.025908 -1.346132 2.366550 0
M  V30 50 H 0.794050 0.405435 -2.202216 0
M  V30 51 H 3.358178 -3.034452 0.913723 0
M  V30 END ATOM
M  V30 BEGIN BOND
M  V30 1 3 1 2
M  V30 2 1 2 3
M  V30 3 2 3 4
M  V30 4 1 4 5
M  V30 5 2 5 6
M  V30 6 1 6 7
M  V30 7 1 7 8
M  V30 8 2 8 9
M  V30 9 1 8 10
M  V30 10 1 10 11
M  V30 11 2 11 12
M  V30 12 1 12 13
M  V30 13 2 13 14
M  V30 14 1 14 15
M  V30 15 1 15 16
M  V30 16 1 16 17
M  V30 17 1 17 18
M  V30 18 1 18 19
M  V30 19 2 19 20
M  V30 20 1 20 21
M  V30 21 2 21 22
M  V30 22 1 22 23
M  V30 23 1 23 24
M  V30 24 1 23 25
M  V30 25 1 23 26
M  V30 26 1 22 27
M  V30 27 2 27 28
M  V30 28 1 14 29
M  V30 29 1 29 30
M  V30 30 2 29 31
M  V30 31 1 6 32
M  V30 32 2 32 33
M  V30 33 1 33 3
M  V30 34 1 31 11
M  V30 35 1 28 19
M  V30 36 1 4 34
M  V30 37 1 7 35
M  V30 38 1 10 36
M  V30 39 1 12 37
M  V30 40 1 13 38
M  V30 41 1 15 39
M  V30 42 1 15 40
M  V30 43 1 16 41
M  V30 44 1 16 42
M  V30 45 1 17 43
M  V30 46 1 18 44
M  V30 47 1 18 45
M  V30 48 1 20 46
M  V30 49 1 21 47
M  V30 50 1 27 48
M  V30 51 1 28 49
M  V30 52 1 31 50
M  V30 53 1 32 51
M  V30 END BOND
M  V30 END CTAB
M  END
>  <Dataset>  (574) 
ChEMBL_Kinases

>  <Ligand_Instance>  (574) 
nan

>  <PDB_ID>  (574) 
nan

>  <Standardized_SMILES>  (574) 
N#Cc1cnc(NC(=O)Nc2ccc(CCNCc3ccc(C(F)(F)F)cc3)c(Cl)c2)cn1

>  <Name>  (574) 
nan

>  <Pocket>  (574) 
nan

>  <ATP_Site>  (574) 
nan

>  <Peripheral>  (574) 
nan

>  <Num_H_Atoms_ProtBoundConf>  (574) 
nan

>  <Num_Resolved_Atoms>  (574) 
nan

>  <Num_Not_Resolved_Atoms>  (574) 
nan

$$$$
CHEMBL3694350
     RDKit          3D

  0  0  0  0  0  0  0  0  0  0999 V3000
M  V30 BEGIN CTAB
M  V30 COUNTS 52 54 0 0 0
M  V30 BEGIN ATOM
M  V30 1 C -0.056780 -1.893971 3.270615 0
M  V30 2 O 0.560330 -0.736409 2.791737 0
M  V30 3 C 1.776589 -0.676752 2.129028 0
M  V30 4 C 2.424479 -1.900798 1.931200 0
M  V30 5 C 3.623625 -1.992473 1.297210 0
M  V30 6 C 4.224012 -0.817975 0.829445 0
M  V30 7 C 3.581087 0.367600 1.029824 0
M  V30 8 C 2.373360 0.503724 1.662063 0
M  V30 9 C 1.576844 1.729309 1.956578 0
M  V30 10 N 2.044644 2.937796 1.471889 0
M  V30 11 C 2.054676 3.348843 0.150230 0
M  V30 12 C 0.769551 3.707604 -0.511759 0
M  V30 13 C -0.266152 2.682125 -0.642450 0
M  V30 14 C -1.471374 2.595170 0.074512 0
M  V30 15 C -2.358630 1.580870 -0.214746 0
M  V30 16 C -2.102764 0.642805 -1.189902 0
M  V30 17 N -3.030230 -0.423086 -1.500062 0
M  V30 18 C -2.743777 -1.596511 -0.712566 0
M  V30 19 O -1.762089 -1.446837 0.066065 0
M  V30 20 N -3.460694 -2.829647 -0.765451 0
M  V30 21 C -3.039138 -3.898626 0.078957 0
M  V30 22 C -2.063336 -4.610766 -0.629550 0
M  V30 23 N -1.448324 -5.706263 -0.096934 0
M  V30 24 C -1.803893 -6.106383 1.159773 0
M  V30 25 C -1.181645 -7.249019 1.763342 0
M  V30 26 N -0.658999 -8.185102 2.242036 0
M  V30 27 C -2.768993 -5.387951 1.838019 0
M  V30 28 N -3.383948 -4.298357 1.314264 0
M  V30 29 C -0.918002 0.693339 -1.924031 0
M  V30 30 C -0.016097 1.723809 -1.630257 0
M  V30 31 Cl 1.425160 1.668149 -2.633560 0
M  V30 32 H 0.373903 -2.275657 4.224097 0
M  V30 33 H 0.013511 -2.680479 2.494245 0
M  V30 34 H -1.144214 -1.672428 3.449092 0
M  V30 35 H 2.031508 -2.852264 2.260411 0
M  V30 36 H 4.148961 -2.922749 1.130104 0
M  V30 37 H 5.177596 -0.813643 0.315373 0
M  V30 38 H 4.036531 1.258583 0.689955 0
M  V30 39 H 1.481042 1.794472 3.087304 0
M  V30 40 H 0.550272 1.481483 1.631872 0
M  V30 41 H 2.584724 3.538517 2.141090 0
M  V30 42 H 2.464033 2.483241 -0.478281 0
M  V30 43 H 2.840712 4.140884 -0.033500 0
M  V30 44 H 1.001509 4.063415 -1.559034 0
M  V30 45 H 0.361820 4.649781 -0.033471 0
M  V30 46 H -1.616087 3.356110 0.826143 0
M  V30 47 H -3.280676 1.523517 0.342699 0
M  V30 48 H -3.827851 -0.492076 -2.153474 0
M  V30 49 H -4.239555 -2.734277 -1.481389 0
M  V30 50 H -1.655295 -4.447606 -1.621360 0
M  V30 51 H -3.078986 -5.663292 2.818285 0
M  V30 52 H -0.758610 -0.056292 -2.671991 0
M  V30 END ATOM
M  V30 BEGIN BOND
M  V30 1 1 1 2
M  V30 2 1 2 3
M  V30 3 2 3 4
M  V30 4 1 4 5
M  V30 5 2 5 6
M  V30 6 1 6 7
M  V30 7 2 7 8
M  V30 8 1 8 9
M  V30 9 1 9 10
M  V30 10 1 10 11
M  V30 11 1 11 12
M  V30 12 1 12 13
M  V30 13 2 13 14
M  V30 14 1 14 15
M  V30 15 2 15 16
M  V30 16 1 16 17
M  V30 17 1 17 18
M  V30 18 2 18 19
M  V30 19 1 18 20
M  V30 20 1 20 21
M  V30 21 2 21 22
M  V30 22 1 22 23
M  V30 23 2 23 24
M  V30 24 1 24 25
M  V30 25 3 25 26
M  V30 26 1 24 27
M  V30 27 2 27 28
M  V30 28 1 16 29
M  V30 29 2 29 30
M  V30 30 1 30 31
M  V30 31 1 8 3
M  V30 32 1 30 13
M  V30 33 1 28 21
M  V30 34 1 1 32
M  V30 35 1 1 33
M  V30 36 1 1 34
M  V30 37 1 4 35
M  V30 38 1 5 36
M  V30 39 1 6 37
M  V30 40 1 7 38
M  V30 41 1 9 39
M  V30 42 1 9 40
M  V30 43 1 10 41
M  V30 44 1 11 42
M  V30 45 1 11 43
M  V30 46 1 12 44
M  V30 47 1 12 45
M  V30 48 1 14 46
M  V30 49 1 15 47
M  V30 50 1 17 48
M  V30 51 1 20 49
M  V30 52 1 22 50
M  V30 53 1 27 51
M  V30 54 1 29 52
M  V30 END BOND
M  V30 END CTAB
M  END
>  <Dataset>  (575) 
ChEMBL_Kinases

>  <Ligand_Instance>  (575) 
nan

>  <PDB_ID>  (575) 
nan

>  <Standardized_SMILES>  (575) 
COc1ccccc1CNCCc1ccc(NC(=O)Nc2cnc(C#N)cn2)cc1Cl

>  <Name>  (575) 
nan

>  <Pocket>  (575) 
nan

>  <ATP_Site>  (575) 
nan

>  <Peripheral>  (575) 
nan

>  <Num_H_Atoms_ProtBoundConf>  (575) 
nan

>  <Num_Resolved_Atoms>  (575) 
nan

>  <Num_Not_Resolved_Atoms>  (575) 
nan

$$$$
CHEMBL3694349
     RDKit          3D

  0  0  0  0  0  0  0  0  0  0999 V3000
M  V30 BEGIN CTAB
M  V30 COUNTS 52 54 0 0 0
M  V30 BEGIN ATOM
M  V30 1 C 0.736464 -6.830684 1.533000 0
M  V30 2 O 1.753448 -6.187100 2.279326 0
M  V30 3 C 2.166629 -4.924073 1.883951 0
M  V30 4 C 1.693882 -4.190540 0.818269 0
M  V30 5 C 2.177970 -2.943778 0.517575 0
M  V30 6 C 3.176002 -2.365552 1.285521 0
M  V30 7 C 3.789390 -1.016719 1.068276 0
M  V30 8 N 3.066091 0.004488 1.801286 0
M  V30 9 C 3.631881 1.310132 1.628605 0
M  V30 10 C 3.501050 1.896039 0.264692 0
M  V30 11 C 2.110736 2.061246 -0.190630 0
M  V30 12 C 1.518517 1.206087 -1.124872 0
M  V30 13 C 0.205894 1.353649 -1.560607 0
M  V30 14 C -0.565291 2.402020 -1.046989 0
M  V30 15 N -1.882323 2.460619 -1.556840 0
M  V30 16 C -2.827253 1.705380 -0.803462 0
M  V30 17 O -2.403761 1.093917 0.192427 0
M  V30 18 N -4.203300 1.600205 -1.102692 0
M  V30 19 C -5.085861 0.822225 -0.304089 0
M  V30 20 C -5.196389 -0.502931 -0.725614 0
M  V30 21 N -5.986767 -1.424808 -0.104722 0
M  V30 22 C -6.697511 -1.037961 0.969980 0
M  V30 23 C -7.565641 -1.916596 1.708572 0
M  V30 24 N -8.267747 -2.634511 2.298132 0
M  V30 25 C -6.607359 0.283442 1.415895 0
M  V30 26 N -5.819917 1.183852 0.790095 0
M  V30 27 C 0.002593 3.260115 -0.120569 0
M  V30 28 C 1.309390 3.087151 0.292299 0
M  V30 29 Cl 1.947502 4.215969 1.464461 0
M  V30 30 C 3.668695 -3.092806 2.370132 0
M  V30 31 C 3.170484 -4.341873 2.655901 0
M  V30 32 H 1.118963 -7.255908 0.575185 0
M  V30 33 H -0.120984 -6.167342 1.292282 0
M  V30 34 H 0.311086 -7.656734 2.149716 0
M  V30 35 H 0.925781 -4.649032 0.237329 0
M  V30 36 H 1.818446 -2.356048 -0.312686 0
M  V30 37 H 4.854047 -1.090580 1.320901 0
M  V30 38 H 3.734547 -0.762094 -0.021746 0
M  V30 39 H 3.151994 -0.225678 2.818004 0
M  V30 40 H 3.345358 2.019706 2.433522 0
M  V30 41 H 4.743672 1.175863 1.795486 0
M  V30 42 H 4.079778 2.834336 0.241154 0
M  V30 43 H 4.010438 1.215291 -0.449222 0
M  V30 44 H 2.164177 0.402471 -1.495951 0
M  V30 45 H -0.161704 0.651072 -2.278271 0
M  V30 46 H -2.260476 2.978293 -2.407237 0
M  V30 47 H -4.472895 2.143636 -1.950913 0
M  V30 48 H -4.650147 -0.901706 -1.594463 0
M  V30 49 H -7.142594 0.703423 2.281004 0
M  V30 50 H -0.647956 4.048748 0.236056 0
M  V30 51 H 4.457586 -2.675213 3.005239 0
M  V30 52 H 3.587725 -4.865649 3.510991 0
M  V30 END ATOM
M  V30 BEGIN BOND
M  V30 1 1 1 2
M  V30 2 1 2 3
M  V30 3 2 3 4
M  V30 4 1 4 5
M  V30 5 2 5 6
M  V30 6 1 6 7
M  V30 7 1 7 8
M  V30 8 1 8 9
M  V30 9 1 9 10
M  V30 10 1 10 11
M  V30 11 2 11 12
M  V30 12 1 12 13
M  V30 13 2 13 14
M  V30 14 1 14 15
M  V30 15 1 15 16
M  V30 16 2 16 17
M  V30 17 1 16 18
M  V30 18 1 18 19
M  V30 19 2 19 20
M  V30 20 1 20 21
M  V30 21 2 21 22
M  V30 22 1 22 23
M  V30 23 3 23 24
M  V30 24 1 22 25
M  V30 25 2 25 26
M  V30 26 1 14 27
M  V30 27 2 27 28
M  V30 28 1 28 29
M  V30 29 1 6 30
M  V30 30 2 30 31
M  V30 31 1 31 3
M  V30 32 1 28 11
M  V30 33 1 26 19
M  V30 34 1 1 32
M  V30 35 1 1 33
M  V30 36 1 1 34
M  V30 37 1 4 35
M  V30 38 1 5 36
M  V30 39 1 7 37
M  V30 40 1 7 38
M  V30 41 1 8 39
M  V30 42 1 9 40
M  V30 43 1 9 41
M  V30 44 1 10 42
M  V30 45 1 10 43
M  V30 46 1 12 44
M  V30 47 1 13 45
M  V30 48 1 15 46
M  V30 49 1 18 47
M  V30 50 1 20 48
M  V30 51 1 25 49
M  V30 52 1 27 50
M  V30 53 1 30 51
M  V30 54 1 31 52
M  V30 END BOND
M  V30 END CTAB
M  END
>  <Dataset>  (576) 
ChEMBL_Kinases

>  <Ligand_Instance>  (576) 
nan

>  <PDB_ID>  (576) 
nan

>  <Standardized_SMILES>  (576) 
COc1ccc(CNCCc2ccc(NC(=O)Nc3cnc(C#N)cn3)cc2Cl)cc1

>  <Name>  (576) 
nan

>  <Pocket>  (576) 
nan

>  <ATP_Site>  (576) 
nan

>  <Peripheral>  (576) 
nan

>  <Num_H_Atoms_ProtBoundConf>  (576) 
nan

>  <Num_Resolved_Atoms>  (576) 
nan

>  <Num_Not_Resolved_Atoms>  (576) 
nan

$$$$
CHEMBL3694348
     RDKit          3D

  0  0  0  0  0  0  0  0  0  0999 V3000
M  V30 BEGIN CTAB
M  V30 COUNTS 52 54 0 0 0
M  V30 BEGIN ATOM
M  V30 1 N 6.824121 -6.923368 4.431218 0
M  V30 2 C 6.520601 -6.002669 3.795915 0
M  V30 3 C 6.124020 -4.864495 3.020118 0
M  V30 4 C 6.666692 -3.627805 3.300840 0
M  V30 5 N 6.300331 -2.541769 2.569984 0
M  V30 6 C 5.409776 -2.650223 1.567878 0
M  V30 7 N 4.877882 -1.681176 0.674133 0
M  V30 8 C 3.703632 -0.951780 0.972948 0
M  V30 9 O 3.173453 -1.219842 2.077853 0
M  V30 10 N 3.115400 0.024331 0.130276 0
M  V30 11 C 1.955940 0.790367 0.348062 0
M  V30 12 C 1.121623 0.780369 1.436853 0
M  V30 13 C -0.001540 1.570352 1.555903 0
M  V30 14 C -0.358833 2.456030 0.530498 0
M  V30 15 C -1.582959 3.210791 0.773787 0
M  V30 16 C -2.851958 2.645307 0.249719 0
M  V30 17 N -3.076437 2.361916 -1.081661 0
M  V30 18 C -2.563627 1.282158 -1.786062 0
M  V30 19 C -3.112177 -0.007286 -1.187781 0
M  V30 20 C -4.337039 -0.483687 -1.675158 0
M  V30 21 C -4.857934 -1.648000 -1.166321 0
M  V30 22 C -4.237058 -2.385745 -0.190365 0
M  V30 23 O -4.626828 -3.566669 0.420599 0
M  V30 24 C -5.405614 -3.615205 1.578842 0
M  V30 25 F -6.606376 -3.004517 1.347056 0
M  V30 26 F -5.594357 -4.927932 1.969996 0
M  V30 27 F -4.723148 -2.942802 2.585839 0
M  V30 28 C -3.029453 -1.912786 0.287909 0
M  V30 29 C -2.489845 -0.747859 -0.208273 0
M  V30 30 C 0.488043 2.455783 -0.553684 0
M  V30 31 Cl 0.078308 3.594026 -1.816553 0
M  V30 32 C 1.602933 1.660230 -0.653777 0
M  V30 33 C 4.871307 -3.892319 1.293843 0
M  V30 34 N 5.218744 -5.001457 2.009228 0
M  V30 35 H 7.385919 -3.444109 4.083337 0
M  V30 36 H 5.355574 -1.487743 -0.241809 0
M  V30 37 H 3.676436 0.126196 -0.742242 0
M  V30 38 H 1.360045 0.116885 2.242505 0
M  V30 39 H -0.589403 1.479645 2.464659 0
M  V30 40 H -1.678017 3.488272 1.867196 0
M  V30 41 H -1.454936 4.227555 0.292860 0
M  V30 42 H -3.662442 3.366423 0.670929 0
M  V30 43 H -3.128662 1.720192 0.910079 0
M  V30 44 H -3.617525 3.061812 -1.624273 0
M  V30 45 H -1.501951 1.158733 -1.953994 0
M  V30 46 H -3.013514 1.321328 -2.833256 0
M  V30 47 H -4.900614 0.035168 -2.449126 0
M  V30 48 H -5.811996 -2.098258 -1.485869 0
M  V30 49 H -2.422640 -2.401943 1.067633 0
M  V30 50 H -1.563905 -0.360510 0.134171 0
M  V30 51 H 2.189420 1.755151 -1.565043 0
M  V30 52 H 4.144924 -4.193611 0.536269 0
M  V30 END ATOM
M  V30 BEGIN BOND
M  V30 1 3 1 2
M  V30 2 1 2 3
M  V30 3 2 3 4
M  V30 4 1 4 5
M  V30 5 2 5 6
M  V30 6 1 6 7
M  V30 7 1 7 8
M  V30 8 2 8 9
M  V30 9 1 8 10
M  V30 10 1 10 11
M  V30 11 2 11 12
M  V30 12 1 12 13
M  V30 13 2 13 14
M  V30 14 1 14 15
M  V30 15 1 15 16
M  V30 16 1 16 17
M  V30 17 1 17 18
M  V30 18 1 18 19
M  V30 19 2 19 20
M  V30 20 1 20 21
M  V30 21 2 21 22
M  V30 22 1 22 23
M  V30 23 1 23 24
M  V30 24 1 24 25
M  V30 25 1 24 26
M  V30 26 1 24 27
M  V30 27 1 22 28
M  V30 28 2 28 29
M  V30 29 1 14 30
M  V30 30 1 30 31
M  V30 31 2 30 32
M  V30 32 1 6 33
M  V30 33 2 33 34
M  V30 34 1 34 3
M  V30 35 1 32 11
M  V30 36 1 29 19
M  V30 37 1 4 35
M  V30 38 1 7 36
M  V30 39 1 10 37
M  V30 40 1 12 38
M  V30 41 1 13 39
M  V30 42 1 15 40
M  V30 43 1 15 41
M  V30 44 1 16 42
M  V30 45 1 16 43
M  V30 46 1 17 44
M  V30 47 1 18 45
M  V30 48 1 18 46
M  V30 49 1 20 47
M  V30 50 1 21 48
M  V30 51 1 28 49
M  V30 52 1 29 50
M  V30 53 1 32 51
M  V30 54 1 33 52
M  V30 END BOND
M  V30 END CTAB
M  END
>  <Dataset>  (577) 
ChEMBL_Kinases

>  <Ligand_Instance>  (577) 
nan

>  <PDB_ID>  (577) 
nan

>  <Standardized_SMILES>  (577) 
N#Cc1cnc(NC(=O)Nc2ccc(CCNCc3ccc(OC(F)(F)F)cc3)c(Cl)c2)cn1

>  <Name>  (577) 
nan

>  <Pocket>  (577) 
nan

>  <ATP_Site>  (577) 
nan

>  <Peripheral>  (577) 
nan

>  <Num_H_Atoms_ProtBoundConf>  (577) 
nan

>  <Num_Resolved_Atoms>  (577) 
nan

>  <Num_Not_Resolved_Atoms>  (577) 
nan

$$$$
CHEMBL3694347
     RDKit          3D

  0  0  0  0  0  0  0  0  0  0999 V3000
M  V30 BEGIN CTAB
M  V30 COUNTS 48 50 0 0 0
M  V30 BEGIN ATOM
M  V30 1 N -0.133625 -7.464104 -3.332821 0
M  V30 2 C 0.228247 -6.365193 -3.341228 0
M  V30 3 C 0.681990 -4.984175 -3.330050 0
M  V30 4 C 1.822547 -4.649333 -2.627949 0
M  V30 5 N 2.200155 -3.336556 -2.652542 0
M  V30 6 C 1.477461 -2.430157 -3.336495 0
M  V30 7 N 2.091987 -1.131349 -3.195582 0
M  V30 8 C 1.732072 -0.285615 -2.107917 0
M  V30 9 O 0.854382 -0.772842 -1.308717 0
M  V30 10 N 2.172872 0.995039 -1.754828 0
M  V30 11 C 1.590728 1.540154 -0.575360 0
M  V30 12 C 0.480495 2.307908 -0.334246 0
M  V30 13 C 0.158712 2.684173 0.951674 0
M  V30 14 C 0.913869 2.323095 2.062534 0
M  V30 15 C 0.368236 2.795764 3.319382 0
M  V30 16 C -0.575681 1.959444 4.104995 0
M  V30 17 N -0.224278 0.693067 4.518014 0
M  V30 18 C -0.164785 -0.437227 3.709714 0
M  V30 19 C -1.485771 -0.837859 3.113592 0
M  V30 20 C -2.008579 -0.408952 1.911483 0
M  V30 21 C -3.237878 -0.870332 1.493046 0
M  V30 22 C -3.989983 -1.759853 2.231856 0
M  V30 23 C -3.499538 -2.208093 3.434736 0
M  V30 24 Cl -4.417526 -3.337887 4.404968 0
M  V30 25 C -2.263247 -1.740728 3.850529 0
M  V30 26 C 2.043429 1.541281 1.796609 0
M  V30 27 Cl 2.975185 1.153304 3.230496 0
M  V30 28 C 2.381497 1.154253 0.516344 0
M  V30 29 C 0.337664 -2.771953 -4.036652 0
M  V30 30 N -0.033068 -4.069436 -4.010653 0
M  V30 31 H 2.369571 -5.409957 -2.093023 0
M  V30 32 H 2.793132 -0.635373 -3.756014 0
M  V30 33 H 2.895170 1.383858 -2.433188 0
M  V30 34 H -0.024030 2.526801 -1.260085 0
M  V30 35 H -0.744390 3.289765 0.994725 0
M  V30 36 H 1.270982 2.968785 4.016159 0
M  V30 37 H -0.009475 3.857805 3.218570 0
M  V30 38 H -0.754466 2.579039 5.062820 0
M  V30 39 H -1.626817 2.020456 3.658437 0
M  V30 40 H 0.086239 0.574002 5.509712 0
M  V30 41 H 0.175299 -1.297017 4.383095 0
M  V30 42 H 0.563811 -0.456296 2.901847 0
M  V30 43 H -1.401015 0.280656 1.362516 0
M  V30 44 H -3.631994 -0.517811 0.540449 0
M  V30 45 H -4.959871 -2.106933 1.873379 0
M  V30 46 H -1.919194 -2.126220 4.808768 0
M  V30 47 H 3.298187 0.546586 0.525810 0
M  V30 48 H -0.114683 -1.931197 -4.524181 0
M  V30 END ATOM
M  V30 BEGIN BOND
M  V30 1 3 1 2
M  V30 2 1 2 3
M  V30 3 2 3 4
M  V30 4 1 4 5
M  V30 5 2 5 6
M  V30 6 1 6 7
M  V30 7 1 7 8
M  V30 8 2 8 9
M  V30 9 1 8 10
M  V30 10 1 10 11
M  V30 11 2 11 12
M  V30 12 1 12 13
M  V30 13 2 13 14
M  V30 14 1 14 15
M  V30 15 1 15 16
M  V30 16 1 16 17
M  V30 17 1 17 18
M  V30 18 1 18 19
M  V30 19 2 19 20
M  V30 20 1 20 21
M  V30 21 2 21 22
M  V30 22 1 22 23
M  V30 23 1 23 24
M  V30 24 2 23 25
M  V30 25 1 14 26
M  V30 26 1 26 27
M  V30 27 2 26 28
M  V30 28 1 6 29
M  V30 29 2 29 30
M  V30 30 1 30 3
M  V30 31 1 28 11
M  V30 32 1 25 19
M  V30 33 1 4 31
M  V30 34 1 7 32
M  V30 35 1 10 33
M  V30 36 1 12 34
M  V30 37 1 13 35
M  V30 38 1 15 36
M  V30 39 1 15 37
M  V30 40 1 16 38
M  V30 41 1 16 39
M  V30 42 1 17 40
M  V30 43 1 18 41
M  V30 44 1 18 42
M  V30 45 1 20 43
M  V30 46 1 21 44
M  V30 47 1 22 45
M  V30 48 1 25 46
M  V30 49 1 28 47
M  V30 50 1 29 48
M  V30 END BOND
M  V30 END CTAB
M  END
>  <Dataset>  (578) 
ChEMBL_Kinases

>  <Ligand_Instance>  (578) 
nan

>  <PDB_ID>  (578) 
nan

>  <Standardized_SMILES>  (578) 
N#Cc1cnc(NC(=O)Nc2ccc(CCNCc3cccc(Cl)c3)c(Cl)c2)cn1

>  <Name>  (578) 
nan

>  <Pocket>  (578) 
nan

>  <ATP_Site>  (578) 
nan

>  <Peripheral>  (578) 
nan

>  <Num_H_Atoms_ProtBoundConf>  (578) 
nan

>  <Num_Resolved_Atoms>  (578) 
nan

>  <Num_Not_Resolved_Atoms>  (578) 
nan

$$$$
CHEMBL3694346
     RDKit          3D

  0  0  0  0  0  0  0  0  0  0999 V3000
M  V30 BEGIN CTAB
M  V30 COUNTS 52 54 0 0 0
M  V30 BEGIN ATOM
M  V30 1 C 3.217396 -5.174508 0.378580 0
M  V30 2 O 3.044663 -3.780516 0.221840 0
M  V30 3 C 3.702528 -2.836971 0.993182 0
M  V30 4 C 4.606602 -3.113466 2.008914 0
M  V30 5 C 5.195440 -2.073849 2.704934 0
M  V30 6 C 4.908122 -0.747232 2.416935 0
M  V30 7 C 4.011571 -0.447778 1.410334 0
M  V30 8 C 3.625619 0.936762 1.015875 0
M  V30 9 N 2.449738 1.372139 1.802913 0
M  V30 10 C 2.135261 2.683671 1.344447 0
M  V30 11 C 0.950021 3.351642 1.919859 0
M  V30 12 C -0.346796 2.709873 1.736821 0
M  V30 13 C -1.147818 3.232514 0.707448 0
M  V30 14 C -2.388799 2.720763 0.397870 0
M  V30 15 C -2.908929 1.653298 1.097626 0
M  V30 16 N -4.164862 1.009731 0.890126 0
M  V30 17 C -4.083155 -0.080372 -0.007296 0
M  V30 18 O -2.949900 -0.333601 -0.493499 0
M  V30 19 N -5.152188 -0.936817 -0.428356 0
M  V30 20 C -4.902954 -2.002622 -1.338062 0
M  V30 21 C -4.569500 -3.132743 -0.598112 0
M  V30 22 N -4.276712 -4.308908 -1.229601 0
M  V30 23 C -4.308493 -4.383235 -2.567792 0
M  V30 24 C -4.015509 -5.576427 -3.318432 0
M  V30 25 N -3.770488 -6.546971 -3.907552 0
M  V30 26 C -4.639250 -3.264349 -3.313208 0
M  V30 27 N -4.925916 -2.110561 -2.680796 0
M  V30 28 C -2.148025 1.122151 2.109904 0
M  V30 29 C -0.926141 1.648700 2.392780 0
M  V30 30 Cl 0.027441 0.971252 3.692361 0
M  V30 31 C 3.416894 -1.503963 0.707412 0
M  V30 32 H 3.013901 -5.725979 -0.562398 0
M  V30 33 H 4.253903 -5.426033 0.680286 0
M  V30 34 H 2.544819 -5.606723 1.148714 0
M  V30 35 H 4.786663 -4.154429 2.182999 0
M  V30 36 H 5.899375 -2.321261 3.496080 0
M  V30 37 H 5.359306 0.075782 2.950699 0
M  V30 38 H 3.381932 0.919952 -0.058228 0
M  V30 39 H 4.479030 1.615846 1.154340 0
M  V30 40 H 2.792522 1.501418 2.810817 0
M  V30 41 H 3.028069 3.321264 1.607545 0
M  V30 42 H 2.131383 2.737867 0.218517 0
M  V30 43 H 1.093177 3.457123 3.035394 0
M  V30 44 H 0.923334 4.391579 1.541440 0
M  V30 45 H -0.819383 4.073377 0.104532 0
M  V30 46 H -3.019794 3.107424 -0.389391 0
M  V30 47 H -5.109322 1.206836 1.281441 0
M  V30 48 H -6.073795 -0.694118 -0.005045 0
M  V30 49 H -4.491297 -3.267324 0.479297 0
M  V30 50 H -4.702759 -3.186429 -4.389854 0
M  V30 51 H -2.487417 0.279091 2.710381 0
M  V30 52 H 2.714832 -1.259414 -0.081331 0
M  V30 END ATOM
M  V30 BEGIN BOND
M  V30 1 1 1 2
M  V30 2 1 2 3
M  V30 3 2 3 4
M  V30 4 1 4 5
M  V30 5 2 5 6
M  V30 6 1 6 7
M  V30 7 1 7 8
M  V30 8 1 8 9
M  V30 9 1 9 10
M  V30 10 1 10 11
M  V30 11 1 11 12
M  V30 12 2 12 13
M  V30 13 1 13 14
M  V30 14 2 14 15
M  V30 15 1 15 16
M  V30 16 1 16 17
M  V30 17 2 17 18
M  V30 18 1 17 19
M  V30 19 1 19 20
M  V30 20 2 20 21
M  V30 21 1 21 22
M  V30 22 2 22 23
M  V30 23 1 23 24
M  V30 24 3 24 25
M  V30 25 1 23 26
M  V30 26 2 26 27
M  V30 27 1 15 28
M  V30 28 2 28 29
M  V30 29 1 29 30
M  V30 30 2 7 31
M  V30 31 1 31 3
M  V30 32 1 29 12
M  V30 33 1 27 20
M  V30 34 1 1 32
M  V30 35 1 1 33
M  V30 36 1 1 34
M  V30 37 1 4 35
M  V30 38 1 5 36
M  V30 39 1 6 37
M  V30 40 1 8 38
M  V30 41 1 8 39
M  V30 42 1 9 40
M  V30 43 1 10 41
M  V30 44 1 10 42
M  V30 45 1 11 43
M  V30 46 1 11 44
M  V30 47 1 13 45
M  V30 48 1 14 46
M  V30 49 1 16 47
M  V30 50 1 19 48
M  V30 51 1 21 49
M  V30 52 1 26 50
M  V30 53 1 28 51
M  V30 54 1 31 52
M  V30 END BOND
M  V30 END CTAB
M  END
>  <Dataset>  (579) 
ChEMBL_Kinases

>  <Ligand_Instance>  (579) 
nan

>  <PDB_ID>  (579) 
nan

>  <Standardized_SMILES>  (579) 
COc1cccc(CNCCc2ccc(NC(=O)Nc3cnc(C#N)cn3)cc2Cl)c1

>  <Name>  (579) 
nan

>  <Pocket>  (579) 
nan

>  <ATP_Site>  (579) 
nan

>  <Peripheral>  (579) 
nan

>  <Num_H_Atoms_ProtBoundConf>  (579) 
nan

>  <Num_Resolved_Atoms>  (579) 
nan

>  <Num_Not_Resolved_Atoms>  (579) 
nan

$$$$
CHEMBL3694345
     RDKit          3D

  0  0  0  0  0  0  0  0  0  0999 V3000
M  V30 BEGIN CTAB
M  V30 COUNTS 51 53 0 0 0
M  V30 BEGIN ATOM
M  V30 1 C -1.152485 -2.269488 4.467205 0
M  V30 2 N -0.726280 -2.561630 3.137645 0
M  V30 3 C 0.451492 -3.350255 3.042160 0
M  V30 4 C 1.700359 -2.648190 3.505297 0
M  V30 5 C 1.983209 -1.421646 2.727046 0
M  V30 6 C 1.730631 -0.167637 3.245139 0
M  V30 7 C 1.988736 0.987679 2.519754 0
M  V30 8 C 2.509487 0.763848 1.261493 0
M  V30 9 N 2.776133 1.959483 0.496761 0
M  V30 10 C 1.648336 2.355794 -0.279768 0
M  V30 11 O 0.633027 1.620416 -0.175528 0
M  V30 12 N 1.526083 3.487922 -1.164551 0
M  V30 13 C 0.293836 3.708533 -1.855644 0
M  V30 14 C -0.695731 4.487965 -1.285382 0
M  V30 15 N -1.847101 4.653167 -2.001945 0
M  V30 16 C -1.981603 4.067579 -3.210764 0
M  V30 17 C -3.246363 4.309664 -3.885431 0
M  V30 18 N -4.260453 4.486996 -4.412121 0
M  V30 19 C -0.991512 3.289964 -3.777019 0
M  V30 20 N 0.143138 3.133753 -3.058895 0
M  V30 21 C 2.783947 -0.460378 0.688241 0
M  V30 22 C 2.506527 -1.572227 1.457686 0
M  V30 23 Cl 2.857620 -3.135819 0.725445 0
M  V30 24 C -1.809235 -3.230757 2.451293 0
M  V30 25 C -1.514741 -3.592728 1.059003 0
M  V30 26 C -0.988576 -4.774065 0.571000 0
M  V30 27 C -0.744374 -5.017514 -0.752755 0
M  V30 28 C -1.028938 -4.047499 -1.679482 0
M  V30 29 F -0.759000 -4.365224 -2.973793 0
M  V30 30 C -1.556674 -2.846100 -1.251031 0
M  V30 31 C -1.790009 -2.637317 0.098068 0
M  V30 32 H -2.244596 -2.048624 4.446886 0
M  V30 33 H -1.026321 -3.124370 5.165562 0
M  V30 34 H -0.684153 -1.383501 4.935247 0
M  V30 35 H 0.349609 -4.322043 3.563111 0
M  V30 36 H 0.627788 -3.586947 1.959171 0
M  V30 37 H 2.558652 -3.348403 3.481784 0
M  V30 38 H 1.552066 -2.352993 4.563749 0
M  V30 39 H 1.314125 -0.055621 4.255724 0
M  V30 40 H 1.804895 1.983167 2.892325 0
M  V30 41 H 3.611426 2.608022 0.378739 0
M  V30 42 H 2.383848 4.059013 -1.215690 0
M  V30 43 H -0.548574 4.939559 -0.315003 0
M  V30 44 H -1.166302 2.850435 -4.749624 0
M  V30 45 H 3.193038 -0.483768 -0.312757 0
M  V30 46 H -2.743507 -2.613287 2.457634 0
M  V30 47 H -2.110377 -4.174390 2.967995 0
M  V30 48 H -0.775319 -5.523847 1.346908 0
M  V30 49 H -0.331115 -5.981132 -1.007793 0
M  V30 50 H -1.749840 -2.141696 -2.041705 0
M  V30 51 H -2.207129 -1.640568 0.263271 0
M  V30 END ATOM
M  V30 BEGIN BOND
M  V30 1 1 1 2
M  V30 2 1 2 3
M  V30 3 1 3 4
M  V30 4 1 4 5
M  V30 5 2 5 6
M  V30 6 1 6 7
M  V30 7 2 7 8
M  V30 8 1 8 9
M  V30 9 1 9 10
M  V30 10 2 10 11
M  V30 11 1 10 12
M  V30 12 1 12 13
M  V30 13 2 13 14
M  V30 14 1 14 15
M  V30 15 2 15 16
M  V30 16 1 16 17
M  V30 17 3 17 18
M  V30 18 1 16 19
M  V30 19 2 19 20
M  V30 20 1 8 21
M  V30 21 2 21 22
M  V30 22 1 22 23
M  V30 23 1 2 24
M  V30 24 1 24 25
M  V30 25 2 25 26
M  V30 26 1 26 27
M  V30 27 2 27 28
M  V30 28 1 28 29
M  V30 29 1 28 30
M  V30 30 2 30 31
M  V30 31 1 22 5
M  V30 32 1 31 25
M  V30 33 1 20 13
M  V30 34 1 1 32
M  V30 35 1 1 33
M  V30 36 1 1 34
M  V30 37 1 3 35
M  V30 38 1 3 36
M  V30 39 1 4 37
M  V30 40 1 4 38
M  V30 41 1 6 39
M  V30 42 1 7 40
M  V30 43 1 9 41
M  V30 44 1 12 42
M  V30 45 1 14 43
M  V30 46 1 19 44
M  V30 47 1 21 45
M  V30 48 1 24 46
M  V30 49 1 24 47
M  V30 50 1 26 48
M  V30 51 1 27 49
M  V30 52 1 30 50
M  V30 53 1 31 51
M  V30 END BOND
M  V30 END CTAB
M  END
>  <Dataset>  (580) 
ChEMBL_Kinases

>  <Ligand_Instance>  (580) 
nan

>  <PDB_ID>  (580) 
nan

>  <Standardized_SMILES>  (580) 
CN(CCc1ccc(NC(=O)Nc2cnc(C#N)cn2)cc1Cl)Cc1ccc(F)cc1

>  <Name>  (580) 
nan

>  <Pocket>  (580) 
nan

>  <ATP_Site>  (580) 
nan

>  <Peripheral>  (580) 
nan

>  <Num_H_Atoms_ProtBoundConf>  (580) 
nan

>  <Num_Resolved_Atoms>  (580) 
nan

>  <Num_Not_Resolved_Atoms>  (580) 
nan

$$$$
CHEMBL3691644
     RDKit          3D

  0  0  0  0  0  0  0  0  0  0999 V3000
M  V30 BEGIN CTAB
M  V30 COUNTS 69 74 0 0 0
M  V30 BEGIN ATOM
M  V30 1 C 5.038861 -0.663280 0.798556 0
M  V30 2 N 5.826518 0.551294 1.023198 0
M  V30 3 C 7.187081 0.405864 1.521837 0
M  V30 4 C 5.288028 1.866078 0.763820 0
M  V30 5 O 6.039711 2.877261 0.985617 0
M  V30 6 C 3.921098 1.928695 0.266078 0
M  V30 7 C 3.602355 1.891619 -1.075667 0
M  V30 8 C 2.231153 1.971873 -1.099945 0
M  V30 9 C 1.431962 1.971577 -2.229337 0
M  V30 10 N 0.098078 2.058616 -2.024309 0
M  V30 11 C -0.406458 2.141233 -0.759876 0
M  V30 12 N -1.821833 2.230188 -0.634082 0
M  V30 13 C -2.614982 1.028612 -0.531015 0
M  V30 14 C -3.990160 1.045573 -0.407207 0
M  V30 15 C -4.680969 -0.155935 -0.314428 0
M  V30 16 C -4.018286 -1.390811 -0.343048 0
M  V30 17 N -4.757177 -2.608201 -0.245966 0
M  V30 18 C -5.407642 -3.557330 -1.164671 0
M  V30 19 C -4.969110 -4.864895 -0.488110 0
M  V30 20 C -5.702939 -5.968614 -1.144716 0
M  V30 21 C -4.948803 -7.263859 -1.276336 0
M  V30 22 C -3.581561 -6.935343 -1.845119 0
M  V30 23 N -2.906526 -6.193336 -0.776274 0
M  V30 24 C -3.476225 -4.893560 -0.620754 0
M  V30 25 O -5.382981 -4.587117 0.842944 0
M  V30 26 C -5.043553 -3.229994 1.022146 0
M  V30 27 O -5.031703 -2.749555 2.203139 0
M  V30 28 C -2.631470 -1.349933 -0.469328 0
M  V30 29 N -1.982321 -0.172183 -0.557726 0
M  V30 30 N 0.429438 2.135521 0.277567 0
M  V30 31 C 1.764772 2.053376 0.190667 0
M  V30 32 N 2.821460 2.025871 1.030291 0
M  V30 33 C 2.581035 2.098592 2.429307 0
M  V30 34 C 1.576264 3.230893 2.683784 0
M  V30 35 C 2.315570 4.263513 3.526001 0
M  V30 36 C 3.780182 3.942713 3.217046 0
M  V30 37 C 3.724325 2.430129 3.306882 0
M  V30 38 H 4.250702 -0.425167 0.072030 0
M  V30 39 H 5.647331 -1.505617 0.446626 0
M  V30 40 H 4.599157 -0.973460 1.787029 0
M  V30 41 H 7.200030 0.570380 2.610603 0
M  V30 42 H 7.868666 1.106801 0.992219 0
M  V30 43 H 7.531597 -0.631344 1.335350 0
M  V30 44 H 4.316769 1.814755 -1.904076 0
M  V30 45 H 1.827186 1.906562 -3.225500 0
M  V30 46 H -2.337615 3.133580 -0.610933 0
M  V30 47 H -4.507564 2.000521 -0.384602 0
M  V30 48 H -5.753820 -0.162916 -0.217365 0
M  V30 49 H -4.915850 -3.467719 -2.141590 0
M  V30 50 H -6.491660 -3.460287 -1.186908 0
M  V30 51 H -6.053767 -5.686448 -2.164251 0
M  V30 52 H -6.627190 -6.200425 -0.577407 0
M  V30 53 H -5.467299 -7.900271 -2.009788 0
M  V30 54 H -4.782294 -7.774139 -0.314911 0
M  V30 55 H -3.663718 -6.217134 -2.698802 0
M  V30 56 H -2.988612 -7.827189 -2.101588 0
M  V30 57 H -2.838033 -6.747634 0.085183 0
M  V30 58 H -3.048996 -4.433022 0.295977 0
M  V30 59 H -3.104438 -4.262144 -1.471590 0
M  V30 60 H -2.093538 -2.288130 -0.494402 0
M  V30 61 H 2.064287 1.145977 2.717093 0
M  V30 62 H 0.672143 2.862344 3.166177 0
M  V30 63 H 1.305398 3.768452 1.756945 0
M  V30 64 H 2.166166 5.300324 3.166050 0
M  V30 65 H 2.091645 4.176491 4.596022 0
M  V30 66 H 3.991743 4.246257 2.191652 0
M  V30 67 H 4.402812 4.406424 3.994566 0
M  V30 68 H 3.379748 2.231162 4.368793 0
M  V30 69 H 4.664663 1.922094 3.144753 0
M  V30 END ATOM
M  V30 BEGIN BOND
M  V30 1 1 1 2
M  V30 2 1 2 3
M  V30 3 1 2 4
M  V30 4 2 4 5
M  V30 5 1 4 6
M  V30 6 2 6 7
M  V30 7 1 7 8
M  V30 8 2 8 9
M  V30 9 1 9 10
M  V30 10 2 10 11
M  V30 11 1 11 12
M  V30 12 1 12 13
M  V30 13 2 13 14
M  V30 14 1 14 15
M  V30 15 2 15 16
M  V30 16 1 16 17
M  V30 17 1 17 18
M  V30 18 1 18 19
M  V30 19 1 19 20
M  V30 20 1 20 21
M  V30 21 1 21 22
M  V30 22 1 22 23
M  V30 23 1 23 24
M  V30 24 1 19 25
M  V30 25 1 25 26
M  V30 26 2 26 27
M  V30 27 1 16 28
M  V30 28 2 28 29
M  V30 29 1 11 30
M  V30 30 2 30 31
M  V30 31 1 31 32
M  V30 32 1 32 33
M  V30 33 1 33 34
M  V30 34 1 34 35
M  V30 35 1 35 36
M  V30 36 1 36 37
M  V30 37 1 32 6
M  V30 38 1 37 33
M  V30 39 1 31 8
M  V30 40 1 29 13
M  V30 41 1 26 17
M  V30 42 1 24 19
M  V30 43 1 1 38
M  V30 44 1 1 39
M  V30 45 1 1 40
M  V30 46 1 3 41
M  V30 47 1 3 42
M  V30 48 1 3 43
M  V30 49 1 7 44
M  V30 50 1 9 45
M  V30 51 1 12 46
M  V30 52 1 14 47
M  V30 53 1 15 48
M  V30 54 1 18 49
M  V30 55 1 18 50
M  V30 56 1 20 51
M  V30 57 1 20 52
M  V30 58 1 21 53
M  V30 59 1 21 54
M  V30 60 1 22 55
M  V30 61 1 22 56
M  V30 62 1 23 57
M  V30 63 1 24 58
M  V30 64 1 24 59
M  V30 65 1 28 60
M  V30 66 1 33 61
M  V30 67 1 34 62
M  V30 68 1 34 63
M  V30 69 1 35 64
M  V30 70 1 35 65
M  V30 71 1 36 66
M  V30 72 1 36 67
M  V30 73 1 37 68
M  V30 74 1 37 69
M  V30 END BOND
M  V30 END CTAB
M  END
>  <Dataset>  (581) 
ChEMBL_Kinases

>  <Ligand_Instance>  (581) 
nan

>  <PDB_ID>  (581) 
nan

>  <Standardized_SMILES>  (581) 
CN(C)C(=O)c1cc2cnc(Nc3ccc(N4CC5(CCCNC5)OC4=O)cn3)nc2n1C1CCCC1

>  <Name>  (581) 
nan

>  <Pocket>  (581) 
nan

>  <ATP_Site>  (581) 
nan

>  <Peripheral>  (581) 
nan

>  <Num_H_Atoms_ProtBoundConf>  (581) 
nan

>  <Num_Resolved_Atoms>  (581) 
nan

>  <Num_Not_Resolved_Atoms>  (581) 
nan

$$$$
CHEMBL369303
     RDKit          3D

  0  0  0  0  0  0  0  0  0  0999 V3000
M  V30 BEGIN CTAB
M  V30 COUNTS 34 37 0 0 0
M  V30 BEGIN ATOM
M  V30 1 O -1.295243 1.781692 2.112645 0
M  V30 2 N -1.083719 1.405641 0.938818 0
M  V30 3 C -1.446847 0.144400 0.479424 0
M  V30 4 C -0.634069 -0.946150 0.438211 0
M  V30 5 C 0.715148 -1.316687 0.776915 0
M  V30 6 C 1.154563 -2.617599 0.925617 0
M  V30 7 O 0.464698 -3.843143 0.827567 0
M  V30 8 N 2.465409 -2.671173 1.211149 0
M  V30 9 C 2.950569 -1.419980 1.263027 0
M  V30 10 C 4.219221 -0.938569 1.502966 0
M  V30 11 C 4.443951 0.419471 1.477216 0
M  V30 12 C 3.383001 1.259885 1.209399 0
M  V30 13 N 3.587433 2.685501 1.174781 0 CHG=1 VAL=4
M  V30 14 O 4.730435 3.130406 1.389797 0
M  V30 15 O 2.514867 3.502684 0.905937 0 CHG=-1 VAL=1
M  V30 16 C 2.141731 0.715479 0.979061 0
M  V30 17 C 1.874148 -0.622604 0.996618 0
M  V30 18 N -1.478012 -1.894079 -0.041285 0
M  V30 19 C -2.717916 -1.444104 -0.284681 0
M  V30 20 C -3.899688 -1.975640 -0.758645 0
M  V30 21 C -5.027203 -1.193172 -0.887349 0
M  V30 22 C -5.052557 0.143328 -0.559400 0
M  V30 23 C -3.867184 0.663129 -0.087385 0
M  V30 24 C -2.729459 -0.106978 0.047333 0
M  V30 25 H 0.622733 -4.339030 -0.053968 0
M  V30 26 H 3.069661 -3.506693 1.377946 0
M  V30 27 H 5.033294 -1.619939 1.710042 0
M  V30 28 H 5.438559 0.800187 1.665543 0
M  V30 29 H 1.391721 1.426640 0.761859 0
M  V30 30 H -1.329929 -2.921349 -0.260117 0
M  V30 31 H -3.939330 -3.000077 -1.027447 0
M  V30 32 H -5.926304 -1.663922 -1.264578 0
M  V30 33 H -5.961300 0.712217 -0.678599 0
M  V30 34 H -3.813989 1.706742 0.189824 0
M  V30 END ATOM
M  V30 BEGIN BOND
M  V30 1 2 1 2
M  V30 2 1 2 3
M  V30 3 2 3 4
M  V30 4 1 4 5
M  V30 5 2 5 6
M  V30 6 1 6 7
M  V30 7 1 6 8
M  V30 8 1 8 9
M  V30 9 2 9 10
M  V30 10 1 10 11
M  V30 11 2 11 12
M  V30 12 1 12 13
M  V30 13 2 13 14
M  V30 14 1 13 15
M  V30 15 1 12 16
M  V30 16 2 16 17
M  V30 17 1 4 18
M  V30 18 1 18 19
M  V30 19 2 19 20
M  V30 20 1 20 21
M  V30 21 2 21 22
M  V30 22 1 22 23
M  V30 23 2 23 24
M  V30 24 1 24 3
M  V30 25 1 17 5
M  V30 26 1 24 19
M  V30 27 1 17 9
M  V30 28 1 7 25
M  V30 29 1 8 26
M  V30 30 1 10 27
M  V30 31 1 11 28
M  V30 32 1 16 29
M  V30 33 1 18 30
M  V30 34 1 20 31
M  V30 35 1 21 32
M  V30 36 1 22 33
M  V30 37 1 23 34
M  V30 END BOND
M  V30 END CTAB
M  END
>  <Dataset>  (582) 
ChEMBL_Kinases

>  <Ligand_Instance>  (582) 
nan

>  <PDB_ID>  (582) 
nan

>  <Standardized_SMILES>  (582) 
O=Nc1c(-c2c(O)[nH]c3ccc([N+](=O)[O-])cc23)[nH]c2ccccc12

>  <Name>  (582) 
nan

>  <Pocket>  (582) 
nan

>  <ATP_Site>  (582) 
nan

>  <Peripheral>  (582) 
nan

>  <Num_H_Atoms_ProtBoundConf>  (582) 
nan

>  <Num_Resolved_Atoms>  (582) 
nan

>  <Num_Not_Resolved_Atoms>  (582) 
nan

$$$$
CHEMBL369306
     RDKit          3D

  0  0  0  0  0  0  0  0  0  0999 V3000
M  V30 BEGIN CTAB
M  V30 COUNTS 50 52 0 0 0
M  V30 BEGIN ATOM
M  V30 1 C 1.160413 -3.202958 2.473711 0
M  V30 2 C 2.249332 -3.760679 1.568934 0
M  V30 3 C 3.291920 -2.677938 1.274307 0
M  V30 4 O 2.644748 -1.613908 0.639653 0
M  V30 5 C 3.230661 -0.444802 0.210139 0
M  V30 6 C 4.596669 -0.280968 0.415082 0
M  V30 7 C 5.188516 0.892672 -0.015328 0
M  V30 8 C 4.428626 1.872903 -0.633804 0
M  V30 9 C 3.084567 1.664486 -0.813222 0
M  V30 10 O 2.315089 2.644260 -1.433458 0
M  V30 11 C 2.434902 0.519307 -0.408157 0
M  V30 12 C 1.025246 0.241128 -0.568326 0
M  V30 13 C 0.062609 0.569223 0.359186 0
M  V30 14 C -1.316252 0.310531 0.229374 0
M  V30 15 C -2.094876 0.777964 1.395013 0
M  V30 16 C -2.014188 -0.281056 2.466842 0
M  V30 17 C -2.776752 -1.509096 2.061973 0
M  V30 18 N -4.127030 -1.164681 1.791729 0
M  V30 19 C -4.474996 0.178116 1.880321 0
M  V30 20 C -3.541174 1.070962 1.152467 0
M  V30 21 C -1.589876 -0.318002 -0.951587 0
M  V30 22 C -2.968107 -0.621103 -1.170444 0
M  V30 23 N -4.077466 -0.885204 -1.352238 0
M  V30 24 C -0.639168 -0.651011 -1.885559 0
M  V30 25 N -1.103525 -1.300862 -3.055431 0
M  V30 26 N 0.662856 -0.374956 -1.699403 0
M  V30 27 H 0.935401 -3.941675 3.251222 0
M  V30 28 H 1.445367 -2.196607 2.870243 0
M  V30 29 H 0.217470 -3.030940 1.886209 0
M  V30 30 H 1.802498 -4.102569 0.634356 0
M  V30 31 H 2.730868 -4.634608 2.053920 0
M  V30 32 H 3.760104 -2.380896 2.249059 0
M  V30 33 H 4.014169 -3.132019 0.573121 0
M  V30 34 H 5.149355 -1.072264 0.901799 0
M  V30 35 H 6.259308 0.994841 0.157664 0
M  V30 36 H 4.900483 2.773373 -0.960365 0
M  V30 37 H 2.546314 2.816637 -2.418651 0
M  V30 38 H 0.497071 1.067388 1.233961 0
M  V30 39 H -1.588463 1.727270 1.806384 0
M  V30 40 H -0.969552 -0.500695 2.765276 0
M  V30 41 H -2.565673 0.152888 3.353639 0
M  V30 42 H -2.812454 -2.249056 2.918623 0
M  V30 43 H -2.344405 -2.052459 1.226688 0
M  V30 44 H -4.710905 -1.827589 1.314615 0
M  V30 45 H -4.548171 0.461442 2.973844 0
M  V30 46 H -5.516251 0.308627 1.504196 0
M  V30 47 H -3.703744 2.104119 1.658973 0
M  V30 48 H -3.802492 1.317571 0.106969 0
M  V30 49 H -1.510787 -2.270489 -2.999287 0
M  V30 50 H -0.936737 -0.628056 -3.824970 0
M  V30 END ATOM
M  V30 BEGIN BOND
M  V30 1 1 1 2
M  V30 2 1 2 3
M  V30 3 1 3 4
M  V30 4 1 4 5
M  V30 5 2 5 6
M  V30 6 1 6 7
M  V30 7 2 7 8
M  V30 8 1 8 9
M  V30 9 1 9 10
M  V30 10 2 9 11
M  V30 11 1 11 12
M  V30 12 2 12 13
M  V30 13 1 13 14
M  V30 14 1 14 15
M  V30 15 1 15 16
M  V30 16 1 16 17
M  V30 17 1 17 18
M  V30 18 1 18 19
M  V30 19 1 19 20
M  V30 20 2 14 21
M  V30 21 1 21 22
M  V30 22 3 22 23
M  V30 23 1 21 24
M  V30 24 1 24 25
M  V30 25 2 24 26
M  V30 26 1 11 5
M  V30 27 1 26 12
M  V30 28 1 20 15
M  V30 29 1 1 27
M  V30 30 1 1 28
M  V30 31 1 1 29
M  V30 32 1 2 30
M  V30 33 1 2 31
M  V30 34 1 3 32
M  V30 35 1 3 33
M  V30 36 1 6 34
M  V30 37 1 7 35
M  V30 38 1 8 36
M  V30 39 1 10 37
M  V30 40 1 13 38
M  V30 41 1 15 39
M  V30 42 1 16 40
M  V30 43 1 16 41
M  V30 44 1 17 42
M  V30 45 1 17 43
M  V30 46 1 18 44
M  V30 47 1 19 45
M  V30 48 1 19 46
M  V30 49 1 20 47
M  V30 50 1 20 48
M  V30 51 1 25 49
M  V30 52 1 25 50
M  V30 END BOND
M  V30 END CTAB
M  END
>  <Dataset>  (583) 
ChEMBL_Kinases

>  <Ligand_Instance>  (583) 
nan

>  <PDB_ID>  (583) 
nan

>  <Standardized_SMILES>  (583) 
CCCOc1cccc(O)c1-c1cc(C2CCNCC2)c(C#N)c(N)n1

>  <Name>  (583) 
nan

>  <Pocket>  (583) 
nan

>  <ATP_Site>  (583) 
nan

>  <Peripheral>  (583) 
nan

>  <Num_H_Atoms_ProtBoundConf>  (583) 
nan

>  <Num_Resolved_Atoms>  (583) 
nan

>  <Num_Not_Resolved_Atoms>  (583) 
nan

$$$$
CHEMBL369316
     RDKit          3D

  0  0  0  0  0  0  0  0  0  0999 V3000
M  V30 BEGIN CTAB
M  V30 COUNTS 60 66 0 0 0
M  V30 BEGIN ATOM
M  V30 1 O 1.849649 -2.976249 4.796965 0
M  V30 2 C 2.018927 -1.726125 4.581075 0
M  V30 3 N 2.898985 -0.943036 5.379401 0
M  V30 4 C 2.819532 0.368445 4.842279 0
M  V30 5 O 3.538152 1.261051 5.413596 0
M  V30 6 C 1.876659 0.378146 3.699516 0
M  V30 7 C 1.614691 1.598958 2.967362 0
M  V30 8 C 0.570575 2.376057 2.531998 0
M  V30 9 N 0.949744 3.431102 1.822634 0
M  V30 10 C 2.287359 3.391209 1.759864 0
M  V30 11 N 3.078053 4.266077 1.130802 0
M  V30 12 C 4.403237 4.097864 1.139843 0
M  V30 13 C 4.890012 3.007145 1.812282 0
M  V30 14 C 4.011882 2.150266 2.436604 0
M  V30 15 N 2.672182 2.299180 2.442604 0
M  V30 16 C 1.421030 -0.850817 3.566263 0
M  V30 17 C 0.455824 -1.449513 2.676092 0
M  V30 18 C 0.805878 -2.499914 1.814022 0
M  V30 19 N -0.275234 -2.927322 1.094834 0
M  V30 20 C -1.309686 -2.149083 1.501544 0
M  V30 21 C -2.652171 -2.183503 1.083297 0
M  V30 22 C -3.544295 -1.307461 1.643584 0
M  V30 23 C -3.085247 -0.426054 2.597678 0
M  V30 24 C -1.776164 -0.370000 3.025233 0
M  V30 25 C -0.886713 -1.249737 2.458597 0
M  V30 26 C -3.165474 -3.142296 0.033303 0
M  V30 27 N -2.091188 -3.149807 -0.974131 0
M  V30 28 C -2.313586 -2.079142 -1.874326 0
M  V30 29 O -3.381006 -1.544497 -1.413089 0
M  V30 30 N -1.700666 -1.510028 -3.049558 0
M  V30 31 C -0.509617 -1.796995 -3.867637 0
M  V30 32 C -1.120238 -2.238782 -5.192020 0
M  V30 33 O -1.603251 -1.114072 -5.810537 0
M  V30 34 C -2.346799 -0.268555 -5.077976 0
M  V30 35 C -2.401726 -0.357053 -3.619333 0
M  V30 36 C -1.021687 -4.140309 -0.939819 0
M  V30 37 C -0.054667 -4.013538 0.164916 0
M  V30 38 H 3.463542 -1.319217 6.187254 0
M  V30 39 H -0.447341 2.139523 2.757945 0
M  V30 40 H 5.041559 4.802464 0.633185 0
M  V30 41 H 5.957050 2.866701 1.822364 0
M  V30 42 H 4.497306 1.320616 2.923430 0
M  V30 43 H 1.829844 -2.911509 1.743168 0
M  V30 44 H -4.552550 -1.383494 1.282715 0
M  V30 45 H -3.816350 0.258907 3.026699 0
M  V30 46 H -1.407021 0.292253 3.769349 0
M  V30 47 H -3.244551 -4.160264 0.492599 0
M  V30 48 H -4.129867 -2.823005 -0.334634 0
M  V30 49 H 0.007600 -0.815795 -4.026735 0
M  V30 50 H 0.144833 -2.550063 -3.437087 0
M  V30 51 H -1.980110 -2.916867 -5.003878 0
M  V30 52 H -0.359764 -2.721757 -5.800967 0
M  V30 53 H -3.397296 -0.304468 -5.496289 0
M  V30 54 H -2.031359 0.785374 -5.344006 0
M  V30 55 H -3.445715 -0.355395 -3.245315 0
M  V30 56 H -1.936453 0.533061 -3.101145 0
M  V30 57 H -0.476864 -4.214364 -1.907919 0
M  V30 58 H -1.569455 -5.130310 -0.833042 0
M  V30 59 H -0.094843 -4.950440 0.800436 0
M  V30 60 H 0.981527 -3.998527 -0.241017 0
M  V30 END ATOM
M  V30 BEGIN BOND
M  V30 1 2 1 2
M  V30 2 1 2 3
M  V30 3 1 3 4
M  V30 4 2 4 5
M  V30 5 1 4 6
M  V30 6 1 6 7
M  V30 7 2 7 8
M  V30 8 1 8 9
M  V30 9 2 9 10
M  V30 10 1 10 11
M  V30 11 2 11 12
M  V30 12 1 12 13
M  V30 13 2 13 14
M  V30 14 1 14 15
M  V30 15 2 6 16
M  V30 16 1 16 17
M  V30 17 2 17 18
M  V30 18 1 18 19
M  V30 19 1 19 20
M  V30 20 2 20 21
M  V30 21 1 21 22
M  V30 22 2 22 23
M  V30 23 1 23 24
M  V30 24 2 24 25
M  V30 25 1 21 26
M  V30 26 1 26 27
M  V30 27 1 27 28
M  V30 28 2 28 29
M  V30 29 1 28 30
M  V30 30 1 30 31
M  V30 31 1 31 32
M  V30 32 1 32 33
M  V30 33 1 33 34
M  V30 34 1 34 35
M  V30 35 1 27 36
M  V30 36 1 36 37
M  V30 37 1 16 2
M  V30 38 1 25 17
M  V30 39 1 35 30
M  V30 40 1 15 7
M  V30 41 1 37 19
M  V30 42 1 15 10
M  V30 43 1 25 20
M  V30 44 1 3 38
M  V30 45 1 8 39
M  V30 46 1 12 40
M  V30 47 1 13 41
M  V30 48 1 14 42
M  V30 49 1 18 43
M  V30 50 1 22 44
M  V30 51 1 23 45
M  V30 52 1 24 46
M  V30 53 1 26 47
M  V30 54 1 26 48
M  V30 55 1 31 49
M  V30 56 1 31 50
M  V30 57 1 32 51
M  V30 58 1 32 52
M  V30 59 1 34 53
M  V30 60 1 34 54
M  V30 61 1 35 55
M  V30 62 1 35 56
M  V30 63 1 36 57
M  V30 64 1 36 58
M  V30 65 1 37 59
M  V30 66 1 37 60
M  V30 END BOND
M  V30 END CTAB
M  END
>  <Dataset>  (584) 
ChEMBL_Kinases

>  <Ligand_Instance>  (584) 
nan

>  <PDB_ID>  (584) 
nan

>  <Standardized_SMILES>  (584) 
O=C1NC(=O)C(c2cnc3ncccn23)=C1c1cn2c3c(cccc13)CN(C(=O)N1CCOCC1)CC2

>  <Name>  (584) 
nan

>  <Pocket>  (584) 
nan

>  <ATP_Site>  (584) 
nan

>  <Peripheral>  (584) 
nan

>  <Num_H_Atoms_ProtBoundConf>  (584) 
nan

>  <Num_Resolved_Atoms>  (584) 
nan

>  <Num_Not_Resolved_Atoms>  (584) 
nan

$$$$
CHEMBL3693446
     RDKit          3D

  0  0  0  0  0  0  0  0  0  0999 V3000
M  V30 BEGIN CTAB
M  V30 COUNTS 71 75 0 0 0
M  V30 BEGIN ATOM
M  V30 1 C 3.463772 1.653305 2.200327 0
M  V30 2 C 4.562655 1.181838 3.123012 0
M  V30 3 C 4.044339 0.128540 4.033769 0
M  V30 4 S 6.052984 0.749588 2.303844 0
M  V30 5 O 6.552855 1.915972 1.450757 0
M  V30 6 O 7.137896 0.570307 3.349023 0
M  V30 7 N 6.004302 -0.645201 1.341808 0
M  V30 8 C 5.321643 -1.129705 0.195775 0
M  V30 9 C 6.069797 -1.644086 -0.876338 0
M  V30 10 C 5.558589 -2.123025 -2.061503 0
M  V30 11 C 4.185878 -2.075658 -2.163987 0
M  V30 12 C 3.370055 -1.590232 -1.168097 0
M  V30 13 C 1.916350 -1.536469 -1.268228 0
M  V30 14 C 1.230619 -1.971676 -2.380045 0
M  V30 15 C -0.160929 -1.921279 -2.478516 0
M  V30 16 C -0.866186 -1.414823 -1.416893 0
M  V30 17 C -2.243847 -1.339352 -1.455282 0
M  V30 18 N -2.989803 -1.774962 -2.577349 0
M  V30 19 C -3.053352 -1.415228 -4.001769 0
M  V30 20 C -4.480708 -0.901190 -4.197357 0
M  V30 21 O -5.364488 -1.928561 -3.924699 0
M  V30 22 C -5.326011 -2.271709 -2.559643 0
M  V30 23 C -3.940747 -2.832607 -2.325618 0 CFG=2
M  V30 24 C -3.860199 -3.404994 -0.936047 0
M  V30 25 N -2.891697 -0.833768 -0.386819 0
M  V30 26 C -2.227795 -0.405476 0.705642 0
M  V30 27 N -2.844686 0.138607 1.867813 0
M  V30 28 C -2.109582 0.593522 3.033282 0
M  V30 29 C -2.573804 1.958255 3.498968 0
M  V30 30 O -3.951971 2.077211 3.482831 0
M  V30 31 C -4.489689 1.801185 2.219745 0
M  V30 32 C -4.280685 0.295310 2.007547 0 CFG=2
M  V30 33 C -4.678336 -0.354810 3.321376 0
M  V30 34 N -0.878328 -0.484389 0.731723 0
M  V30 35 C -0.171466 -0.980579 -0.305910 0
M  V30 36 N 1.173175 -1.048125 -0.254317 0
M  V30 37 C 3.982523 -1.135996 -0.024126 0
M  V30 38 H 3.108741 2.678868 2.397194 0
M  V30 39 H 2.625399 0.931458 2.265906 0
M  V30 40 H 3.772713 1.637694 1.136174 0
M  V30 41 H 4.786644 2.102274 3.756636 0
M  V30 42 H 4.536860 -0.851732 3.945099 0
M  V30 43 H 2.946018 -0.068296 3.934092 0
M  V30 44 H 4.155624 0.406113 5.122815 0
M  V30 45 H 6.649345 -1.448624 1.628393 0
M  V30 46 H 7.164848 -1.667113 -0.760050 0
M  V30 47 H 6.221975 -2.498697 -2.826849 0
M  V30 48 H 3.755439 -2.444338 -3.082531 0
M  V30 49 H 1.736351 -2.370319 -3.223312 0
M  V30 50 H -0.718440 -2.252106 -3.329262 0
M  V30 51 H -2.858183 -2.330684 -4.583719 0
M  V30 52 H -2.316469 -0.636153 -4.268821 0
M  V30 53 H -4.624103 -0.592688 -5.247289 0
M  V30 54 H -4.600730 -0.065045 -3.470385 0
M  V30 55 H -5.448962 -1.385745 -1.905565 0
M  V30 56 H -6.120453 -3.022475 -2.379253 0
M  V30 57 H -3.756726 -3.696599 -3.018757 0
M  V30 58 H -2.846322 -3.759551 -0.698800 0
M  V30 59 H -4.298162 -2.749521 -0.163717 0
M  V30 60 H -4.496627 -4.326740 -0.951083 0
M  V30 61 H -2.326297 -0.163983 3.841876 0
M  V30 62 H -1.026082 0.634248 2.884409 0
M  V30 63 H -2.252592 2.058845 4.558026 0
M  V30 64 H -2.060464 2.759795 2.946329 0
M  V30 65 H -5.562454 2.053147 2.234950 0
M  V30 66 H -3.970839 2.387070 1.447707 0
M  V30 67 H -4.859306 -0.072546 1.160091 0
M  V30 68 H -5.776444 -0.493744 3.400975 0
M  V30 69 H -4.131184 -1.313260 3.502135 0
M  V30 70 H -4.365218 0.302925 4.168879 0
M  V30 71 H 3.350247 -0.771650 0.742611 0
M  V30 END ATOM
M  V30 BEGIN BOND
M  V30 1 1 1 2
M  V30 2 1 2 3
M  V30 3 1 2 4
M  V30 4 2 4 5
M  V30 5 2 4 6
M  V30 6 1 4 7
M  V30 7 1 7 8
M  V30 8 2 8 9
M  V30 9 1 9 10
M  V30 10 2 10 11
M  V30 11 1 11 12
M  V30 12 1 12 13
M  V30 13 2 13 14
M  V30 14 1 14 15
M  V30 15 2 15 16
M  V30 16 1 16 17
M  V30 17 1 17 18
M  V30 18 1 18 19
M  V30 19 1 19 20
M  V30 20 1 20 21
M  V30 21 1 21 22
M  V30 22 1 22 23
M  V30 23 1 23 24
M  V30 24 2 17 25
M  V30 25 1 25 26
M  V30 26 1 26 27
M  V30 27 1 27 28
M  V30 28 1 28 29
M  V30 29 1 29 30
M  V30 30 1 30 31
M  V30 31 1 31 32
M  V30 32 1 32 33
M  V30 33 2 26 34
M  V30 34 1 34 35
M  V30 35 2 35 36
M  V30 36 2 12 37
M  V30 37 1 37 8
M  V30 38 1 36 13
M  V30 39 1 35 16
M  V30 40 1 23 18
M  V30 41 1 32 27
M  V30 42 1 1 38
M  V30 43 1 1 39
M  V30 44 1 1 40
M  V30 45 1 2 41
M  V30 46 1 3 42
M  V30 47 1 3 43
M  V30 48 1 3 44
M  V30 49 1 7 45
M  V30 50 1 9 46
M  V30 51 1 10 47
M  V30 52 1 11 48
M  V30 53 1 14 49
M  V30 54 1 15 50
M  V30 55 1 19 51
M  V30 56 1 19 52
M  V30 57 1 20 53
M  V30 58 1 20 54
M  V30 59 1 22 55
M  V30 60 1 22 56
M  V30 61 1 23 57 CFG=3
M  V30 62 1 24 58
M  V30 63 1 24 59
M  V30 64 1 24 60
M  V30 65 1 28 61
M  V30 66 1 28 62
M  V30 67 1 29 63
M  V30 68 1 29 64
M  V30 69 1 31 65
M  V30 70 1 31 66
M  V30 71 1 32 67 CFG=3
M  V30 72 1 33 68
M  V30 73 1 33 69
M  V30 74 1 33 70
M  V30 75 1 37 71
M  V30 END BOND
M  V30 END CTAB
M  END
>  <Dataset>  (585) 
ChEMBL_Kinases

>  <Ligand_Instance>  (585) 
nan

>  <PDB_ID>  (585) 
nan

>  <Standardized_SMILES>  (585) 
CC(C)S(=O)(=O)Nc1cccc(-c2ccc3c(N4CCOC[C@@H]4C)nc(N4CCOC[C@@H]4C)nc3n2)c1

>  <Name>  (585) 
nan

>  <Pocket>  (585) 
nan

>  <ATP_Site>  (585) 
nan

>  <Peripheral>  (585) 
nan

>  <Num_H_Atoms_ProtBoundConf>  (585) 
nan

>  <Num_Resolved_Atoms>  (585) 
nan

>  <Num_Not_Resolved_Atoms>  (585) 
nan

$$$$
CHEMBL3693558
     RDKit          3D

  0  0  0  0  0  0  0  0  0  0999 V3000
M  V30 BEGIN CTAB
M  V30 COUNTS 64 68 0 0 0
M  V30 BEGIN ATOM
M  V30 1 C 1.299563 -0.695128 5.052743 0
M  V30 2 N 2.019853 0.461134 4.523763 0
M  V30 3 C 2.751143 0.293767 3.327834 0
M  V30 4 O 2.784812 -0.820076 2.731067 0
M  V30 5 C 3.474621 1.471218 2.802617 0
M  V30 6 C 4.222124 1.152801 1.528709 0
M  V30 7 C 3.338634 0.972861 0.334483 0
M  V30 8 N 1.985386 1.383568 0.550403 0
M  V30 9 C 0.851062 0.627019 0.146754 0
M  V30 10 N -0.410072 0.996755 0.349686 0
M  V30 11 C -1.485315 0.280022 -0.032139 0
M  V30 12 N -2.806030 0.751030 0.218784 0
M  V30 13 C -3.978625 1.122819 -0.541709 0
M  V30 14 C -4.515820 2.428719 0.060926 0
M  V30 15 O -5.075602 2.168137 1.294799 0
M  V30 16 C -4.605330 1.007374 1.867931 0
M  V30 17 C -3.117952 0.928271 1.623383 0 CFG=2
M  V30 18 C -2.375412 2.103284 2.165028 0
M  V30 19 C -1.174481 -0.903088 -0.669023 0
M  V30 20 C -2.208930 -1.708901 -1.098305 0
M  V30 21 C -1.905418 -2.896325 -1.737282 0
M  V30 22 C -0.620966 -3.336901 -1.978552 0
M  V30 23 C -0.283575 -4.584922 -2.652059 0
M  V30 24 C 1.059819 -4.842255 -2.797282 0
M  V30 25 C 1.480143 -5.998480 -3.423627 0
M  V30 26 C 0.451983 -6.809815 -3.857144 0
M  V30 27 N 0.693828 -8.037937 -4.524336 0
M  V30 28 N -0.874661 -6.562141 -3.717209 0
M  V30 29 C -1.282821 -5.423347 -3.100310 0
M  V30 30 N 0.352392 -2.515752 -1.540693 0
M  V30 31 C 0.107660 -1.350050 -0.913530 0
M  V30 32 N 1.089859 -0.538303 -0.480607 0
M  V30 33 C 1.949754 2.652182 1.224107 0
M  V30 34 C 2.511409 2.615298 2.605978 0
M  V30 35 H 2.054613 -1.461888 5.371905 0
M  V30 36 H 0.625636 -1.127047 4.303005 0
M  V30 37 H 0.725582 -0.447909 5.958530 0
M  V30 38 H 1.948837 1.346684 5.066624 0
M  V30 39 H 4.224185 1.791552 3.554769 0
M  V30 40 H 4.826411 0.229225 1.759124 0
M  V30 41 H 4.957428 1.934245 1.304863 0
M  V30 42 H 3.334488 -0.134608 0.110883 0
M  V30 43 H 3.721178 1.436380 -0.581492 0
M  V30 44 H -3.629949 1.397020 -1.562219 0
M  V30 45 H -4.760574 0.356849 -0.562344 0
M  V30 46 H -3.727157 3.189394 0.093963 0
M  V30 47 H -5.319285 2.778721 -0.609065 0
M  V30 48 H -4.819042 0.958468 2.954583 0
M  V30 49 H -5.123580 0.134121 1.428046 0
M  V30 50 H -2.781397 -0.009192 2.152495 0
M  V30 51 H -1.788499 2.620900 1.379698 0
M  V30 52 H -1.622005 1.778853 2.938316 0
M  V30 53 H -3.057715 2.820298 2.685097 0
M  V30 54 H -3.238056 -1.423905 -0.940259 0
M  V30 55 H -2.730493 -3.485016 -2.050765 0
M  V30 56 H 1.835360 -4.169080 -2.436564 0
M  V30 57 H 2.497131 -6.306977 -3.594667 0
M  V30 58 H 0.907388 -8.699204 -5.285626 0
M  V30 59 H 0.599193 -8.770229 -3.767433 0
M  V30 60 H -2.338590 -5.226989 -2.989176 0
M  V30 61 H 0.900338 3.017797 1.203869 0
M  V30 62 H 2.531050 3.432302 0.653820 0
M  V30 63 H 1.730166 2.493161 3.394959 0
M  V30 64 H 3.024784 3.567857 2.853586 0
M  V30 END ATOM
M  V30 BEGIN BOND
M  V30 1 1 1 2
M  V30 2 1 2 3
M  V30 3 2 3 4
M  V30 4 1 3 5
M  V30 5 1 5 6
M  V30 6 1 6 7
M  V30 7 1 7 8
M  V30 8 1 8 9
M  V30 9 2 9 10
M  V30 10 1 10 11
M  V30 11 1 11 12
M  V30 12 1 12 13
M  V30 13 1 13 14
M  V30 14 1 14 15
M  V30 15 1 15 16
M  V30 16 1 16 17
M  V30 17 1 17 18
M  V30 18 2 11 19
M  V30 19 1 19 20
M  V30 20 2 20 21
M  V30 21 1 21 22
M  V30 22 1 22 23
M  V30 23 2 23 24
M  V30 24 1 24 25
M  V30 25 2 25 26
M  V30 26 1 26 27
M  V30 27 1 26 28
M  V30 28 2 28 29
M  V30 29 2 22 30
M  V30 30 1 30 31
M  V30 31 2 31 32
M  V30 32 1 8 33
M  V30 33 1 33 34
M  V30 34 1 34 5
M  V30 35 1 32 9
M  V30 36 1 17 12
M  V30 37 1 31 19
M  V30 38 1 29 23
M  V30 39 1 1 35
M  V30 40 1 1 36
M  V30 41 1 1 37
M  V30 42 1 2 38
M  V30 43 1 5 39
M  V30 44 1 6 40
M  V30 45 1 6 41
M  V30 46 1 7 42
M  V30 47 1 7 43
M  V30 48 1 13 44
M  V30 49 1 13 45
M  V30 50 1 14 46
M  V30 51 1 14 47
M  V30 52 1 16 48
M  V30 53 1 16 49
M  V30 54 1 17 50 CFG=1
M  V30 55 1 18 51
M  V30 56 1 18 52
M  V30 57 1 18 53
M  V30 58 1 20 54
M  V30 59 1 21 55
M  V30 60 1 24 56
M  V30 61 1 25 57
M  V30 62 1 27 58
M  V30 63 1 27 59
M  V30 64 1 29 60
M  V30 65 1 33 61
M  V30 66 1 33 62
M  V30 67 1 34 63
M  V30 68 1 34 64
M  V30 END BOND
M  V30 END CTAB
M  END
>  <Dataset>  (586) 
ChEMBL_Kinases

>  <Ligand_Instance>  (586) 
nan

>  <PDB_ID>  (586) 
nan

>  <Standardized_SMILES>  (586) 
CNC(=O)C1CCN(c2nc(N3CCOC[C@@H]3C)c3ccc(-c4ccc(N)nc4)nc3n2)CC1

>  <Name>  (586) 
nan

>  <Pocket>  (586) 
nan

>  <ATP_Site>  (586) 
nan

>  <Peripheral>  (586) 
nan

>  <Num_H_Atoms_ProtBoundConf>  (586) 
nan

>  <Num_Resolved_Atoms>  (586) 
nan

>  <Num_Not_Resolved_Atoms>  (586) 
nan

$$$$
CHEMBL3693559
     RDKit          3D

  0  0  0  0  0  0  0  0  0  0999 V3000
M  V30 BEGIN CTAB
M  V30 COUNTS 55 59 0 0 0
M  V30 BEGIN ATOM
M  V30 1 C 1.221170 -0.440645 3.502428 0
M  V30 2 C 2.554513 -0.243206 2.814360 0 CFG=1
M  V30 3 C 3.582586 -1.006023 3.619367 0
M  V30 4 O 4.871100 -0.898457 3.110307 0
M  V30 5 C 4.911429 -0.878605 1.737160 0
M  V30 6 C 3.696215 -1.614218 1.155074 0
M  V30 7 N 2.565002 -0.801110 1.466253 0
M  V30 8 C 1.376123 -0.338740 0.836791 0
M  V30 9 N 1.158841 1.000094 0.677645 0
M  V30 10 C 0.029604 1.446648 0.078623 0
M  V30 11 N -0.165897 2.847923 -0.072274 0
M  V30 12 C 0.860939 3.736484 0.433904 0
M  V30 13 C 0.192893 4.972768 0.956541 0
M  V30 14 O -1.146455 4.731633 1.264672 0
M  V30 15 C -1.901022 4.477648 0.125286 0
M  V30 16 C -1.363286 3.349669 -0.717559 0
M  V30 17 N -0.910967 0.568476 -0.376508 0
M  V30 18 C -0.748001 -0.763891 -0.245665 0
M  V30 19 N -1.714441 -1.573700 -0.716087 0
M  V30 20 C -1.596360 -2.916662 -0.607477 0
M  V30 21 C -2.629617 -3.815008 -1.108267 0
M  V30 22 C -2.607395 -5.193575 -1.047773 0
M  V30 23 C -3.657241 -5.926780 -1.562481 0
M  V30 24 C -4.764337 -5.339463 -2.153611 0
M  V30 25 N -5.801064 -6.175250 -2.658085 0
M  V30 26 N -4.760549 -3.993525 -2.199501 0
M  V30 27 C -3.743105 -3.265799 -1.701331 0
M  V30 28 C -0.445768 -3.372532 0.002827 0
M  V30 29 C 0.563072 -2.566764 0.495246 0
M  V30 30 C 0.407981 -1.202001 0.366846 0
M  V30 31 H 1.229239 0.267688 4.372753 0
M  V30 32 H 0.354239 -0.171628 2.898851 0
M  V30 33 H 1.186574 -1.458637 3.939159 0
M  V30 34 H 2.756477 0.826304 2.753596 0
M  V30 35 H 3.515566 -0.616515 4.657905 0
M  V30 36 H 3.247309 -2.065432 3.666126 0
M  V30 37 H 4.871640 0.151801 1.324614 0
M  V30 38 H 5.814301 -1.396394 1.396842 0
M  V30 39 H 3.856011 -1.725731 0.076621 0
M  V30 40 H 3.714334 -2.608224 1.653938 0
M  V30 41 H 1.492744 4.034559 -0.442426 0
M  V30 42 H 1.508273 3.240945 1.182817 0
M  V30 43 H 0.705404 5.276137 1.890028 0
M  V30 44 H 0.298450 5.820225 0.243501 0
M  V30 45 H -2.062799 5.405550 -0.472931 0
M  V30 46 H -2.910179 4.158741 0.473114 0
M  V30 47 H -0.989077 3.821459 -1.672479 0
M  V30 48 H -2.101219 2.564968 -0.912486 0
M  V30 49 H -1.741170 -5.647490 -0.585928 0
M  V30 50 H -3.533916 -7.009079 -1.460315 0
M  V30 51 H -6.739616 -6.186604 -2.168318 0
M  V30 52 H -5.845873 -6.828800 -3.464171 0
M  V30 53 H -3.889537 -2.199748 -1.814764 0
M  V30 54 H -0.273081 -4.431054 0.129546 0
M  V30 55 H 1.445026 -2.969367 0.964945 0
M  V30 END ATOM
M  V30 BEGIN BOND
M  V30 1 1 1 2
M  V30 2 1 2 3
M  V30 3 1 3 4
M  V30 4 1 4 5
M  V30 5 1 5 6
M  V30 6 1 6 7
M  V30 7 1 7 8
M  V30 8 2 8 9
M  V30 9 1 9 10
M  V30 10 1 10 11
M  V30 11 1 11 12
M  V30 12 1 12 13
M  V30 13 1 13 14
M  V30 14 1 14 15
M  V30 15 1 15 16
M  V30 16 2 10 17
M  V30 17 1 17 18
M  V30 18 2 18 19
M  V30 19 1 19 20
M  V30 20 1 20 21
M  V30 21 2 21 22
M  V30 22 1 22 23
M  V30 23 2 23 24
M  V30 24 1 24 25
M  V30 25 1 24 26
M  V30 26 2 26 27
M  V30 27 2 20 28
M  V30 28 1 28 29
M  V30 29 2 29 30
M  V30 30 1 7 2
M  V30 31 1 30 8
M  V30 32 1 16 11
M  V30 33 1 30 18
M  V30 34 1 27 21
M  V30 35 1 1 31
M  V30 36 1 1 32
M  V30 37 1 1 33
M  V30 38 1 2 34 CFG=3
M  V30 39 1 3 35
M  V30 40 1 3 36
M  V30 41 1 5 37
M  V30 42 1 5 38
M  V30 43 1 6 39
M  V30 44 1 6 40
M  V30 45 1 12 41
M  V30 46 1 12 42
M  V30 47 1 13 43
M  V30 48 1 13 44
M  V30 49 1 15 45
M  V30 50 1 15 46
M  V30 51 1 16 47
M  V30 52 1 16 48
M  V30 53 1 22 49
M  V30 54 1 23 50
M  V30 55 1 25 51
M  V30 56 1 25 52
M  V30 57 1 27 53
M  V30 58 1 28 54
M  V30 59 1 29 55
M  V30 END BOND
M  V30 END CTAB
M  END
>  <Dataset>  (587) 
ChEMBL_Kinases

>  <Ligand_Instance>  (587) 
nan

>  <PDB_ID>  (587) 
nan

>  <Standardized_SMILES>  (587) 
C[C@H]1COCCN1c1nc(N2CCOCC2)nc2nc(-c3ccc(N)nc3)ccc12

>  <Name>  (587) 
nan

>  <Pocket>  (587) 
nan

>  <ATP_Site>  (587) 
nan

>  <Peripheral>  (587) 
nan

>  <Num_H_Atoms_ProtBoundConf>  (587) 
nan

>  <Num_Resolved_Atoms>  (587) 
nan

>  <Num_Not_Resolved_Atoms>  (587) 
nan

$$$$
CHEMBL3693591
     RDKit          3D

  0  0  0  0  0  0  0  0  0  0999 V3000
M  V30 BEGIN CTAB
M  V30 COUNTS 67 72 0 0 0
M  V30 BEGIN ATOM
M  V30 1 C 1.249054 0.453314 3.907831 0
M  V30 2 C 2.477343 1.208269 3.580828 0 CFG=1
M  V30 3 C 3.739252 0.630573 4.138317 0
M  V30 4 O 4.837985 1.355727 3.734604 0
M  V30 5 C 4.565373 2.541379 3.093666 0
M  V30 6 C 3.772143 2.341735 1.794012 0
M  V30 7 N 2.691569 1.446610 2.170942 0
M  V30 8 C 1.923393 0.871027 1.122263 0
M  V30 9 N 2.237394 1.207711 -0.141706 0
M  V30 10 C 1.542412 0.692567 -1.201158 0
M  V30 11 N 1.936164 1.098580 -2.510328 0
M  V30 12 C 2.434091 0.412222 -3.716498 0
M  V30 13 C 3.680700 1.205076 -4.118376 0
M  V30 14 O 4.109901 2.064615 -3.131392 0
M  V30 15 C 3.239533 3.071847 -2.797178 0
M  V30 16 C 1.832569 2.533135 -2.736329 0 CFG=2
M  V30 17 C 0.971111 3.241907 -1.725968 0
M  V30 18 C 0.509281 -0.183684 -0.925878 0
M  V30 19 C -0.201738 -0.711771 -1.986239 0
M  V30 20 C -1.226236 -1.583035 -1.667350 0
M  V30 21 C -1.574523 -1.949491 -0.382433 0
M  V30 22 C -2.665876 -2.875191 -0.071147 0
M  V30 23 C -3.447101 -3.466926 -1.040188 0
M  V30 24 C -4.481970 -4.346051 -0.717583 0
M  V30 25 C -4.707575 -4.612837 0.619335 0
M  V30 26 C -3.936870 -4.031143 1.609719 0
M  V30 27 C -2.917290 -3.163084 1.259822 0
M  V30 28 C -3.986886 -4.159338 3.068083 0
M  V30 29 O -3.349083 -3.348607 3.788938 0
M  V30 30 N -4.755029 -5.200325 3.713278 0
M  V30 31 C -5.742429 -6.129364 3.266963 0
M  V30 32 C -6.558450 -5.698128 2.082651 0
M  V30 33 N -5.787391 -5.524181 0.866158 0
M  V30 34 N -0.835895 -1.393683 0.597969 0
M  V30 35 C 0.179481 -0.535457 0.370132 0
M  V30 36 N 0.901719 0.006007 1.370050 0
M  V30 37 H 1.117622 0.511626 5.012296 0
M  V30 38 H 0.380783 0.982111 3.477610 0
M  V30 39 H 1.202561 -0.598047 3.653153 0
M  V30 40 H 2.364580 2.214539 4.084155 0
M  V30 41 H 3.626790 0.629411 5.259035 0
M  V30 42 H 3.923093 -0.428804 3.875716 0
M  V30 43 H 4.065352 3.288268 3.741535 0
M  V30 44 H 5.527580 2.986785 2.791903 0
M  V30 45 H 4.414957 1.918492 1.006311 0
M  V30 46 H 3.341475 3.324060 1.517841 0
M  V30 47 H 1.636466 0.543364 -4.480514 0
M  V30 48 H 2.638401 -0.640952 -3.543568 0
M  V30 49 H 3.466315 1.710408 -5.081201 0
M  V30 50 H 4.489464 0.444988 -4.241677 0
M  V30 51 H 3.354473 3.986466 -3.388500 0
M  V30 52 H 3.503949 3.376488 -1.742172 0
M  V30 53 H 1.354155 2.716350 -3.720024 0
M  V30 54 H 0.004720 2.697063 -1.702709 0
M  V30 55 H 0.742299 4.241046 -2.154867 0
M  V30 56 H 1.432247 3.398020 -0.747219 0
M  V30 57 H 0.040121 -0.450099 -2.996006 0
M  V30 58 H -1.770916 -1.985693 -2.509485 0
M  V30 59 H -3.279398 -3.265363 -2.086171 0
M  V30 60 H -5.099043 -4.815094 -1.456812 0
M  V30 61 H -2.313183 -2.707964 2.050924 0
M  V30 62 H -4.523778 -5.279609 4.743066 0
M  V30 63 H -5.360447 -7.150237 3.084393 0
M  V30 64 H -6.493288 -6.226589 4.097683 0
M  V30 65 H -7.135342 -4.783609 2.368219 0
M  V30 66 H -7.297565 -6.489628 1.895959 0
M  V30 67 H -5.999809 -6.118014 0.010091 0
M  V30 END ATOM
M  V30 BEGIN BOND
M  V30 1 1 1 2
M  V30 2 1 2 3
M  V30 3 1 3 4
M  V30 4 1 4 5
M  V30 5 1 5 6
M  V30 6 1 6 7
M  V30 7 1 7 8
M  V30 8 2 8 9
M  V30 9 1 9 10
M  V30 10 1 10 11
M  V30 11 1 11 12
M  V30 12 1 12 13
M  V30 13 1 13 14
M  V30 14 1 14 15
M  V30 15 1 15 16
M  V30 16 1 16 17
M  V30 17 2 10 18
M  V30 18 1 18 19
M  V30 19 2 19 20
M  V30 20 1 20 21
M  V30 21 1 21 22
M  V30 22 2 22 23
M  V30 23 1 23 24
M  V30 24 2 24 25
M  V30 25 1 25 26
M  V30 26 2 26 27
M  V30 27 1 26 28
M  V30 28 2 28 29
M  V30 29 1 28 30
M  V30 30 1 30 31
M  V30 31 1 31 32
M  V30 32 1 32 33
M  V30 33 2 21 34
M  V30 34 1 34 35
M  V30 35 2 35 36
M  V30 36 1 7 2
M  V30 37 1 36 8
M  V30 38 1 16 11
M  V30 39 1 35 18
M  V30 40 1 27 22
M  V30 41 1 33 25
M  V30 42 1 1 37
M  V30 43 1 1 38
M  V30 44 1 1 39
M  V30 45 1 2 40 CFG=1
M  V30 46 1 3 41
M  V30 47 1 3 42
M  V30 48 1 5 43
M  V30 49 1 5 44
M  V30 50 1 6 45
M  V30 51 1 6 46
M  V30 52 1 12 47
M  V30 53 1 12 48
M  V30 54 1 13 49
M  V30 55 1 13 50
M  V30 56 1 15 51
M  V30 57 1 15 52
M  V30 58 1 16 53 CFG=3
M  V30 59 1 17 54
M  V30 60 1 17 55
M  V30 61 1 17 56
M  V30 62 1 19 57
M  V30 63 1 20 58
M  V30 64 1 23 59
M  V30 65 1 24 60
M  V30 66 1 27 61
M  V30 67 1 30 62
M  V30 68 1 31 63
M  V30 69 1 31 64
M  V30 70 1 32 65
M  V30 71 1 32 66
M  V30 72 1 33 67
M  V30 END BOND
M  V30 END CTAB
M  END
>  <Dataset>  (588) 
ChEMBL_Kinases

>  <Ligand_Instance>  (588) 
nan

>  <PDB_ID>  (588) 
nan

>  <Standardized_SMILES>  (588) 
C[C@H]1COCCN1c1nc(N2CCOC[C@@H]2C)c2ccc(-c3ccc4c(c3)C(=O)NCCN4)nc2n1

>  <Name>  (588) 
nan

>  <Pocket>  (588) 
nan

>  <ATP_Site>  (588) 
nan

>  <Peripheral>  (588) 
nan

>  <Num_H_Atoms_ProtBoundConf>  (588) 
nan

>  <Num_Resolved_Atoms>  (588) 
nan

>  <Num_Not_Resolved_Atoms>  (588) 
nan

$$$$
CHEMBL3694344
     RDKit          3D

  0  0  0  0  0  0  0  0  0  0999 V3000
M  V30 BEGIN CTAB
M  V30 COUNTS 48 50 0 0 0
M  V30 BEGIN ATOM
M  V30 1 N 3.900422 -8.015885 -5.571076 0
M  V30 2 C 3.515761 -6.980259 -5.239143 0
M  V30 3 C 3.014007 -5.698388 -4.826328 0
M  V30 4 C 3.747296 -4.534482 -5.027792 0
M  V30 5 N 3.273555 -3.324239 -4.636859 0
M  V30 6 C 2.061349 -3.218316 -4.034109 0
M  V30 7 N 1.448513 -2.018282 -3.577889 0
M  V30 8 C 1.662640 -1.553230 -2.259561 0
M  V30 9 O 2.411710 -2.250356 -1.532341 0
M  V30 10 N 1.104190 -0.391140 -1.726287 0
M  V30 11 C 1.226470 0.189656 -0.441087 0
M  V30 12 C 0.576424 1.356685 -0.151750 0
M  V30 13 C 0.649509 1.977036 1.074380 0
M  V30 14 C 1.394456 1.445160 2.091636 0
M  V30 15 C 1.414734 2.181838 3.381164 0
M  V30 16 C 0.528201 1.506940 4.423004 0
M  V30 17 N -0.827876 1.458600 3.955058 0
M  V30 18 C -1.724896 0.827120 4.904207 0
M  V30 19 C -3.071783 0.855332 4.281857 0
M  V30 20 C -4.121367 1.702958 4.598673 0
M  V30 21 C -5.296445 1.568651 3.901655 0
M  V30 22 C -5.467104 0.629245 2.907582 0
M  V30 23 C -4.426647 -0.220179 2.584365 0
M  V30 24 C -3.227703 -0.101288 3.277679 0
M  V30 25 Cl -1.994729 -1.231657 2.775569 0
M  V30 26 C 2.062003 0.278507 1.847646 0
M  V30 27 Cl 3.021577 -0.421956 3.133138 0
M  V30 28 C 1.961326 -0.307507 0.608381 0
M  V30 29 C 1.347759 -4.384506 -3.842553 0
M  V30 30 N 1.793364 -5.598755 -4.220328 0
M  V30 31 H 4.717043 -4.563633 -5.502378 0
M  V30 32 H 0.825460 -1.455651 -4.211400 0
M  V30 33 H 0.500188 0.105920 -2.425822 0
M  V30 34 H -0.037836 1.831891 -0.928011 0
M  V30 35 H 0.105883 2.894260 1.216319 0
M  V30 36 H 2.474008 2.074370 3.751052 0
M  V30 37 H 1.156114 3.236601 3.247026 0
M  V30 38 H 0.928091 0.515991 4.709678 0
M  V30 39 H 0.603996 2.137694 5.341459 0
M  V30 40 H -1.140830 2.424126 3.744019 0
M  V30 41 H -1.787695 1.407981 5.855812 0
M  V30 42 H -1.408188 -0.184808 5.152033 0
M  V30 43 H -3.900493 2.405057 5.388033 0
M  V30 44 H -6.095907 2.250209 4.177664 0
M  V30 45 H -6.438728 0.590626 2.402680 0
M  V30 46 H -4.598242 -0.945527 1.796819 0
M  V30 47 H 2.514350 -1.225442 0.490051 0
M  V30 48 H 0.370096 -4.394178 -3.369199 0
M  V30 END ATOM
M  V30 BEGIN BOND
M  V30 1 3 1 2
M  V30 2 1 2 3
M  V30 3 2 3 4
M  V30 4 1 4 5
M  V30 5 2 5 6
M  V30 6 1 6 7
M  V30 7 1 7 8
M  V30 8 2 8 9
M  V30 9 1 8 10
M  V30 10 1 10 11
M  V30 11 2 11 12
M  V30 12 1 12 13
M  V30 13 2 13 14
M  V30 14 1 14 15
M  V30 15 1 15 16
M  V30 16 1 16 17
M  V30 17 1 17 18
M  V30 18 1 18 19
M  V30 19 2 19 20
M  V30 20 1 20 21
M  V30 21 2 21 22
M  V30 22 1 22 23
M  V30 23 2 23 24
M  V30 24 1 24 25
M  V30 25 1 14 26
M  V30 26 1 26 27
M  V30 27 2 26 28
M  V30 28 1 6 29
M  V30 29 2 29 30
M  V30 30 1 30 3
M  V30 31 1 28 11
M  V30 32 1 24 19
M  V30 33 1 4 31
M  V30 34 1 7 32
M  V30 35 1 10 33
M  V30 36 1 12 34
M  V30 37 1 13 35
M  V30 38 1 15 36
M  V30 39 1 15 37
M  V30 40 1 16 38
M  V30 41 1 16 39
M  V30 42 1 17 40
M  V30 43 1 18 41
M  V30 44 1 18 42
M  V30 45 1 20 43
M  V30 46 1 21 44
M  V30 47 1 22 45
M  V30 48 1 23 46
M  V30 49 1 28 47
M  V30 50 1 29 48
M  V30 END BOND
M  V30 END CTAB
M  END
>  <Dataset>  (589) 
ChEMBL_Kinases

>  <Ligand_Instance>  (589) 
nan

>  <PDB_ID>  (589) 
nan

>  <Standardized_SMILES>  (589) 
N#Cc1cnc(NC(=O)Nc2ccc(CCNCc3ccccc3Cl)c(Cl)c2)cn1

>  <Name>  (589) 
nan

>  <Pocket>  (589) 
nan

>  <ATP_Site>  (589) 
nan

>  <Peripheral>  (589) 
nan

>  <Num_H_Atoms_ProtBoundConf>  (589) 
nan

>  <Num_Resolved_Atoms>  (589) 
nan

>  <Num_Not_Resolved_Atoms>  (589) 
nan

$$$$
CHEMBL3694336
     RDKit          3D

  0  0  0  0  0  0  0  0  0  0999 V3000
M  V30 BEGIN CTAB
M  V30 COUNTS 48 50 0 0 0
M  V30 BEGIN ATOM
M  V30 1 N -1.277416 -8.005133 -4.094360 0
M  V30 2 C -0.849523 -6.920094 -4.047589 0
M  V30 3 C -0.347927 -5.584660 -3.983810 0
M  V30 4 C -0.694135 -4.781615 -2.940090 0
M  V30 5 N -0.190400 -3.510490 -2.916417 0
M  V30 6 C 0.629364 -3.075600 -3.911028 0
M  V30 7 N 1.142070 -1.726528 -3.847160 0
M  V30 8 C 0.723483 -0.947939 -2.719505 0
M  V30 9 O -0.046445 -1.344279 -1.806278 0
M  V30 10 N 1.225767 0.392682 -2.628566 0
M  V30 11 C 0.752328 1.103419 -1.463464 0
M  V30 12 C 1.439912 1.050070 -0.270195 0
M  V30 13 C 0.993373 1.728491 0.846784 0
M  V30 14 C -0.161011 2.475400 0.775117 0
M  V30 15 C -0.711291 3.224474 1.902234 0
M  V30 16 C -1.680674 2.479427 2.754210 0
M  V30 17 N -1.206379 1.300403 3.384239 0
M  V30 18 C -0.228724 1.454889 4.408597 0
M  V30 19 C 0.083055 0.065569 4.906941 0
M  V30 20 C 1.094772 -0.696905 4.330625 0
M  V30 21 C 1.256927 -1.944452 4.892022 0
M  V30 22 C 0.516021 -2.453007 5.934312 0
M  V30 23 F 0.739896 -3.705432 6.435342 0
M  V30 24 C -0.465409 -1.622596 6.440775 0
M  V30 25 C -0.714775 -0.356317 5.956126 0
M  V30 26 C -0.817667 2.495557 -0.455164 0
M  V30 27 C -0.420449 1.839888 -1.602621 0
M  V30 28 C 0.961775 -3.914076 -4.956127 0
M  V30 29 N 0.458903 -5.177046 -4.975910 0
M  V30 30 H -1.350497 -5.183381 -2.177880 0
M  V30 31 H 1.775475 -1.400166 -4.600442 0
M  V30 32 H 1.862457 0.760570 -3.356679 0
M  V30 33 H 2.356057 0.471358 -0.170617 0
M  V30 34 H 1.551027 1.669909 1.770821 0
M  V30 35 H -1.263374 4.092962 1.475960 0
M  V30 36 H 0.047844 3.680502 2.579938 0
M  V30 37 H -2.031464 3.190193 3.538212 0
M  V30 38 H -2.606431 2.205764 2.197408 0
M  V30 39 H -2.036089 0.782775 3.756440 0
M  V30 40 H -0.528520 2.095519 5.250373 0
M  V30 41 H 0.741305 1.835304 4.022833 0
M  V30 42 H 1.680308 -0.305847 3.513095 0
M  V30 43 H 2.033128 -2.579707 4.479836 0
M  V30 44 H -1.070195 -1.992881 7.265150 0
M  V30 45 H -1.488765 0.263616 6.377823 0
M  V30 46 H -1.725792 3.080329 -0.522021 0
M  V30 47 H -1.007861 1.925294 -2.504669 0
M  V30 48 H 1.599992 -3.603426 -5.749896 0
M  V30 END ATOM
M  V30 BEGIN BOND
M  V30 1 3 1 2
M  V30 2 1 2 3
M  V30 3 2 3 4
M  V30 4 1 4 5
M  V30 5 2 5 6
M  V30 6 1 6 7
M  V30 7 1 7 8
M  V30 8 2 8 9
M  V30 9 1 8 10
M  V30 10 1 10 11
M  V30 11 2 11 12
M  V30 12 1 12 13
M  V30 13 2 13 14
M  V30 14 1 14 15
M  V30 15 1 15 16
M  V30 16 1 16 17
M  V30 17 1 17 18
M  V30 18 1 18 19
M  V30 19 2 19 20
M  V30 20 1 20 21
M  V30 21 2 21 22
M  V30 22 1 22 23
M  V30 23 1 22 24
M  V30 24 2 24 25
M  V30 25 1 14 26
M  V30 26 2 26 27
M  V30 27 1 6 28
M  V30 28 2 28 29
M  V30 29 1 29 3
M  V30 30 1 27 11
M  V30 31 1 25 19
M  V30 32 1 4 30
M  V30 33 1 7 31
M  V30 34 1 10 32
M  V30 35 1 12 33
M  V30 36 1 13 34
M  V30 37 1 15 35
M  V30 38 1 15 36
M  V30 39 1 16 37
M  V30 40 1 16 38
M  V30 41 1 17 39
M  V30 42 1 18 40
M  V30 43 1 18 41
M  V30 44 1 20 42
M  V30 45 1 21 43
M  V30 46 1 24 44
M  V30 47 1 25 45
M  V30 48 1 26 46
M  V30 49 1 27 47
M  V30 50 1 28 48
M  V30 END BOND
M  V30 END CTAB
M  END
>  <Dataset>  (590) 
ChEMBL_Kinases

>  <Ligand_Instance>  (590) 
nan

>  <PDB_ID>  (590) 
nan

>  <Standardized_SMILES>  (590) 
N#Cc1cnc(NC(=O)Nc2ccc(CCNCc3ccc(F)cc3)cc2)cn1

>  <Name>  (590) 
nan

>  <Pocket>  (590) 
nan

>  <ATP_Site>  (590) 
nan

>  <Peripheral>  (590) 
nan

>  <Num_H_Atoms_ProtBoundConf>  (590) 
nan

>  <Num_Resolved_Atoms>  (590) 
nan

>  <Num_Not_Resolved_Atoms>  (590) 
nan

$$$$
CHEMBL3694337
     RDKit          3D

  0  0  0  0  0  0  0  0  0  0999 V3000
M  V30 BEGIN CTAB
M  V30 COUNTS 48 50 0 0 0
M  V30 BEGIN ATOM
M  V30 1 N -0.043742 -7.319445 -3.301170 0
M  V30 2 C 0.207057 -6.187211 -3.400194 0
M  V30 3 C 0.526903 -4.806276 -3.507998 0
M  V30 4 C 0.564706 -4.091036 -2.308880 0
M  V30 5 N 0.863038 -2.787039 -2.378019 0
M  V30 6 C 1.120080 -2.166614 -3.544299 0
M  V30 7 N 1.422323 -0.771225 -3.478658 0
M  V30 8 C 1.446026 -0.104960 -2.217450 0
M  V30 9 O 1.205371 -0.734505 -1.139828 0
M  V30 10 N 1.732569 1.293891 -2.034567 0
M  V30 11 C 1.677044 1.645700 -0.628009 0
M  V30 12 C 2.774910 1.602436 0.209025 0
M  V30 13 C 2.603767 1.954620 1.536274 0
M  V30 14 C 1.351010 2.333267 1.971732 0
M  V30 15 C 1.092273 2.730747 3.404153 0
M  V30 16 C 0.730786 1.492479 4.216264 0
M  V30 17 N -0.425751 0.811675 3.745735 0
M  V30 18 C -0.775349 -0.364668 4.509799 0
M  V30 19 C -1.977264 -0.950406 3.856022 0
M  V30 20 C -3.295800 -0.901969 4.261237 0
M  V30 21 C -4.273150 -1.516119 3.507608 0
M  V30 22 C -3.906651 -2.169167 2.358115 0
M  V30 23 F -4.874280 -2.774592 1.615764 0
M  V30 24 C -2.609404 -2.255596 1.897016 0
M  V30 25 C -1.642537 -1.625339 2.679123 0
M  V30 26 F -0.369762 -1.741606 2.175049 0
M  V30 27 C 0.248317 2.371446 1.108186 0
M  V30 28 C 0.403329 2.022312 -0.221742 0
M  V30 29 C 1.086949 -2.848621 -4.714779 0
M  V30 30 N 0.786308 -4.172394 -4.664795 0
M  V30 31 H 0.373261 -4.497542 -1.314746 0
M  V30 32 H 1.631361 -0.190761 -4.328284 0
M  V30 33 H 1.931166 1.825736 -2.928803 0
M  V30 34 H 3.720328 1.297528 -0.196937 0
M  V30 35 H 3.439302 1.933739 2.225646 0
M  V30 36 H 2.053315 3.109835 3.798742 0
M  V30 37 H 0.274461 3.461529 3.455654 0
M  V30 38 H 0.589285 1.856558 5.253947 0
M  V30 39 H 1.597760 0.783674 4.211350 0
M  V30 40 H -0.486651 0.678156 2.735106 0
M  V30 41 H -1.033701 -0.059727 5.544302 0
M  V30 42 H -0.007115 -1.131005 4.568513 0
M  V30 43 H -3.435879 -0.347305 5.195366 0
M  V30 44 H -5.272837 -1.449235 3.864779 0
M  V30 45 H -2.364777 -2.783638 0.980496 0
M  V30 46 H -0.756857 2.669517 1.431351 0
M  V30 47 H -0.450882 2.055673 -0.874739 0
M  V30 48 H 1.293409 -2.349726 -5.637732 0
M  V30 END ATOM
M  V30 BEGIN BOND
M  V30 1 3 1 2
M  V30 2 1 2 3
M  V30 3 2 3 4
M  V30 4 1 4 5
M  V30 5 2 5 6
M  V30 6 1 6 7
M  V30 7 1 7 8
M  V30 8 2 8 9
M  V30 9 1 8 10
M  V30 10 1 10 11
M  V30 11 2 11 12
M  V30 12 1 12 13
M  V30 13 2 13 14
M  V30 14 1 14 15
M  V30 15 1 15 16
M  V30 16 1 16 17
M  V30 17 1 17 18
M  V30 18 1 18 19
M  V30 19 2 19 20
M  V30 20 1 20 21
M  V30 21 2 21 22
M  V30 22 1 22 23
M  V30 23 1 22 24
M  V30 24 2 24 25
M  V30 25 1 25 26
M  V30 26 1 14 27
M  V30 27 2 27 28
M  V30 28 1 6 29
M  V30 29 2 29 30
M  V30 30 1 30 3
M  V30 31 1 28 11
M  V30 32 1 25 19
M  V30 33 1 4 31
M  V30 34 1 7 32
M  V30 35 1 10 33
M  V30 36 1 12 34
M  V30 37 1 13 35
M  V30 38 1 15 36
M  V30 39 1 15 37
M  V30 40 1 16 38
M  V30 41 1 16 39
M  V30 42 1 17 40
M  V30 43 1 18 41
M  V30 44 1 18 42
M  V30 45 1 20 43
M  V30 46 1 21 44
M  V30 47 1 24 45
M  V30 48 1 27 46
M  V30 49 1 28 47
M  V30 50 1 29 48
M  V30 END BOND
M  V30 END CTAB
M  END
>  <Dataset>  (591) 
ChEMBL_Kinases

>  <Ligand_Instance>  (591) 
nan

>  <PDB_ID>  (591) 
nan

>  <Standardized_SMILES>  (591) 
N#Cc1cnc(NC(=O)Nc2ccc(CCNCc3ccc(F)cc3F)cc2)cn1

>  <Name>  (591) 
nan

>  <Pocket>  (591) 
nan

>  <ATP_Site>  (591) 
nan

>  <Peripheral>  (591) 
nan

>  <Num_H_Atoms_ProtBoundConf>  (591) 
nan

>  <Num_Resolved_Atoms>  (591) 
nan

>  <Num_Not_Resolved_Atoms>  (591) 
nan

$$$$
CHEMBL3694338
     RDKit          3D

  0  0  0  0  0  0  0  0  0  0999 V3000
M  V30 BEGIN CTAB
M  V30 COUNTS 48 50 0 0 0
M  V30 BEGIN ATOM
M  V30 1 N -0.890232 -7.819869 -2.585697 0
M  V30 2 C -0.383917 -6.775994 -2.678876 0
M  V30 3 C 0.259306 -5.495158 -2.804897 0
M  V30 4 C 1.571331 -5.293818 -2.385970 0
M  V30 5 N 2.152092 -4.063788 -2.520966 0
M  V30 6 C 1.436500 -3.050302 -3.064901 0
M  V30 7 N 2.053293 -1.752725 -3.205239 0
M  V30 8 C 1.924724 -0.821211 -2.118561 0
M  V30 9 O 1.267103 -1.209390 -1.092804 0
M  V30 10 N 2.434236 0.497007 -2.018578 0
M  V30 11 C 2.116283 1.158855 -0.774029 0
M  V30 12 C 0.954882 1.868992 -0.735306 0
M  V30 13 C 0.648938 2.506286 0.468250 0
M  V30 14 C 1.527596 2.377156 1.520066 0
M  V30 15 C 1.218057 3.053012 2.823126 0
M  V30 16 C 0.725869 2.017273 3.833180 0
M  V30 17 N -0.470610 1.381852 3.318738 0
M  V30 18 C -1.008388 0.378895 4.218086 0
M  V30 19 C -2.240248 -0.230751 3.609027 0
M  V30 20 C -3.509422 0.265355 3.807288 0
M  V30 21 C -4.593491 -0.366977 3.199993 0
M  V30 22 C -4.416508 -1.470656 2.411555 0
M  V30 23 F -5.540624 -2.006023 1.871670 0
M  V30 24 C -3.160773 -1.980299 2.201535 0
M  V30 25 C -2.068293 -1.356352 2.803766 0
M  V30 26 C 2.704036 1.651459 1.463191 0
M  V30 27 Cl 3.790082 1.516648 2.827488 0
M  V30 28 C 3.010061 1.019113 0.273404 0
M  V30 29 C 0.127179 -3.250569 -3.483097 0
M  V30 30 N -0.452969 -4.477922 -3.348799 0
M  V30 31 H 2.112771 -6.128430 -1.956236 0
M  V30 32 H 2.604347 -1.317498 -3.968139 0
M  V30 33 H 2.977410 0.803885 -2.878923 0
M  V30 34 H 0.298375 1.942163 -1.582346 0
M  V30 35 H -0.262274 3.076986 0.535747 0
M  V30 36 H 2.117267 3.546727 3.237798 0
M  V30 37 H 0.411021 3.773376 2.669394 0
M  V30 38 H 1.500986 1.262174 4.009178 0
M  V30 39 H 0.500552 2.542720 4.762376 0
M  V30 40 H -1.200552 2.051881 3.057607 0
M  V30 41 H -1.320473 0.873283 5.156609 0
M  V30 42 H -0.298683 -0.445871 4.395625 0
M  V30 43 H -3.638027 1.138724 4.433256 0
M  V30 44 H -5.571458 0.050108 3.379786 0
M  V30 45 H -3.097138 -2.846611 1.573455 0
M  V30 46 H -1.130135 -1.814665 2.590050 0
M  V30 47 H 3.911152 0.432585 0.149662 0
M  V30 48 H -0.357212 -2.378849 -3.902817 0
M  V30 END ATOM
M  V30 BEGIN BOND
M  V30 1 3 1 2
M  V30 2 1 2 3
M  V30 3 2 3 4
M  V30 4 1 4 5
M  V30 5 2 5 6
M  V30 6 1 6 7
M  V30 7 1 7 8
M  V30 8 2 8 9
M  V30 9 1 8 10
M  V30 10 1 10 11
M  V30 11 2 11 12
M  V30 12 1 12 13
M  V30 13 2 13 14
M  V30 14 1 14 15
M  V30 15 1 15 16
M  V30 16 1 16 17
M  V30 17 1 17 18
M  V30 18 1 18 19
M  V30 19 2 19 20
M  V30 20 1 20 21
M  V30 21 2 21 22
M  V30 22 1 22 23
M  V30 23 1 22 24
M  V30 24 2 24 25
M  V30 25 1 14 26
M  V30 26 1 26 27
M  V30 27 2 26 28
M  V30 28 1 6 29
M  V30 29 2 29 30
M  V30 30 1 30 3
M  V30 31 1 28 11
M  V30 32 1 25 19
M  V30 33 1 4 31
M  V30 34 1 7 32
M  V30 35 1 10 33
M  V30 36 1 12 34
M  V30 37 1 13 35
M  V30 38 1 15 36
M  V30 39 1 15 37
M  V30 40 1 16 38
M  V30 41 1 16 39
M  V30 42 1 17 40
M  V30 43 1 18 41
M  V30 44 1 18 42
M  V30 45 1 20 43
M  V30 46 1 21 44
M  V30 47 1 24 45
M  V30 48 1 25 46
M  V30 49 1 28 47
M  V30 50 1 29 48
M  V30 END BOND
M  V30 END CTAB
M  END
>  <Dataset>  (592) 
ChEMBL_Kinases

>  <Ligand_Instance>  (592) 
nan

>  <PDB_ID>  (592) 
nan

>  <Standardized_SMILES>  (592) 
N#Cc1cnc(NC(=O)Nc2ccc(CCNCc3ccc(F)cc3)c(Cl)c2)cn1

>  <Name>  (592) 
nan

>  <Pocket>  (592) 
nan

>  <ATP_Site>  (592) 
nan

>  <Peripheral>  (592) 
nan

>  <Num_H_Atoms_ProtBoundConf>  (592) 
nan

>  <Num_Resolved_Atoms>  (592) 
nan

>  <Num_Not_Resolved_Atoms>  (592) 
nan

$$$$
CHEMBL3694339
     RDKit          3D

  0  0  0  0  0  0  0  0  0  0999 V3000
M  V30 BEGIN CTAB
M  V30 COUNTS 48 50 0 0 0
M  V30 BEGIN ATOM
M  V30 1 N 1.207269 -7.013834 -4.563735 0
M  V30 2 C 1.401954 -5.885676 -4.355650 0
M  V30 3 C 1.667605 -4.490368 -4.091094 0
M  V30 4 C 2.909463 -4.067744 -3.665801 0
M  V30 5 N 3.122122 -2.744263 -3.427895 0
M  V30 6 C 2.156251 -1.824990 -3.593666 0
M  V30 7 N 2.368707 -0.422805 -3.344684 0
M  V30 8 C 2.139750 0.128820 -2.060932 0
M  V30 9 O 1.755966 -0.677049 -1.176965 0
M  V30 10 N 2.315671 1.508200 -1.729321 0
M  V30 11 C 2.002825 1.754692 -0.346223 0
M  V30 12 C 2.852876 1.756012 0.734713 0
M  V30 13 C 2.357690 2.002043 1.989578 0
M  V30 14 C 1.009144 2.259668 2.262293 0
M  V30 15 C 0.610537 2.474006 3.677907 0
M  V30 16 C 0.058381 1.215551 4.298440 0
M  V30 17 N -1.120540 0.692112 3.648065 0
M  V30 18 C -1.457780 -0.593224 4.308529 0
M  V30 19 C -2.611869 -1.215877 3.632169 0
M  V30 20 C -2.292710 -2.268260 2.808218 0
M  V30 21 C -3.289162 -2.926030 2.120431 0
M  V30 22 C -4.592734 -2.507441 2.277658 0
M  V30 23 F -5.605210 -3.136651 1.610591 0
M  V30 24 C -4.841703 -1.446786 3.118455 0
M  V30 25 C -3.883116 -0.743043 3.839102 0
M  V30 26 F -4.169511 0.293598 4.654000 0
M  V30 27 C 0.187417 2.250995 1.157608 0
M  V30 28 Cl -1.492396 2.580955 1.386334 0
M  V30 29 C 0.650767 2.007565 -0.118855 0
M  V30 30 C 0.903847 -2.265382 -4.024778 0
M  V30 31 N 0.676713 -3.577492 -4.265779 0
M  V30 32 H 3.668323 -4.820925 -3.540386 0
M  V30 33 H 2.687699 0.309267 -4.026509 0
M  V30 34 H 2.635131 2.161731 -2.476096 0
M  V30 35 H 3.881604 1.553941 0.488757 0
M  V30 36 H 3.095658 1.987841 2.807283 0
M  V30 37 H -0.114896 3.315332 3.750945 0
M  V30 38 H 1.515279 2.746758 4.253087 0
M  V30 39 H -0.095345 1.326431 5.390515 0
M  V30 40 H 0.881531 0.449969 4.204569 0
M  V30 41 H -1.925639 1.321251 3.991180 0
M  V30 42 H -0.542076 -1.181263 4.307022 0
M  V30 43 H -1.729908 -0.377044 5.368037 0
M  V30 44 H -1.286464 -2.639326 2.647055 0
M  V30 45 H -3.078153 -3.755527 1.466041 0
M  V30 46 H -5.892028 -1.154505 3.209315 0
M  V30 47 H -0.081836 2.020677 -0.943893 0
M  V30 48 H 0.126923 -1.549121 -4.160910 0
M  V30 END ATOM
M  V30 BEGIN BOND
M  V30 1 3 1 2
M  V30 2 1 2 3
M  V30 3 2 3 4
M  V30 4 1 4 5
M  V30 5 2 5 6
M  V30 6 1 6 7
M  V30 7 1 7 8
M  V30 8 2 8 9
M  V30 9 1 8 10
M  V30 10 1 10 11
M  V30 11 2 11 12
M  V30 12 1 12 13
M  V30 13 2 13 14
M  V30 14 1 14 15
M  V30 15 1 15 16
M  V30 16 1 16 17
M  V30 17 1 17 18
M  V30 18 1 18 19
M  V30 19 2 19 20
M  V30 20 1 20 21
M  V30 21 2 21 22
M  V30 22 1 22 23
M  V30 23 1 22 24
M  V30 24 2 24 25
M  V30 25 1 25 26
M  V30 26 1 14 27
M  V30 27 1 27 28
M  V30 28 2 27 29
M  V30 29 1 6 30
M  V30 30 2 30 31
M  V30 31 1 31 3
M  V30 32 1 29 11
M  V30 33 1 25 19
M  V30 34 1 4 32
M  V30 35 1 7 33
M  V30 36 1 10 34
M  V30 37 1 12 35
M  V30 38 1 13 36
M  V30 39 1 15 37
M  V30 40 1 15 38
M  V30 41 1 16 39
M  V30 42 1 16 40
M  V30 43 1 17 41
M  V30 44 1 18 42
M  V30 45 1 18 43
M  V30 46 1 20 44
M  V30 47 1 21 45
M  V30 48 1 24 46
M  V30 49 1 29 47
M  V30 50 1 30 48
M  V30 END BOND
M  V30 END CTAB
M  END
>  <Dataset>  (593) 
ChEMBL_Kinases

>  <Ligand_Instance>  (593) 
nan

>  <PDB_ID>  (593) 
nan

>  <Standardized_SMILES>  (593) 
N#Cc1cnc(NC(=O)Nc2ccc(CCNCc3ccc(F)cc3F)c(Cl)c2)cn1

>  <Name>  (593) 
nan

>  <Pocket>  (593) 
nan

>  <ATP_Site>  (593) 
nan

>  <Peripheral>  (593) 
nan

>  <Num_H_Atoms_ProtBoundConf>  (593) 
nan

>  <Num_Resolved_Atoms>  (593) 
nan

>  <Num_Not_Resolved_Atoms>  (593) 
nan

$$$$
CHEMBL3694340
     RDKit          3D

  0  0  0  0  0  0  0  0  0  0999 V3000
M  V30 BEGIN CTAB
M  V30 COUNTS 49 51 0 0 0
M  V30 BEGIN ATOM
M  V30 1 N 0.795944 -5.427865 3.252066 0
M  V30 2 C 1.216845 -4.821836 2.384011 0
M  V30 3 C 1.779309 -4.039461 1.281057 0
M  V30 4 C 0.984660 -3.998249 0.126362 0
M  V30 5 N 1.402785 -3.271052 -0.953812 0
M  V30 6 C 2.569302 -2.604393 -0.895036 0
M  V30 7 N 3.214540 -1.712929 -1.820768 0
M  V30 8 C 3.185872 -0.290084 -2.049832 0
M  V30 9 O 2.300069 -0.184726 -1.091195 0
M  V30 10 N 3.254143 1.153626 -2.387775 0
M  V30 11 C 2.280331 1.750244 -1.437100 0
M  V30 12 C 2.705584 1.803759 -0.113801 0
M  V30 13 C 1.608038 2.091708 0.714683 0
M  V30 14 C 0.326262 2.279756 0.215766 0
M  V30 15 O -0.682127 2.542923 1.147960 0
M  V30 16 C -0.331366 2.435533 2.570536 0
M  V30 17 C -0.094229 0.965322 2.841191 0
M  V30 18 N -1.239238 0.125534 2.652646 0
M  V30 19 C -1.871298 0.069118 1.401128 0
M  V30 20 C -2.809638 -1.082754 1.354975 0
M  V30 21 C -3.813405 -0.919291 2.282433 0
M  V30 22 C -4.801157 -1.863728 2.591320 0
M  V30 23 C -4.745575 -3.065861 1.885715 0
M  V30 24 F -5.629352 -4.099257 2.057035 0
M  V30 25 C -3.746988 -3.273496 0.940918 0
M  V30 26 C -2.813344 -2.312967 0.689007 0
M  V30 27 F -1.788110 -2.347897 -0.213874 0
M  V30 28 C 0.068704 2.201925 -1.154141 0
M  V30 29 Cl -1.547243 2.478245 -1.728281 0
M  V30 30 C 1.071940 1.921656 -2.062040 0
M  V30 31 C 3.351040 -2.661828 0.272459 0
M  V30 32 N 2.930057 -3.387745 1.336036 0
M  V30 33 H 0.052416 -4.524782 0.067369 0
M  V30 34 H 3.885532 -1.659859 -2.577804 0
M  V30 35 H 3.944278 0.733388 -3.062030 0
M  V30 36 H 3.740473 1.632340 0.106649 0
M  V30 37 H 2.034837 2.151764 1.701527 0
M  V30 38 H 0.586821 2.988007 2.688908 0
M  V30 39 H -1.133843 2.888069 3.150588 0
M  V30 40 H 0.155457 0.910470 3.941753 0
M  V30 41 H 0.779081 0.583150 2.324598 0
M  V30 42 H -1.127409 -0.806516 3.133007 0
M  V30 43 H -2.421684 0.971650 1.114837 0
M  V30 44 H -1.053570 -0.149027 0.637510 0
M  V30 45 H -3.987601 -0.025468 2.926068 0
M  V30 46 H -5.602318 -1.742823 3.325929 0
M  V30 47 H -3.627453 -4.178521 0.331037 0
M  V30 48 H 0.938990 1.858087 -3.137723 0
M  V30 49 H 4.296535 -2.191309 0.483730 0
M  V30 END ATOM
M  V30 BEGIN BOND
M  V30 1 3 1 2
M  V30 2 1 2 3
M  V30 3 2 3 4
M  V30 4 1 4 5
M  V30 5 2 5 6
M  V30 6 1 6 7
M  V30 7 1 7 8
M  V30 8 2 8 9
M  V30 9 1 8 10
M  V30 10 1 10 11
M  V30 11 2 11 12
M  V30 12 1 12 13
M  V30 13 2 13 14
M  V30 14 1 14 15
M  V30 15 1 15 16
M  V30 16 1 16 17
M  V30 17 1 17 18
M  V30 18 1 18 19
M  V30 19 1 19 20
M  V30 20 2 20 21
M  V30 21 1 21 22
M  V30 22 2 22 23
M  V30 23 1 23 24
M  V30 24 1 23 25
M  V30 25 2 25 26
M  V30 26 1 26 27
M  V30 27 1 14 28
M  V30 28 1 28 29
M  V30 29 2 28 30
M  V30 30 1 6 31
M  V30 31 2 31 32
M  V30 32 1 32 3
M  V30 33 1 30 11
M  V30 34 1 26 20
M  V30 35 1 4 33
M  V30 36 1 7 34
M  V30 37 1 10 35
M  V30 38 1 12 36
M  V30 39 1 13 37
M  V30 40 1 16 38
M  V30 41 1 16 39
M  V30 42 1 17 40
M  V30 43 1 17 41
M  V30 44 1 18 42
M  V30 45 1 19 43
M  V30 46 1 19 44
M  V30 47 1 21 45
M  V30 48 1 22 46
M  V30 49 1 25 47
M  V30 50 1 30 48
M  V30 51 1 31 49
M  V30 END BOND
M  V30 END CTAB
M  END
>  <Dataset>  (594) 
ChEMBL_Kinases

>  <Ligand_Instance>  (594) 
nan

>  <PDB_ID>  (594) 
nan

>  <Standardized_SMILES>  (594) 
N#Cc1cnc(NC(=O)Nc2ccc(OCCNCc3ccc(F)cc3F)c(Cl)c2)cn1

>  <Name>  (594) 
nan

>  <Pocket>  (594) 
nan

>  <ATP_Site>  (594) 
nan

>  <Peripheral>  (594) 
nan

>  <Num_H_Atoms_ProtBoundConf>  (594) 
nan

>  <Num_Resolved_Atoms>  (594) 
nan

>  <Num_Not_Resolved_Atoms>  (594) 
nan

$$$$
CHEMBL3694341
     RDKit          3D

  0  0  0  0  0  0  0  0  0  0999 V3000
M  V30 BEGIN CTAB
M  V30 COUNTS 51 53 0 0 0
M  V30 BEGIN ATOM
M  V30 1 N -1.894318 -7.679125 -1.853417 0
M  V30 2 C -1.077204 -6.860429 -1.976727 0
M  V30 3 C -0.049918 -5.866547 -2.124149 0
M  V30 4 C 0.973851 -5.727212 -1.200612 0
M  V30 5 N 1.867407 -4.757243 -1.464662 0
M  V30 6 C 1.809263 -3.952591 -2.542040 0
M  V30 7 N 2.907196 -3.006404 -2.557891 0
M  V30 8 C 2.745376 -1.737376 -1.888000 0
M  V30 9 O 1.639623 -1.526179 -1.305787 0
M  V30 10 N 3.721515 -0.681373 -1.815359 0
M  V30 11 C 3.130122 0.394398 -1.049949 0
M  V30 12 C 2.384936 1.408401 -1.612484 0
M  V30 13 C 1.863308 2.364574 -0.767467 0
M  V30 14 C 2.063728 2.336385 0.622501 0
M  V30 15 C 1.344399 3.460208 1.265579 0
M  V30 16 C -0.014527 2.985248 1.804274 0
M  V30 17 N 0.265137 1.980259 2.798858 0
M  V30 18 C -0.922561 1.305614 3.301031 0
M  V30 19 C -1.523893 0.439917 2.222255 0
M  V30 20 C -2.725285 -0.236453 2.808472 0
M  V30 21 C -3.935513 0.434423 2.689753 0
M  V30 22 C -5.006442 -0.240526 3.236192 0
M  V30 23 C -4.982445 -1.469690 3.861904 0
M  V30 24 F -6.112449 -2.027761 4.356635 0
M  V30 25 C -3.745579 -2.081526 3.945400 0
M  V30 26 C -2.632870 -1.477430 3.428375 0
M  V30 27 C 2.816206 1.295540 1.094098 0
M  V30 28 Cl 3.067204 1.312006 2.818525 0
M  V30 29 C 3.368840 0.305155 0.312685 0
M  V30 30 C 0.776825 -4.113101 -3.449437 0
M  V30 31 N -0.120579 -5.076647 -3.196515 0
M  V30 32 H 1.032379 -6.370567 -0.325026 0
M  V30 33 H 3.811941 -3.154902 -3.023651 0
M  V30 34 H 4.608330 -0.869579 -2.289884 0
M  V30 35 H 2.245985 1.402420 -2.689193 0
M  V30 36 H 1.289757 3.119877 -1.332588 0
M  V30 37 H 1.869361 3.822271 2.201728 0
M  V30 38 H 1.254440 4.349091 0.641147 0
M  V30 39 H -0.578961 3.839876 2.222084 0
M  V30 40 H -0.520856 2.520098 0.941386 0
M  V30 41 H 0.570418 2.568904 3.654938 0
M  V30 42 H -0.598989 0.597841 4.103120 0
M  V30 43 H -1.627395 2.028203 3.714430 0
M  V30 44 H -1.794903 1.040207 1.339143 0
M  V30 45 H -0.765171 -0.307878 1.932408 0
M  V30 46 H -4.039397 1.397402 2.217163 0
M  V30 47 H -5.996725 0.231382 3.180010 0
M  V30 48 H -3.659122 -3.058483 4.430683 0
M  V30 49 H -1.635425 -1.937592 3.479468 0
M  V30 50 H 3.932668 -0.443106 0.830086 0
M  V30 51 H 0.848015 -3.406686 -4.264833 0
M  V30 END ATOM
M  V30 BEGIN BOND
M  V30 1 3 1 2
M  V30 2 1 2 3
M  V30 3 2 3 4
M  V30 4 1 4 5
M  V30 5 2 5 6
M  V30 6 1 6 7
M  V30 7 1 7 8
M  V30 8 2 8 9
M  V30 9 1 8 10
M  V30 10 1 10 11
M  V30 11 2 11 12
M  V30 12 1 12 13
M  V30 13 2 13 14
M  V30 14 1 14 15
M  V30 15 1 15 16
M  V30 16 1 16 17
M  V30 17 1 17 18
M  V30 18 1 18 19
M  V30 19 1 19 20
M  V30 20 2 20 21
M  V30 21 1 21 22
M  V30 22 2 22 23
M  V30 23 1 23 24
M  V30 24 1 23 25
M  V30 25 2 25 26
M  V30 26 1 14 27
M  V30 27 1 27 28
M  V30 28 2 27 29
M  V30 29 1 6 30
M  V30 30 2 30 31
M  V30 31 1 31 3
M  V30 32 1 29 11
M  V30 33 1 26 20
M  V30 34 1 4 32
M  V30 35 1 7 33
M  V30 36 1 10 34
M  V30 37 1 12 35
M  V30 38 1 13 36
M  V30 39 1 15 37
M  V30 40 1 15 38
M  V30 41 1 16 39
M  V30 42 1 16 40
M  V30 43 1 17 41
M  V30 44 1 18 42
M  V30 45 1 18 43
M  V30 46 1 19 44
M  V30 47 1 19 45
M  V30 48 1 21 46
M  V30 49 1 22 47
M  V30 50 1 25 48
M  V30 51 1 26 49
M  V30 52 1 29 50
M  V30 53 1 30 51
M  V30 END BOND
M  V30 END CTAB
M  END
>  <Dataset>  (595) 
ChEMBL_Kinases

>  <Ligand_Instance>  (595) 
nan

>  <PDB_ID>  (595) 
nan

>  <Standardized_SMILES>  (595) 
N#Cc1cnc(NC(=O)Nc2ccc(CCNCCc3ccc(F)cc3)c(Cl)c2)cn1

>  <Name>  (595) 
nan

>  <Pocket>  (595) 
nan

>  <ATP_Site>  (595) 
nan

>  <Peripheral>  (595) 
nan

>  <Num_H_Atoms_ProtBoundConf>  (595) 
nan

>  <Num_Resolved_Atoms>  (595) 
nan

>  <Num_Not_Resolved_Atoms>  (595) 
nan

$$$$
CHEMBL3694342
     RDKit          3D

  0  0  0  0  0  0  0  0  0  0999 V3000
M  V30 BEGIN CTAB
M  V30 COUNTS 48 50 0 0 0
M  V30 BEGIN ATOM
M  V30 1 N -0.934800 -7.895567 -2.373613 0
M  V30 2 C -0.403493 -6.853824 -2.512017 0
M  V30 3 C 0.248530 -5.584420 -2.677301 0
M  V30 4 C 1.564713 -5.387196 -2.287033 0
M  V30 5 N 2.130569 -4.161175 -2.468384 0
M  V30 6 C 1.409796 -3.161127 -3.021112 0
M  V30 7 N 2.010889 -1.860741 -3.212341 0
M  V30 8 C 1.885247 -0.913399 -2.136809 0
M  V30 9 O 1.253958 -1.279420 -1.086218 0
M  V30 10 N 2.381219 0.417079 -2.076430 0
M  V30 11 C 2.087204 1.116249 -0.848254 0
M  V30 12 C 0.917968 1.817886 -0.826350 0
M  V30 13 C 0.619012 2.497993 0.351774 0
M  V30 14 C 1.508240 2.424158 1.411715 0
M  V30 15 C 1.211936 3.146151 2.691665 0
M  V30 16 C 0.743967 2.136481 3.736462 0
M  V30 17 N -0.458430 1.476502 3.245709 0
M  V30 18 C -0.958181 0.508705 4.181436 0
M  V30 19 C -2.168912 -0.134322 3.642319 0
M  V30 20 C -3.436522 0.358030 3.865057 0
M  V30 21 C -4.503232 -0.325673 3.311083 0
M  V30 22 C -4.354810 -1.459690 2.558215 0
M  V30 23 Cl -5.750944 -2.270833 1.890264 0
M  V30 24 C -3.069856 -1.938697 2.346043 0
M  V30 25 C -1.962412 -1.285158 2.883140 0
M  V30 26 C 2.681147 1.698580 1.338764 0
M  V30 27 Cl 3.785501 1.627408 2.702473 0
M  V30 28 C 3.006304 1.010813 0.179095 0
M  V30 29 C 0.087870 -3.352823 -3.415072 0
M  V30 30 N -0.468033 -4.584648 -3.228482 0
M  V30 31 H 2.084647 -6.228172 -1.851808 0
M  V30 32 H 2.539192 -1.474999 -4.023992 0
M  V30 33 H 2.904568 0.712483 -2.953979 0
M  V30 34 H 0.251586 1.848945 -1.677697 0
M  V30 35 H -0.302588 3.075139 0.425409 0
M  V30 36 H 2.109734 3.631698 3.120512 0
M  V30 37 H 0.381296 3.837140 2.510898 0
M  V30 38 H 1.517105 1.404779 3.976316 0
M  V30 39 H 0.498739 2.675766 4.659762 0
M  V30 40 H -1.203137 2.149873 3.028726 0
M  V30 41 H -1.239171 1.012223 5.150738 0
M  V30 42 H -0.182605 -0.256631 4.389193 0
M  V30 43 H -3.591390 1.245892 4.451037 0
M  V30 44 H -5.489449 0.095847 3.510373 0
M  V30 45 H -3.016567 -2.839271 1.742403 0
M  V30 46 H -1.017888 -1.741488 2.656668 0
M  V30 47 H 3.915363 0.428058 0.074923 0
M  V30 48 H -0.479854 -2.531820 -3.860558 0
M  V30 END ATOM
M  V30 BEGIN BOND
M  V30 1 3 1 2
M  V30 2 1 2 3
M  V30 3 2 3 4
M  V30 4 1 4 5
M  V30 5 2 5 6
M  V30 6 1 6 7
M  V30 7 1 7 8
M  V30 8 2 8 9
M  V30 9 1 8 10
M  V30 10 1 10 11
M  V30 11 2 11 12
M  V30 12 1 12 13
M  V30 13 2 13 14
M  V30 14 1 14 15
M  V30 15 1 15 16
M  V30 16 1 16 17
M  V30 17 1 17 18
M  V30 18 1 18 19
M  V30 19 2 19 20
M  V30 20 1 20 21
M  V30 21 2 21 22
M  V30 22 1 22 23
M  V30 23 1 22 24
M  V30 24 2 24 25
M  V30 25 1 14 26
M  V30 26 1 26 27
M  V30 27 2 26 28
M  V30 28 1 6 29
M  V30 29 2 29 30
M  V30 30 1 30 3
M  V30 31 1 28 11
M  V30 32 1 25 19
M  V30 33 1 4 31
M  V30 34 1 7 32
M  V30 35 1 10 33
M  V30 36 1 12 34
M  V30 37 1 13 35
M  V30 38 1 15 36
M  V30 39 1 15 37
M  V30 40 1 16 38
M  V30 41 1 16 39
M  V30 42 1 17 40
M  V30 43 1 18 41
M  V30 44 1 18 42
M  V30 45 1 20 43
M  V30 46 1 21 44
M  V30 47 1 24 45
M  V30 48 1 25 46
M  V30 49 1 28 47
M  V30 50 1 29 48
M  V30 END BOND
M  V30 END CTAB
M  END
>  <Dataset>  (596) 
ChEMBL_Kinases

>  <Ligand_Instance>  (596) 
nan

>  <PDB_ID>  (596) 
nan

>  <Standardized_SMILES>  (596) 
N#Cc1cnc(NC(=O)Nc2ccc(CCNCc3ccc(Cl)cc3)c(Cl)c2)cn1

>  <Name>  (596) 
nan

>  <Pocket>  (596) 
nan

>  <ATP_Site>  (596) 
nan

>  <Peripheral>  (596) 
nan

>  <Num_H_Atoms_ProtBoundConf>  (596) 
nan

>  <Num_Resolved_Atoms>  (596) 
nan

>  <Num_Not_Resolved_Atoms>  (596) 
nan

$$$$
CHEMBL3694343
     RDKit          3D

  0  0  0  0  0  0  0  0  0  0999 V3000
M  V30 BEGIN CTAB
M  V30 COUNTS 48 50 0 0 0
M  V30 BEGIN ATOM
M  V30 1 N 0.901617 -7.922400 -2.874187 0
M  V30 2 C 1.127627 -6.794905 -2.979954 0
M  V30 3 C 1.391921 -5.406437 -3.128925 0
M  V30 4 C 2.650267 -4.887211 -3.002642 0
M  V30 5 N 2.898961 -3.554360 -3.146338 0
M  V30 6 C 1.870996 -2.725896 -3.421301 0
M  V30 7 N 1.877630 -1.312601 -3.613614 0
M  V30 8 C 1.689036 -0.462299 -2.488533 0
M  V30 9 O 1.526005 -1.007926 -1.361201 0
M  V30 10 N 1.663520 0.981072 -2.502348 0
M  V30 11 C 1.450249 1.549259 -1.191881 0
M  V30 12 C 2.518524 1.866550 -0.379372 0
M  V30 13 C 2.297903 2.405478 0.871916 0
M  V30 14 C 1.029347 2.646264 1.357290 0
M  V30 15 C 0.649808 3.186698 2.664068 0
M  V30 16 C 0.264049 2.188534 3.697762 0
M  V30 17 N -0.823549 1.319085 3.379462 0
M  V30 18 C -1.105226 0.450236 4.546545 0
M  V30 19 C -2.218952 -0.483000 4.205174 0
M  V30 20 C -3.567604 -0.286614 4.375105 0
M  V30 21 C -4.433706 -1.288260 3.988532 0
M  V30 22 C -4.023369 -2.484675 3.437123 0
M  V30 23 C -2.672502 -2.704125 3.256768 0
M  V30 24 F -2.222372 -3.862790 2.719302 0
M  V30 25 C -1.816116 -1.696207 3.646650 0
M  V30 26 C -0.055123 2.324523 0.531460 0
M  V30 27 Cl -1.774308 2.548120 0.870876 0
M  V30 28 C 0.153228 1.785000 -0.721333 0
M  V30 29 C 0.594215 -3.232199 -3.552272 0
M  V30 30 N 0.362822 -4.563515 -3.406093 0
M  V30 31 H 3.500913 -5.512471 -2.782776 0
M  V30 32 H 2.007174 -0.775631 -4.519598 0
M  V30 33 H 1.796850 1.415757 -3.420526 0
M  V30 34 H 3.541742 1.706384 -0.691198 0
M  V30 35 H 3.070355 2.684193 1.576378 0
M  V30 36 H 1.569871 3.706591 3.063910 0
M  V30 37 H -0.108135 4.008170 2.555392 0
M  V30 38 H 1.108746 1.560074 4.032416 0
M  V30 39 H -0.059333 2.760100 4.618721 0
M  V30 40 H -0.510713 0.590138 2.652717 0
M  V30 41 H -1.415692 1.052110 5.429321 0
M  V30 42 H -0.220647 -0.128958 4.848800 0
M  V30 43 H -3.833103 0.656808 4.806475 0
M  V30 44 H -5.492696 -1.115722 4.130494 0
M  V30 45 H -4.714107 -3.256104 3.141050 0
M  V30 46 H -0.763833 -1.924475 3.481278 0
M  V30 47 H -0.620606 1.502539 -1.433998 0
M  V30 48 H -0.317660 -2.672114 -3.772170 0
M  V30 END ATOM
M  V30 BEGIN BOND
M  V30 1 3 1 2
M  V30 2 1 2 3
M  V30 3 2 3 4
M  V30 4 1 4 5
M  V30 5 2 5 6
M  V30 6 1 6 7
M  V30 7 1 7 8
M  V30 8 2 8 9
M  V30 9 1 8 10
M  V30 10 1 10 11
M  V30 11 2 11 12
M  V30 12 1 12 13
M  V30 13 2 13 14
M  V30 14 1 14 15
M  V30 15 1 15 16
M  V30 16 1 16 17
M  V30 17 1 17 18
M  V30 18 1 18 19
M  V30 19 2 19 20
M  V30 20 1 20 21
M  V30 21 2 21 22
M  V30 22 1 22 23
M  V30 23 1 23 24
M  V30 24 2 23 25
M  V30 25 1 14 26
M  V30 26 1 26 27
M  V30 27 2 26 28
M  V30 28 1 6 29
M  V30 29 2 29 30
M  V30 30 1 30 3
M  V30 31 1 28 11
M  V30 32 1 25 19
M  V30 33 1 4 31
M  V30 34 1 7 32
M  V30 35 1 10 33
M  V30 36 1 12 34
M  V30 37 1 13 35
M  V30 38 1 15 36
M  V30 39 1 15 37
M  V30 40 1 16 38
M  V30 41 1 16 39
M  V30 42 1 17 40
M  V30 43 1 18 41
M  V30 44 1 18 42
M  V30 45 1 20 43
M  V30 46 1 21 44
M  V30 47 1 22 45
M  V30 48 1 25 46
M  V30 49 1 28 47
M  V30 50 1 29 48
M  V30 END BOND
M  V30 END CTAB
M  END
>  <Dataset>  (597) 
ChEMBL_Kinases

>  <Ligand_Instance>  (597) 
nan

>  <PDB_ID>  (597) 
nan

>  <Standardized_SMILES>  (597) 
N#Cc1cnc(NC(=O)Nc2ccc(CCNCc3cccc(F)c3)c(Cl)c2)cn1

>  <Name>  (597) 
nan

>  <Pocket>  (597) 
nan

>  <ATP_Site>  (597) 
nan

>  <Peripheral>  (597) 
nan

>  <Num_H_Atoms_ProtBoundConf>  (597) 
nan

>  <Num_Resolved_Atoms>  (597) 
nan

>  <Num_Not_Resolved_Atoms>  (597) 
nan

$$$$
CHEMBL3694335
     RDKit          3D

  0  0  0  0  0  0  0  0  0  0999 V3000
M  V30 BEGIN CTAB
M  V30 COUNTS 48 50 0 0 0
M  V30 BEGIN ATOM
M  V30 1 N 1.933863 -8.361696 -0.866050 0
M  V30 2 C 1.699183 -7.354609 -1.398153 0
M  V30 3 C 1.391955 -6.121393 -2.037587 0
M  V30 4 C 1.243825 -5.015685 -1.207883 0
M  V30 5 N 0.951113 -3.830643 -1.780752 0
M  V30 6 C 0.801746 -3.701310 -3.126682 0
M  V30 7 N 0.492217 -2.388098 -3.599693 0
M  V30 8 C 0.367008 -1.322572 -2.673220 0
M  V30 9 O 0.523242 -1.500990 -1.434220 0
M  V30 10 N 0.059710 0.021643 -3.038696 0
M  V30 11 C -0.014735 0.922805 -1.940652 0
M  V30 12 C 1.121244 1.592033 -1.537861 0
M  V30 13 C 0.978697 2.450276 -0.467219 0
M  V30 14 C -0.197648 2.710583 0.250248 0
M  V30 15 C -0.131347 3.690421 1.318592 0
M  V30 16 C 0.354313 3.312633 2.653190 0
M  V30 17 N -0.257045 2.329495 3.433194 0
M  V30 18 C -0.101567 0.994901 3.020357 0
M  V30 19 C -0.733924 0.016517 3.993746 0
M  V30 20 C -2.031340 -0.440758 3.944524 0
M  V30 21 C -2.505017 -1.329068 4.884109 0
M  V30 22 C -1.701925 -1.796111 5.910109 0
M  V30 23 C -0.386124 -1.374974 6.016569 0
M  V30 24 C 0.032968 -0.489252 5.052805 0
M  V30 25 C -1.291722 1.981169 -0.238680 0
M  V30 26 C -1.224700 1.106263 -1.302943 0
M  V30 27 C 0.945506 -4.778334 -3.939865 0
M  V30 28 N 1.239872 -5.971521 -3.367566 0
M  V30 29 H 1.357380 -5.089734 -0.123719 0
M  V30 30 H 0.351539 -2.177343 -4.615439 0
M  V30 31 H -0.083857 0.249599 -4.041519 0
M  V30 32 H 2.079146 1.465851 -2.018130 0
M  V30 33 H 1.901798 2.971146 -0.167453 0
M  V30 34 H -1.118393 4.233321 1.345745 0
M  V30 35 H 0.578487 4.504197 0.943934 0
M  V30 36 H 0.424810 4.246127 3.319437 0
M  V30 37 H 1.484828 3.108107 2.513454 0
M  V30 38 H 0.071580 2.419920 4.418709 0
M  V30 39 H -0.511684 0.717463 2.060369 0
M  V30 40 H 1.004992 0.762816 3.097451 0
M  V30 41 H -2.637853 -0.054181 3.123725 0
M  V30 42 H -3.527310 -1.674816 4.826129 0
M  V30 43 H -2.045176 -2.495469 6.663491 0
M  V30 44 H 0.314220 -1.686725 6.783836 0
M  V30 45 H 1.073376 -0.137953 5.113435 0
M  V30 46 H -2.212714 2.190070 0.329361 0
M  V30 47 H -2.145233 0.602345 -1.583616 0
M  V30 48 H 0.824725 -4.673678 -5.014198 0
M  V30 END ATOM
M  V30 BEGIN BOND
M  V30 1 3 1 2
M  V30 2 1 2 3
M  V30 3 2 3 4
M  V30 4 1 4 5
M  V30 5 2 5 6
M  V30 6 1 6 7
M  V30 7 1 7 8
M  V30 8 2 8 9
M  V30 9 1 8 10
M  V30 10 1 10 11
M  V30 11 2 11 12
M  V30 12 1 12 13
M  V30 13 2 13 14
M  V30 14 1 14 15
M  V30 15 1 15 16
M  V30 16 1 16 17
M  V30 17 1 17 18
M  V30 18 1 18 19
M  V30 19 2 19 20
M  V30 20 1 20 21
M  V30 21 2 21 22
M  V30 22 1 22 23
M  V30 23 2 23 24
M  V30 24 1 14 25
M  V30 25 2 25 26
M  V30 26 1 6 27
M  V30 27 2 27 28
M  V30 28 1 28 3
M  V30 29 1 26 11
M  V30 30 1 24 19
M  V30 31 1 4 29
M  V30 32 1 7 30
M  V30 33 1 10 31
M  V30 34 1 12 32
M  V30 35 1 13 33
M  V30 36 1 15 34
M  V30 37 1 15 35
M  V30 38 1 16 36
M  V30 39 1 16 37
M  V30 40 1 17 38
M  V30 41 1 18 39
M  V30 42 1 18 40
M  V30 43 1 20 41
M  V30 44 1 21 42
M  V30 45 1 22 43
M  V30 46 1 23 44
M  V30 47 1 24 45
M  V30 48 1 25 46
M  V30 49 1 26 47
M  V30 50 1 27 48
M  V30 END BOND
M  V30 END CTAB
M  END
>  <Dataset>  (598) 
ChEMBL_Kinases

>  <Ligand_Instance>  (598) 
nan

>  <PDB_ID>  (598) 
nan

>  <Standardized_SMILES>  (598) 
N#Cc1cnc(NC(=O)Nc2ccc(CCNCc3ccccc3)cc2)cn1

>  <Name>  (598) 
nan

>  <Pocket>  (598) 
nan

>  <ATP_Site>  (598) 
nan

>  <Peripheral>  (598) 
nan

>  <Num_H_Atoms_ProtBoundConf>  (598) 
nan

>  <Num_Resolved_Atoms>  (598) 
nan

>  <Num_Not_Resolved_Atoms>  (598) 
nan

$$$$
CHEMBL3694392
     RDKit          3D

  0  0  0  0  0  0  0  0  0  0999 V3000
M  V30 BEGIN CTAB
M  V30 COUNTS 49 51 0 0 0
M  V30 BEGIN ATOM
M  V30 1 C 1.515846 -0.549902 -2.059792 0
M  V30 2 O 0.512354 -0.833796 -1.103872 0
M  V30 3 C 0.652500 -0.621183 0.242014 0
M  V30 4 C 1.821453 -0.101323 0.748745 0
M  V30 5 C 2.055518 0.146908 2.083861 0
M  V30 6 C 3.236846 0.692919 2.750231 0
M  V30 7 N 3.317579 2.050059 3.028862 0
M  V30 8 C 3.355018 3.063706 2.083137 0
M  V30 9 C 2.225404 3.289387 1.190293 0
M  V30 10 C 2.011177 3.067636 -0.164100 0
M  V30 11 C 0.825291 3.408848 -0.773884 0
M  V30 12 C -0.209058 3.986753 -0.075274 0
M  V30 13 C -0.031389 4.221480 1.271351 0
M  V30 14 C 1.170961 3.878554 1.902730 0
M  V30 15 F 1.145036 4.193157 3.237582 0
M  V30 16 C 0.964193 -0.189481 2.884668 0
M  V30 17 C -0.235348 -0.712589 2.453103 0
M  V30 18 C -0.382131 -0.928659 1.099479 0
M  V30 19 N -1.624561 -1.468894 0.666137 0
M  V30 20 C -1.974747 -2.840460 0.524717 0
M  V30 21 O -1.097477 -3.696697 0.810981 0
M  V30 22 N -3.301964 -3.171040 0.065931 0
M  V30 23 C -3.515628 -4.580576 -0.028781 0
M  V30 24 C -3.208623 -5.171187 -1.238750 0
M  V30 25 N -3.389023 -6.504850 -1.391483 0
M  V30 26 C -3.868603 -7.256283 -0.361716 0
M  V30 27 C -4.044451 -8.682514 -0.576672 0
M  V30 28 N -4.190806 -9.820509 -0.766840 0
M  V30 29 C -4.181370 -6.665629 0.865243 0
M  V30 30 N -3.994203 -5.350699 0.988416 0
M  V30 31 H 1.244583 -0.975317 -3.029136 0
M  V30 32 H 2.457667 -1.053939 -1.744844 0
M  V30 33 H 1.720603 0.527352 -2.184194 0
M  V30 34 H 2.675635 0.159927 0.104239 0
M  V30 35 H 4.179176 0.316105 2.233377 0
M  V30 36 H 3.309067 0.143585 3.746613 0
M  V30 37 H 3.466116 2.322572 4.025003 0
M  V30 38 H 3.651075 4.028000 2.619045 0
M  V30 39 H 4.272537 2.882379 1.426079 0
M  V30 40 H 2.895178 2.611208 -0.596810 0
M  V30 41 H 0.843816 3.158140 -1.841304 0
M  V30 42 H -1.100932 4.219366 -0.639171 0
M  V30 43 H -0.873529 4.675315 1.767101 0
M  V30 44 H 1.034977 -0.034851 3.969905 0
M  V30 45 H -1.026256 -0.942842 3.149413 0
M  V30 46 H -2.340091 -0.736902 0.433026 0
M  V30 47 H -3.991815 -2.419845 -0.158018 0
M  V30 48 H -2.823133 -4.569643 -2.067544 0
M  V30 49 H -4.561568 -7.271193 1.676505 0
M  V30 END ATOM
M  V30 BEGIN BOND
M  V30 1 1 1 2
M  V30 2 1 2 3
M  V30 3 2 3 4
M  V30 4 1 4 5
M  V30 5 1 5 6
M  V30 6 1 6 7
M  V30 7 1 7 8
M  V30 8 1 8 9
M  V30 9 2 9 10
M  V30 10 1 10 11
M  V30 11 2 11 12
M  V30 12 1 12 13
M  V30 13 2 13 14
M  V30 14 1 14 15
M  V30 15 2 5 16
M  V30 16 1 16 17
M  V30 17 2 17 18
M  V30 18 1 18 19
M  V30 19 1 19 20
M  V30 20 2 20 21
M  V30 21 1 20 22
M  V30 22 1 22 23
M  V30 23 2 23 24
M  V30 24 1 24 25
M  V30 25 2 25 26
M  V30 26 1 26 27
M  V30 27 3 27 28
M  V30 28 1 26 29
M  V30 29 2 29 30
M  V30 30 1 18 3
M  V30 31 1 30 23
M  V30 32 1 14 9
M  V30 33 1 1 31
M  V30 34 1 1 32
M  V30 35 1 1 33
M  V30 36 1 4 34
M  V30 37 1 6 35
M  V30 38 1 6 36
M  V30 39 1 7 37
M  V30 40 1 8 38
M  V30 41 1 8 39
M  V30 42 1 10 40
M  V30 43 1 11 41
M  V30 44 1 12 42
M  V30 45 1 13 43
M  V30 46 1 16 44
M  V30 47 1 17 45
M  V30 48 1 19 46
M  V30 49 1 22 47
M  V30 50 1 24 48
M  V30 51 1 29 49
M  V30 END BOND
M  V30 END CTAB
M  END
>  <Dataset>  (599) 
ChEMBL_Kinases

>  <Ligand_Instance>  (599) 
nan

>  <PDB_ID>  (599) 
nan

>  <Standardized_SMILES>  (599) 
COc1cc(CNCc2ccccc2F)ccc1NC(=O)Nc1cnc(C#N)cn1

>  <Name>  (599) 
nan

>  <Pocket>  (599) 
nan

>  <ATP_Site>  (599) 
nan

>  <Peripheral>  (599) 
nan

>  <Num_H_Atoms_ProtBoundConf>  (599) 
nan

>  <Num_Resolved_Atoms>  (599) 
nan

>  <Num_Not_Resolved_Atoms>  (599) 
nan

$$$$
CHEMBL3694391
     RDKit          3D

  0  0  0  0  0  0  0  0  0  0999 V3000
M  V30 BEGIN CTAB
M  V30 COUNTS 49 51 0 0 0
M  V30 BEGIN ATOM
M  V30 1 C 1.563004 -1.024961 -1.880253 0
M  V30 2 O 0.517021 -1.067827 -0.957755 0
M  V30 3 C 0.584526 -0.760455 0.382193 0
M  V30 4 C 1.811848 -0.368792 0.868340 0
M  V30 5 C 2.055900 -0.025992 2.181697 0
M  V30 6 C 3.267430 0.409804 2.862912 0
M  V30 7 N 3.537290 1.751309 3.067426 0
M  V30 8 C 3.749832 2.707839 2.093775 0
M  V30 9 C 2.691103 3.102669 1.171753 0
M  V30 10 C 2.326079 2.734630 -0.104044 0
M  V30 11 C 1.256392 3.262458 -0.777745 0
M  V30 12 C 0.452845 4.223842 -0.206239 0
M  V30 13 C 0.775847 4.627525 1.071345 0
M  V30 14 F -0.037100 5.573643 1.598871 0
M  V30 15 C 1.850765 4.084524 1.724464 0
M  V30 16 C 0.906629 -0.120710 2.976598 0
M  V30 17 C -0.325896 -0.504647 2.531656 0
M  V30 18 C -0.504220 -0.830952 1.223325 0
M  V30 19 N -1.710544 -1.247530 0.599782 0
M  V30 20 C -2.050858 -2.625604 0.538132 0
M  V30 21 O -1.402120 -3.622388 0.984257 0
M  V30 22 N -3.266694 -3.030751 -0.091848 0
M  V30 23 C -3.737656 -4.363381 -0.229160 0
M  V30 24 C -3.428980 -5.160685 -1.317841 0
M  V30 25 N -3.946186 -6.406319 -1.315225 0
M  V30 26 C -4.721238 -6.857287 -0.312433 0
M  V30 27 C -5.211936 -8.213507 -0.432921 0
M  V30 28 N -5.622865 -9.291669 -0.524612 0
M  V30 29 C -5.026244 -6.062558 0.768162 0
M  V30 30 N -4.516394 -4.803508 0.787553 0
M  V30 31 H 2.290257 -0.211861 -1.740486 0
M  V30 32 H 2.054975 -2.020323 -2.005298 0
M  V30 33 H 1.081414 -0.819526 -2.880797 0
M  V30 34 H 2.723485 -0.292655 0.251084 0
M  V30 35 H 4.135989 -0.147926 2.371785 0
M  V30 36 H 3.256067 -0.096711 3.887084 0
M  V30 37 H 3.585560 2.074290 4.065590 0
M  V30 38 H 4.174013 3.635597 2.609680 0
M  V30 39 H 4.637582 2.394307 1.436470 0
M  V30 40 H 3.026776 1.966960 -0.471717 0
M  V30 41 H 1.150080 2.827810 -1.773947 0
M  V30 42 H -0.341969 4.552091 -0.828876 0
M  V30 43 H 1.970539 4.514269 2.732379 0
M  V30 44 H 0.941690 0.117715 4.034564 0
M  V30 45 H -1.188455 -0.566924 3.168697 0
M  V30 46 H -2.387059 -0.581919 0.168577 0
M  V30 47 H -3.898344 -2.302689 -0.504256 0
M  V30 48 H -2.802519 -4.736636 -2.086407 0
M  V30 49 H -5.654760 -6.502040 1.529310 0
M  V30 END ATOM
M  V30 BEGIN BOND
M  V30 1 1 1 2
M  V30 2 1 2 3
M  V30 3 2 3 4
M  V30 4 1 4 5
M  V30 5 1 5 6
M  V30 6 1 6 7
M  V30 7 1 7 8
M  V30 8 1 8 9
M  V30 9 2 9 10
M  V30 10 1 10 11
M  V30 11 2 11 12
M  V30 12 1 12 13
M  V30 13 1 13 14
M  V30 14 2 13 15
M  V30 15 2 5 16
M  V30 16 1 16 17
M  V30 17 2 17 18
M  V30 18 1 18 19
M  V30 19 1 19 20
M  V30 20 2 20 21
M  V30 21 1 20 22
M  V30 22 1 22 23
M  V30 23 2 23 24
M  V30 24 1 24 25
M  V30 25 2 25 26
M  V30 26 1 26 27
M  V30 27 3 27 28
M  V30 28 1 26 29
M  V30 29 2 29 30
M  V30 30 1 18 3
M  V30 31 1 30 23
M  V30 32 1 15 9
M  V30 33 1 1 31
M  V30 34 1 1 32
M  V30 35 1 1 33
M  V30 36 1 4 34
M  V30 37 1 6 35
M  V30 38 1 6 36
M  V30 39 1 7 37
M  V30 40 1 8 38
M  V30 41 1 8 39
M  V30 42 1 10 40
M  V30 43 1 11 41
M  V30 44 1 12 42
M  V30 45 1 15 43
M  V30 46 1 16 44
M  V30 47 1 17 45
M  V30 48 1 19 46
M  V30 49 1 22 47
M  V30 50 1 24 48
M  V30 51 1 29 49
M  V30 END BOND
M  V30 END CTAB
M  END
>  <Dataset>  (600) 
ChEMBL_Kinases

>  <Ligand_Instance>  (600) 
nan

>  <PDB_ID>  (600) 
nan

>  <Standardized_SMILES>  (600) 
COc1cc(CNCc2cccc(F)c2)ccc1NC(=O)Nc1cnc(C#N)cn1

>  <Name>  (600) 
nan

>  <Pocket>  (600) 
nan

>  <ATP_Site>  (600) 
nan

>  <Peripheral>  (600) 
nan

>  <Num_H_Atoms_ProtBoundConf>  (600) 
nan

>  <Num_Resolved_Atoms>  (600) 
nan

>  <Num_Not_Resolved_Atoms>  (600) 
nan

$$$$
CHEMBL3694390
     RDKit          3D

  0  0  0  0  0  0  0  0  0  0999 V3000
M  V30 BEGIN CTAB
M  V30 COUNTS 49 51 0 0 0
M  V30 BEGIN ATOM
M  V30 1 C -1.103422 0.685479 -1.806642 0
M  V30 2 O -1.626041 -0.196206 -0.818775 0
M  V30 3 C -0.944868 -0.272472 0.370622 0
M  V30 4 C 0.198809 0.449435 0.649579 0
M  V30 5 C 0.887813 0.368789 1.859727 0
M  V30 6 C 2.111779 1.184619 2.070850 0
M  V30 7 N 1.784708 2.481610 2.644694 0
M  V30 8 C 3.016357 3.212309 2.824162 0
M  V30 9 C 3.720172 3.406855 1.530211 0
M  V30 10 C 4.659585 2.594608 0.931562 0
M  V30 11 C 5.190939 2.974369 -0.292248 0
M  V30 12 C 4.836459 4.119847 -0.951290 0
M  V30 13 F 5.415485 4.395240 -2.138880 0
M  V30 14 C 3.899287 4.931797 -0.355747 0
M  V30 15 C 3.343943 4.583353 0.872173 0
M  V30 16 C 0.354907 -0.490384 2.786477 0
M  V30 17 C -0.782746 -1.237235 2.567093 0
M  V30 18 C -1.433998 -1.127684 1.355889 0
M  V30 19 N -2.600353 -1.931031 1.207077 0
M  V30 20 C -2.660350 -3.238532 0.706747 0
M  V30 21 O -1.664156 -3.891709 0.312725 0
M  V30 22 N -3.923755 -3.887868 0.631472 0
M  V30 23 C -4.040004 -5.217543 0.130445 0
M  V30 24 C -4.248072 -5.660205 -1.150467 0
M  V30 25 N -4.323228 -6.984898 -1.381948 0
M  V30 26 C -4.195545 -7.866717 -0.366953 0
M  V30 27 C -4.275995 -9.273231 -0.616948 0
M  V30 28 N -4.359039 -10.401224 -0.818438 0
M  V30 29 C -3.984995 -7.453367 0.936097 0
M  V30 30 N -3.915161 -6.124635 1.131763 0
M  V30 31 H -1.842124 0.731200 -2.627843 0
M  V30 32 H -0.142431 0.319859 -2.208751 0
M  V30 33 H -1.019556 1.730721 -1.431591 0
M  V30 34 H 0.561244 1.112554 -0.139972 0
M  V30 35 H 2.576361 1.284488 1.072622 0
M  V30 36 H 2.832851 0.652106 2.723850 0
M  V30 37 H 1.397213 2.332088 3.602707 0
M  V30 38 H 2.876056 4.173595 3.345479 0
M  V30 39 H 3.669185 2.575177 3.454681 0
M  V30 40 H 4.896624 1.720491 1.487355 0
M  V30 41 H 5.919606 2.288146 -0.697358 0
M  V30 42 H 3.633149 5.831671 -0.892573 0
M  V30 43 H 2.616033 5.293298 1.251112 0
M  V30 44 H 0.878097 -0.572316 3.747207 0
M  V30 45 H -1.124986 -1.895470 3.377465 0
M  V30 46 H -3.438471 -1.376267 1.540626 0
M  V30 47 H -4.818133 -3.414934 0.941064 0
M  V30 48 H -4.331593 -4.853729 -1.860040 0
M  V30 49 H -3.884741 -8.173499 1.738530 0
M  V30 END ATOM
M  V30 BEGIN BOND
M  V30 1 1 1 2
M  V30 2 1 2 3
M  V30 3 2 3 4
M  V30 4 1 4 5
M  V30 5 1 5 6
M  V30 6 1 6 7
M  V30 7 1 7 8
M  V30 8 1 8 9
M  V30 9 2 9 10
M  V30 10 1 10 11
M  V30 11 2 11 12
M  V30 12 1 12 13
M  V30 13 1 12 14
M  V30 14 2 14 15
M  V30 15 2 5 16
M  V30 16 1 16 17
M  V30 17 2 17 18
M  V30 18 1 18 19
M  V30 19 1 19 20
M  V30 20 2 20 21
M  V30 21 1 20 22
M  V30 22 1 22 23
M  V30 23 2 23 24
M  V30 24 1 24 25
M  V30 25 2 25 26
M  V30 26 1 26 27
M  V30 27 3 27 28
M  V30 28 1 26 29
M  V30 29 2 29 30
M  V30 30 1 18 3
M  V30 31 1 30 23
M  V30 32 1 15 9
M  V30 33 1 1 31
M  V30 34 1 1 32
M  V30 35 1 1 33
M  V30 36 1 4 34
M  V30 37 1 6 35
M  V30 38 1 6 36
M  V30 39 1 7 37
M  V30 40 1 8 38
M  V30 41 1 8 39
M  V30 42 1 10 40
M  V30 43 1 11 41
M  V30 44 1 14 42
M  V30 45 1 15 43
M  V30 46 1 16 44
M  V30 47 1 17 45
M  V30 48 1 19 46
M  V30 49 1 22 47
M  V30 50 1 24 48
M  V30 51 1 29 49
M  V30 END BOND
M  V30 END CTAB
M  END
>  <Dataset>  (601) 
ChEMBL_Kinases

>  <Ligand_Instance>  (601) 
nan

>  <PDB_ID>  (601) 
nan

>  <Standardized_SMILES>  (601) 
COc1cc(CNCc2ccc(F)cc2)ccc1NC(=O)Nc1cnc(C#N)cn1

>  <Name>  (601) 
nan

>  <Pocket>  (601) 
nan

>  <ATP_Site>  (601) 
nan

>  <Peripheral>  (601) 
nan

>  <Num_H_Atoms_ProtBoundConf>  (601) 
nan

>  <Num_Resolved_Atoms>  (601) 
nan

>  <Num_Not_Resolved_Atoms>  (601) 
nan

$$$$
CHEMBL3694389
     RDKit          3D

  0  0  0  0  0  0  0  0  0  0999 V3000
M  V30 BEGIN CTAB
M  V30 COUNTS 49 51 0 0 0
M  V30 BEGIN ATOM
M  V30 1 C 1.768939 -0.823203 -1.545721 0
M  V30 2 O 0.581419 -0.936982 -0.790755 0
M  V30 3 C 0.575605 -0.512692 0.524057 0
M  V30 4 C 1.703376 0.012901 1.100416 0
M  V30 5 C 1.728864 0.436829 2.387546 0
M  V30 6 C 2.798410 1.002156 3.230707 0
M  V30 7 N 3.906311 1.456912 2.466225 0
M  V30 8 C 3.736819 2.748144 1.919627 0
M  V30 9 C 2.608444 2.986440 1.025762 0
M  V30 10 C 2.724879 2.845036 -0.362832 0
M  V30 11 C 1.660737 3.087628 -1.239232 0
M  V30 12 C 0.436849 3.483704 -0.728631 0
M  V30 13 C 0.304010 3.626780 0.628795 0
M  V30 14 C 1.358294 3.386986 1.501058 0
M  V30 15 C 0.538546 0.311077 3.105211 0
M  V30 16 Cl 0.342439 0.800937 4.800252 0
M  V30 17 C -0.605524 -0.221121 2.523579 0
M  V30 18 C -0.621321 -0.655093 1.196662 0
M  V30 19 N -1.801867 -1.202899 0.628188 0
M  V30 20 C -2.124260 -2.581758 0.614023 0
M  V30 21 O -1.351287 -3.445615 1.118835 0
M  V30 22 N -3.350115 -2.981660 0.011496 0
M  V30 23 C -3.741651 -4.361098 -0.083273 0
M  V30 24 C -4.935012 -4.790984 -0.622162 0
M  V30 25 N -5.158713 -6.124789 -0.673180 0
M  V30 26 C -4.279939 -7.032439 -0.227179 0
M  V30 27 C -4.544709 -8.452702 -0.300138 0
M  V30 28 N -4.777648 -9.595866 -0.365813 0
M  V30 29 C -3.070626 -6.610997 0.320946 0
M  V30 30 N -2.822945 -5.273184 0.383134 0
M  V30 31 H 1.588905 -1.072743 -2.620279 0
M  V30 32 H 2.576186 -1.476169 -1.118684 0
M  V30 33 H 2.105556 0.229707 -1.490827 0
M  V30 34 H 2.649771 0.127357 0.594733 0
M  V30 35 H 2.417018 1.852272 3.851784 0
M  V30 36 H 3.173998 0.191806 3.920628 0
M  V30 37 H 4.349180 0.746081 1.858028 0
M  V30 38 H 3.706653 3.537796 2.731742 0
M  V30 39 H 4.661525 3.052537 1.320650 0
M  V30 40 H 3.705970 2.531563 -0.726098 0
M  V30 41 H 1.854807 2.948301 -2.310127 0
M  V30 42 H -0.317184 3.647179 -1.466741 0
M  V30 43 H -0.684893 3.943710 0.996566 0
M  V30 44 H 1.191034 3.519415 2.575892 0
M  V30 45 H -1.545346 -0.325695 3.074862 0
M  V30 46 H -2.380705 -0.434241 0.226588 0
M  V30 47 H -4.014848 -2.296243 -0.409138 0
M  V30 48 H -5.638157 -4.037873 -0.978855 0
M  V30 49 H -2.394896 -7.374659 0.667273 0
M  V30 END ATOM
M  V30 BEGIN BOND
M  V30 1 1 1 2
M  V30 2 1 2 3
M  V30 3 2 3 4
M  V30 4 1 4 5
M  V30 5 1 5 6
M  V30 6 1 6 7
M  V30 7 1 7 8
M  V30 8 1 8 9
M  V30 9 2 9 10
M  V30 10 1 10 11
M  V30 11 2 11 12
M  V30 12 1 12 13
M  V30 13 2 13 14
M  V30 14 2 5 15
M  V30 15 1 15 16
M  V30 16 1 15 17
M  V30 17 2 17 18
M  V30 18 1 18 19
M  V30 19 1 19 20
M  V30 20 2 20 21
M  V30 21 1 20 22
M  V30 22 1 22 23
M  V30 23 2 23 24
M  V30 24 1 24 25
M  V30 25 2 25 26
M  V30 26 1 26 27
M  V30 27 3 27 28
M  V30 28 1 26 29
M  V30 29 2 29 30
M  V30 30 1 18 3
M  V30 31 1 30 23
M  V30 32 1 14 9
M  V30 33 1 1 31
M  V30 34 1 1 32
M  V30 35 1 1 33
M  V30 36 1 4 34
M  V30 37 1 6 35
M  V30 38 1 6 36
M  V30 39 1 7 37
M  V30 40 1 8 38
M  V30 41 1 8 39
M  V30 42 1 10 40
M  V30 43 1 11 41
M  V30 44 1 12 42
M  V30 45 1 13 43
M  V30 46 1 14 44
M  V30 47 1 17 45
M  V30 48 1 19 46
M  V30 49 1 22 47
M  V30 50 1 24 48
M  V30 51 1 29 49
M  V30 END BOND
M  V30 END CTAB
M  END
>  <Dataset>  (602) 
ChEMBL_Kinases

>  <Ligand_Instance>  (602) 
nan

>  <PDB_ID>  (602) 
nan

>  <Standardized_SMILES>  (602) 
COc1cc(CNCc2ccccc2)c(Cl)cc1NC(=O)Nc1cnc(C#N)cn1

>  <Name>  (602) 
nan

>  <Pocket>  (602) 
nan

>  <ATP_Site>  (602) 
nan

>  <Peripheral>  (602) 
nan

>  <Num_H_Atoms_ProtBoundConf>  (602) 
nan

>  <Num_Resolved_Atoms>  (602) 
nan

>  <Num_Not_Resolved_Atoms>  (602) 
nan

$$$$
CHEMBL3694388
     RDKit          3D

  0  0  0  0  0  0  0  0  0  0999 V3000
M  V30 BEGIN CTAB
M  V30 COUNTS 56 58 0 0 0
M  V30 BEGIN ATOM
M  V30 1 C 1.795204 -2.581628 -0.873715 0
M  V30 2 O 2.163045 -1.266921 -1.310136 0
M  V30 3 C 2.877382 -0.423582 -0.454050 0
M  V30 4 C 3.228784 -0.865384 0.824031 0
M  V30 5 C 3.929483 -0.074359 1.700971 0
M  V30 6 C 4.288955 1.182707 1.299744 0
M  V30 7 C 3.953166 1.637848 0.045379 0
M  V30 8 C 3.239683 0.835479 -0.850610 0
M  V30 9 C 2.904583 1.369613 -2.187762 0
M  V30 10 N 1.477923 1.755287 -2.259182 0
M  V30 11 C 1.191847 2.758969 -1.277452 0
M  V30 12 C -0.276685 3.087737 -1.295991 0
M  V30 13 C -1.139167 1.940538 -0.963332 0
M  V30 14 C -1.614678 1.889982 0.355142 0
M  V30 15 C -2.416773 0.905696 0.892030 0
M  V30 16 O -2.841834 0.924446 2.191293 0
M  V30 17 C -2.455710 1.997565 3.060240 0
M  V30 18 C -2.799868 -0.124224 0.098154 0
M  V30 19 N -3.620397 -1.212926 0.488613 0
M  V30 20 C -3.015136 -2.378342 1.028255 0
M  V30 21 O -1.745387 -2.302533 1.104822 0
M  V30 22 N -3.723569 -3.554179 1.459370 0
M  V30 23 C -2.893759 -4.595409 1.963731 0
M  V30 24 C -2.476332 -5.482393 0.987821 0
M  V30 25 N -1.686352 -6.513841 1.330097 0
M  V30 26 C -1.298944 -6.692790 2.605011 0
M  V30 27 C -0.448696 -7.808535 2.958563 0
M  V30 28 N 0.244120 -8.690710 3.229894 0
M  V30 29 C -1.710674 -5.806119 3.608023 0
M  V30 30 N -2.510885 -4.762132 3.257538 0
M  V30 31 C -2.365626 -0.133190 -1.210740 0
M  V30 32 C -1.567354 0.876338 -1.690134 0
M  V30 33 Cl -1.066245 0.825269 -3.363895 0
M  V30 34 H 1.155902 -2.563917 0.010302 0
M  V30 35 H 2.766787 -3.067726 -0.610550 0
M  V30 36 H 1.281752 -3.111541 -1.688561 0
M  V30 37 H 2.939842 -1.863413 1.134189 0
M  V30 38 H 4.223102 -0.365140 2.690742 0
M  V30 39 H 4.844044 1.858535 1.945569 0
M  V30 40 H 4.237351 2.634326 -0.274336 0
M  V30 41 H 3.508742 2.232978 -2.473131 0
M  V30 42 H 3.030661 0.568088 -2.941468 0
M  V30 43 H 1.448444 2.275904 -3.193047 0
M  V30 44 H 1.426790 2.406964 -0.246488 0
M  V30 45 H 1.777145 3.681932 -1.468282 0
M  V30 46 H -0.517524 3.919690 -0.599499 0
M  V30 47 H -0.571503 3.475887 -2.302017 0
M  V30 48 H -1.353105 2.680432 1.062078 0
M  V30 49 H -2.751143 2.974628 2.649165 0
M  V30 50 H -2.872358 1.827251 4.065082 0
M  V30 51 H -1.336394 1.883243 3.165924 0
M  V30 52 H -4.682036 -1.257810 0.420726 0
M  V30 53 H -4.738305 -3.462560 1.335050 0
M  V30 54 H -2.749634 -5.401969 -0.065693 0
M  V30 55 H -1.420568 -5.913960 4.644406 0
M  V30 56 H -2.644594 -0.935961 -1.889039 0
M  V30 END ATOM
M  V30 BEGIN BOND
M  V30 1 1 1 2
M  V30 2 1 2 3
M  V30 3 2 3 4
M  V30 4 1 4 5
M  V30 5 2 5 6
M  V30 6 1 6 7
M  V30 7 2 7 8
M  V30 8 1 8 9
M  V30 9 1 9 10
M  V30 10 1 10 11
M  V30 11 1 11 12
M  V30 12 1 12 13
M  V30 13 2 13 14
M  V30 14 1 14 15
M  V30 15 1 15 16
M  V30 16 1 16 17
M  V30 17 2 15 18
M  V30 18 1 18 19
M  V30 19 1 19 20
M  V30 20 2 20 21
M  V30 21 1 20 22
M  V30 22 1 22 23
M  V30 23 2 23 24
M  V30 24 1 24 25
M  V30 25 2 25 26
M  V30 26 1 26 27
M  V30 27 3 27 28
M  V30 28 1 26 29
M  V30 29 2 29 30
M  V30 30 1 18 31
M  V30 31 2 31 32
M  V30 32 1 32 33
M  V30 33 1 8 3
M  V30 34 1 32 13
M  V30 35 1 30 23
M  V30 36 1 1 34
M  V30 37 1 1 35
M  V30 38 1 1 36
M  V30 39 1 4 37
M  V30 40 1 5 38
M  V30 41 1 6 39
M  V30 42 1 7 40
M  V30 43 1 9 41
M  V30 44 1 9 42
M  V30 45 1 10 43
M  V30 46 1 11 44
M  V30 47 1 11 45
M  V30 48 1 12 46
M  V30 49 1 12 47
M  V30 50 1 14 48
M  V30 51 1 17 49
M  V30 52 1 17 50
M  V30 53 1 17 51
M  V30 54 1 19 52
M  V30 55 1 22 53
M  V30 56 1 24 54
M  V30 57 1 29 55
M  V30 58 1 31 56
M  V30 END BOND
M  V30 END CTAB
M  END
>  <Dataset>  (603) 
ChEMBL_Kinases

>  <Ligand_Instance>  (603) 
nan

>  <PDB_ID>  (603) 
nan

>  <Standardized_SMILES>  (603) 
COc1ccccc1CNCCc1cc(OC)c(NC(=O)Nc2cnc(C#N)cn2)cc1Cl

>  <Name>  (603) 
nan

>  <Pocket>  (603) 
nan

>  <ATP_Site>  (603) 
nan

>  <Peripheral>  (603) 
nan

>  <Num_H_Atoms_ProtBoundConf>  (603) 
nan

>  <Num_Resolved_Atoms>  (603) 
nan

>  <Num_Not_Resolved_Atoms>  (603) 
nan

$$$$
CHEMBL3694387
     RDKit          3D

  0  0  0  0  0  0  0  0  0  0999 V3000
M  V30 BEGIN CTAB
M  V30 COUNTS 55 58 0 0 0
M  V30 BEGIN ATOM
M  V30 1 C 2.146125 -4.231501 2.714679 0
M  V30 2 O 0.765410 -4.119063 2.523294 0
M  V30 3 C 0.080135 -2.933417 2.429538 0
M  V30 4 C 0.629639 -1.672312 2.507018 0
M  V30 5 C -0.068766 -0.448769 2.411174 0
M  V30 6 C 0.850777 0.680219 2.502392 0
M  V30 7 C 1.253804 1.202088 1.156874 0
M  V30 8 N 0.241639 1.775832 0.355949 0
M  V30 9 C -0.219867 3.057948 0.788720 0
M  V30 10 C 0.821820 4.112641 0.712396 0
M  V30 11 C 1.718101 4.483970 1.691969 0
M  V30 12 C 2.626826 5.508634 1.417521 0
M  V30 13 C 2.638638 6.145413 0.195056 0
M  V30 14 C 1.740723 5.781236 -0.801581 0
M  V30 15 C 0.842098 4.755538 -0.506006 0
M  V30 16 O 2.013404 6.602182 -1.888677 0
M  V30 17 C 3.238205 7.285859 -1.697859 0
M  V30 18 O 3.447224 7.176778 -0.282614 0
M  V30 19 C -1.399418 -0.681314 2.227648 0
M  V30 20 Cl -2.347905 0.777145 2.138927 0
M  V30 21 C -2.022237 -1.899427 2.139772 0
M  V30 22 C -1.278104 -3.053202 2.241103 0
M  V30 23 N -2.001907 -4.272171 2.139037 0
M  V30 24 C -2.115923 -4.761990 0.816138 0
M  V30 25 O -1.594136 -4.107867 -0.096814 0
M  V30 26 N -2.797521 -5.966092 0.471755 0
M  V30 27 C -2.858348 -6.379741 -0.911458 0
M  V30 28 C -1.892118 -7.189669 -1.461901 0
M  V30 29 N -2.006267 -7.539882 -2.756721 0
M  V30 30 C -3.025325 -7.130580 -3.532898 0
M  V30 31 C -3.160331 -7.495368 -4.914226 0
M  V30 32 N -3.258729 -7.810017 -6.045547 0
M  V30 33 C -4.008381 -6.310852 -2.985827 0
M  V30 34 N -3.888305 -5.957936 -1.671358 0
M  V30 35 H 2.693215 -3.464923 2.122315 0
M  V30 36 H 2.555800 -5.208529 2.437662 0
M  V30 37 H 2.356864 -4.060811 3.798547 0
M  V30 38 H 1.712619 -1.758037 2.657808 0
M  V30 39 H 1.767618 0.451660 3.066608 0
M  V30 40 H 0.286532 1.479877 3.076818 0
M  V30 41 H 1.641093 0.299829 0.582316 0
M  V30 42 H 2.166964 1.852611 1.224856 0
M  V30 43 H -0.414059 1.166889 -0.123718 0
M  V30 44 H -1.167977 3.320677 0.301166 0
M  V30 45 H -0.437487 2.977359 1.895781 0
M  V30 46 H 1.636844 3.930780 2.618377 0
M  V30 47 H 3.302517 5.741903 2.246647 0
M  V30 48 H 0.184827 4.542121 -1.338894 0
M  V30 49 H 4.063505 6.753378 -2.237312 0
M  V30 50 H 3.181688 8.355178 -1.964937 0
M  V30 51 H -3.090672 -1.890825 1.991091 0
M  V30 52 H -2.429429 -4.801485 2.915507 0
M  V30 53 H -3.248088 -6.534362 1.247286 0
M  V30 54 H -1.070973 -7.534304 -0.881544 0
M  V30 55 H -4.857299 -5.944235 -3.556605 0
M  V30 END ATOM
M  V30 BEGIN BOND
M  V30 1 1 1 2
M  V30 2 1 2 3
M  V30 3 2 3 4
M  V30 4 1 4 5
M  V30 5 1 5 6
M  V30 6 1 6 7
M  V30 7 1 7 8
M  V30 8 1 8 9
M  V30 9 1 9 10
M  V30 10 2 10 11
M  V30 11 1 11 12
M  V30 12 2 12 13
M  V30 13 1 13 14
M  V30 14 2 14 15
M  V30 15 1 14 16
M  V30 16 1 16 17
M  V30 17 1 17 18
M  V30 18 2 5 19
M  V30 19 1 19 20
M  V30 20 1 19 21
M  V30 21 2 21 22
M  V30 22 1 22 23
M  V30 23 1 23 24
M  V30 24 2 24 25
M  V30 25 1 24 26
M  V30 26 1 26 27
M  V30 27 2 27 28
M  V30 28 1 28 29
M  V30 29 2 29 30
M  V30 30 1 30 31
M  V30 31 3 31 32
M  V30 32 1 30 33
M  V30 33 2 33 34
M  V30 34 1 22 3
M  V30 35 1 34 27
M  V30 36 1 15 10
M  V30 37 1 18 13
M  V30 38 1 1 35
M  V30 39 1 1 36
M  V30 40 1 1 37
M  V30 41 1 4 38
M  V30 42 1 6 39
M  V30 43 1 6 40
M  V30 44 1 7 41
M  V30 45 1 7 42
M  V30 46 1 8 43
M  V30 47 1 9 44
M  V30 48 1 9 45
M  V30 49 1 11 46
M  V30 50 1 12 47
M  V30 51 1 15 48
M  V30 52 1 17 49
M  V30 53 1 17 50
M  V30 54 1 21 51
M  V30 55 1 23 52
M  V30 56 1 26 53
M  V30 57 1 28 54
M  V30 58 1 33 55
M  V30 END BOND
M  V30 END CTAB
M  END
>  <Dataset>  (604) 
ChEMBL_Kinases

>  <Ligand_Instance>  (604) 
nan

>  <PDB_ID>  (604) 
nan

>  <Standardized_SMILES>  (604) 
COc1cc(CCNCc2ccc3c(c2)OCO3)c(Cl)cc1NC(=O)Nc1cnc(C#N)cn1

>  <Name>  (604) 
nan

>  <Pocket>  (604) 
nan

>  <ATP_Site>  (604) 
nan

>  <Peripheral>  (604) 
nan

>  <Num_H_Atoms_ProtBoundConf>  (604) 
nan

>  <Num_Resolved_Atoms>  (604) 
nan

>  <Num_Not_Resolved_Atoms>  (604) 
nan

$$$$
CHEMBL3694386
     RDKit          3D

  0  0  0  0  0  0  0  0  0  0999 V3000
M  V30 BEGIN CTAB
M  V30 COUNTS 59 61 0 0 0
M  V30 BEGIN ATOM
M  V30 1 C 4.660626 1.862200 5.414817 0
M  V30 2 O 4.547155 2.161285 4.046078 0
M  V30 3 C 3.330056 2.492719 3.436628 0
M  V30 4 C 2.134005 2.555353 4.125276 0
M  V30 5 C 1.016605 2.891151 3.411371 0
M  V30 6 C 0.964209 3.175873 2.061208 0
M  V30 7 C -0.268211 3.534993 1.333043 0 CFG=2
M  V30 8 C -1.460425 3.270400 2.205886 0
M  V30 9 N -0.343743 2.804967 0.103927 0
M  V30 10 C -1.498535 3.124426 -0.685925 0
M  V30 11 C -1.423814 2.265554 -1.957116 0
M  V30 12 C -1.427455 0.823490 -1.518576 0
M  V30 13 C -0.266721 0.075857 -1.522131 0
M  V30 14 C -0.342735 -1.251149 -1.101672 0
M  V30 15 O 0.850283 -1.960200 -1.123477 0
M  V30 16 C 2.076342 -1.430839 -1.530183 0
M  V30 17 C -1.532979 -1.856090 -0.679106 0
M  V30 18 N -1.417133 -3.216513 -0.284616 0
M  V30 19 C -1.523143 -4.461337 -0.942161 0
M  V30 20 O -1.770161 -4.607323 -2.144875 0
M  V30 21 N -1.309415 -5.542116 -0.045330 0
M  V30 22 C -1.374666 -6.885122 -0.518088 0
M  V30 23 C -2.536545 -7.635735 -0.535807 0
M  V30 24 N -2.534255 -8.916339 -1.000324 0
M  V30 25 C -1.391497 -9.478365 -1.454112 0
M  V30 26 C -1.351275 -10.841914 -1.956632 0
M  V30 27 N -1.328130 -11.936616 -2.349516 0
M  V30 28 C -0.235537 -8.702900 -1.426166 0
M  V30 29 N -0.243130 -7.436557 -0.965581 0
M  V30 30 C -2.695175 -1.080155 -0.684008 0
M  V30 31 C -2.605273 0.234129 -1.103362 0
M  V30 32 Cl -4.118182 1.094875 -1.065662 0
M  V30 33 C 2.181767 3.099096 1.424018 0
M  V30 34 C 3.367694 2.764006 2.077581 0
M  V30 35 H 4.805259 2.799424 5.988624 0
M  V30 36 H 5.584336 1.250533 5.563712 0
M  V30 37 H 3.763154 1.306592 5.808173 0
M  V30 38 H 2.120741 2.343171 5.175518 0
M  V30 39 H 0.100437 2.928534 3.989549 0
M  V30 40 H -0.214535 4.625650 1.124759 0
M  V30 41 H -1.473707 2.239418 2.613019 0
M  V30 42 H -1.419372 3.951896 3.105164 0
M  V30 43 H -2.415477 3.543854 1.707126 0
M  V30 44 H 0.486420 2.986994 -0.494674 0
M  V30 45 H -1.591789 4.183654 -0.955646 0
M  V30 46 H -2.427503 2.776706 -0.175047 0
M  V30 47 H -0.458848 2.470746 -2.425134 0
M  V30 48 H -2.251353 2.497085 -2.639413 0
M  V30 49 H 0.670073 0.502984 -1.839717 0
M  V30 50 H 2.315073 -0.465017 -1.023173 0
M  V30 51 H 2.886427 -2.122440 -1.231936 0
M  V30 52 H 2.102012 -1.345107 -2.639815 0
M  V30 53 H -1.212156 -3.037184 0.722410 0
M  V30 54 H -1.096147 -5.524540 0.979986 0
M  V30 55 H -3.447405 -7.193600 -0.176206 0
M  V30 56 H 0.671824 -9.145383 -1.785003 0
M  V30 57 H -3.575871 -1.583824 -0.354328 0
M  V30 58 H 2.298920 3.293425 0.377109 0
M  V30 59 H 4.317749 2.710389 1.549084 0
M  V30 END ATOM
M  V30 BEGIN BOND
M  V30 1 1 1 2
M  V30 2 1 2 3
M  V30 3 2 3 4
M  V30 4 1 4 5
M  V30 5 2 5 6
M  V30 6 1 6 7
M  V30 7 1 7 8
M  V30 8 1 7 9
M  V30 9 1 9 10
M  V30 10 1 10 11
M  V30 11 1 11 12
M  V30 12 2 12 13
M  V30 13 1 13 14
M  V30 14 1 14 15
M  V30 15 1 15 16
M  V30 16 2 14 17
M  V30 17 1 17 18
M  V30 18 1 18 19
M  V30 19 2 19 20
M  V30 20 1 19 21
M  V30 21 1 21 22
M  V30 22 2 22 23
M  V30 23 1 23 24
M  V30 24 2 24 25
M  V30 25 1 25 26
M  V30 26 3 26 27
M  V30 27 1 25 28
M  V30 28 2 28 29
M  V30 29 1 17 30
M  V30 30 2 30 31
M  V30 31 1 31 32
M  V30 32 1 6 33
M  V30 33 2 33 34
M  V30 34 1 34 3
M  V30 35 1 31 12
M  V30 36 1 29 22
M  V30 37 1 1 35
M  V30 38 1 1 36
M  V30 39 1 1 37
M  V30 40 1 4 38
M  V30 41 1 5 39
M  V30 42 1 7 40 CFG=3
M  V30 43 1 8 41
M  V30 44 1 8 42
M  V30 45 1 8 43
M  V30 46 1 9 44
M  V30 47 1 10 45
M  V30 48 1 10 46
M  V30 49 1 11 47
M  V30 50 1 11 48
M  V30 51 1 13 49
M  V30 52 1 16 50
M  V30 53 1 16 51
M  V30 54 1 16 52
M  V30 55 1 18 53
M  V30 56 1 21 54
M  V30 57 1 23 55
M  V30 58 1 28 56
M  V30 59 1 30 57
M  V30 60 1 33 58
M  V30 61 1 34 59
M  V30 END BOND
M  V30 END CTAB
M  END
>  <Dataset>  (605) 
ChEMBL_Kinases

>  <Ligand_Instance>  (605) 
nan

>  <PDB_ID>  (605) 
nan

>  <Standardized_SMILES>  (605) 
COc1ccc([C@H](C)NCCc2cc(OC)c(NC(=O)Nc3cnc(C#N)cn3)cc2Cl)cc1

>  <Name>  (605) 
nan

>  <Pocket>  (605) 
nan

>  <ATP_Site>  (605) 
nan

>  <Peripheral>  (605) 
nan

>  <Num_H_Atoms_ProtBoundConf>  (605) 
nan

>  <Num_Resolved_Atoms>  (605) 
nan

>  <Num_Not_Resolved_Atoms>  (605) 
nan

$$$$
CHEMBL3694385
     RDKit          3D

  0  0  0  0  0  0  0  0  0  0999 V3000
M  V30 BEGIN CTAB
M  V30 COUNTS 69 72 0 0 0
M  V30 BEGIN ATOM
M  V30 1 C 5.187245 -1.480658 2.655466 0
M  V30 2 O 4.240239 -2.147790 1.866083 0
M  V30 3 C 2.892434 -2.277576 2.157816 0
M  V30 4 C 2.190245 -1.803559 3.245557 0
M  V30 5 C 0.835712 -2.037549 3.359924 0
M  V30 6 C 0.117032 -1.516425 4.541819 0
M  V30 7 C -0.712441 -0.294272 4.208924 0
M  V30 8 N 0.145693 0.732575 3.713766 0
M  V30 9 C -0.560622 1.950892 3.369235 0 CFG=1
M  V30 10 C 0.469419 2.930434 2.851266 0
M  V30 11 C -1.584699 1.751411 2.322800 0
M  V30 12 C -1.275848 0.995471 1.212488 0
M  V30 13 C -2.258687 0.825150 0.246343 0
M  V30 14 C -3.529298 1.348309 0.295765 0
M  V30 15 N -4.501199 1.153525 -0.697650 0
M  V30 16 C -4.319780 0.299142 -1.852107 0
M  V30 17 C -5.601557 -0.481212 -2.046797 0
M  V30 18 N -6.412825 -0.570277 -0.856966 0
M  V30 19 C -6.806346 0.720158 -0.345705 0
M  V30 20 C -5.795017 1.797194 -0.670593 0
M  V30 21 C -3.763191 2.089722 1.431813 0
M  V30 22 C -2.842710 2.306260 2.436253 0
M  V30 23 C 0.157238 -2.752327 2.384616 0
M  V30 24 Cl -1.565042 -3.066896 2.499325 0
M  V30 25 C 0.841120 -3.247088 1.267803 0
M  V30 26 C 2.197442 -2.996533 1.181648 0
M  V30 27 N 2.816367 -3.536971 0.011075 0
M  V30 28 C 3.043609 -3.016184 -1.286955 0
M  V30 29 O 2.631079 -1.838413 -1.491399 0
M  V30 30 N 3.696046 -3.855114 -2.198284 0
M  V30 31 C 3.918227 -3.302982 -3.512683 0
M  V30 32 C 3.075052 -3.378884 -4.596586 0
M  V30 33 N 3.538979 -2.765578 -5.720402 0
M  V30 34 C 4.711410 -2.142262 -5.771476 0
M  V30 35 C 5.151755 -1.511698 -6.983543 0
M  V30 36 N 5.513167 -1.021602 -7.966631 0
M  V30 37 C 5.544026 -2.074213 -4.680307 0
M  V30 38 N 5.104510 -2.671782 -3.565806 0
M  V30 39 H 5.276198 -1.948544 3.645785 0
M  V30 40 H 4.900040 -0.409012 2.777276 0
M  V30 41 H 6.154709 -1.486929 2.094186 0
M  V30 42 H 2.790037 -1.261293 3.952905 0
M  V30 43 H -0.541687 -2.362894 4.891140 0
M  V30 44 H 0.843141 -1.264219 5.337441 0
M  V30 45 H -1.262142 0.065673 5.081908 0
M  V30 46 H -1.400629 -0.593790 3.387014 0
M  V30 47 H 0.726001 0.464057 2.914353 0
M  V30 48 H -0.993438 2.441626 4.281076 0
M  V30 49 H 0.007329 3.805753 2.361389 0
M  V30 50 H 1.052002 3.282755 3.738888 0
M  V30 51 H 1.166825 2.378538 2.208685 0
M  V30 52 H -0.297947 0.567405 1.129949 0
M  V30 53 H -1.936363 0.222267 -0.589610 0
M  V30 54 H -3.442646 -0.350365 -1.798672 0
M  V30 55 H -4.204548 1.011597 -2.722253 0
M  V30 56 H -5.302109 -1.520442 -2.309962 0
M  V30 57 H -6.152285 -0.101004 -2.909489 0
M  V30 58 H -6.015283 -1.159277 -0.122914 0
M  V30 59 H -6.850523 0.640628 0.759478 0
M  V30 60 H -7.820672 1.007571 -0.688420 0
M  V30 61 H -6.055812 2.143227 -1.708660 0
M  V30 62 H -5.870703 2.667636 -0.021059 0
M  V30 63 H -4.711451 2.567751 1.624865 0
M  V30 64 H -3.017198 2.880955 3.320588 0
M  V30 65 H 0.292947 -3.802302 0.518133 0
M  V30 66 H 3.130236 -4.515466 0.267639 0
M  V30 67 H 4.005403 -4.824781 -1.941624 0
M  V30 68 H 2.167180 -3.901977 -4.434466 0
M  V30 69 H 6.483442 -1.563320 -4.757140 0
M  V30 END ATOM
M  V30 BEGIN BOND
M  V30 1 1 1 2
M  V30 2 1 2 3
M  V30 3 2 3 4
M  V30 4 1 4 5
M  V30 5 1 5 6
M  V30 6 1 6 7
M  V30 7 1 7 8
M  V30 8 1 8 9
M  V30 9 1 9 10
M  V30 10 1 9 11
M  V30 11 2 11 12
M  V30 12 1 12 13
M  V30 13 2 13 14
M  V30 14 1 14 15
M  V30 15 1 15 16
M  V30 16 1 16 17
M  V30 17 1 17 18
M  V30 18 1 18 19
M  V30 19 1 19 20
M  V30 20 1 14 21
M  V30 21 2 21 22
M  V30 22 2 5 23
M  V30 23 1 23 24
M  V30 24 1 23 25
M  V30 25 2 25 26
M  V30 26 1 26 27
M  V30 27 1 27 28
M  V30 28 2 28 29
M  V30 29 1 28 30
M  V30 30 1 30 31
M  V30 31 2 31 32
M  V30 32 1 32 33
M  V30 33 2 33 34
M  V30 34 1 34 35
M  V30 35 3 35 36
M  V30 36 1 34 37
M  V30 37 2 37 38
M  V30 38 1 26 3
M  V30 39 1 38 31
M  V30 40 1 22 11
M  V30 41 1 20 15
M  V30 42 1 1 39
M  V30 43 1 1 40
M  V30 44 1 1 41
M  V30 45 1 4 42
M  V30 46 1 6 43
M  V30 47 1 6 44
M  V30 48 1 7 45
M  V30 49 1 7 46
M  V30 50 1 8 47
M  V30 51 1 9 48 CFG=1
M  V30 52 1 10 49
M  V30 53 1 10 50
M  V30 54 1 10 51
M  V30 55 1 12 52
M  V30 56 1 13 53
M  V30 57 1 16 54
M  V30 58 1 16 55
M  V30 59 1 17 56
M  V30 60 1 17 57
M  V30 61 1 18 58
M  V30 62 1 19 59
M  V30 63 1 19 60
M  V30 64 1 20 61
M  V30 65 1 20 62
M  V30 66 1 21 63
M  V30 67 1 22 64
M  V30 68 1 25 65
M  V30 69 1 27 66
M  V30 70 1 30 67
M  V30 71 1 32 68
M  V30 72 1 37 69
M  V30 END BOND
M  V30 END CTAB
M  END
>  <Dataset>  (606) 
ChEMBL_Kinases

>  <Ligand_Instance>  (606) 
nan

>  <PDB_ID>  (606) 
nan

>  <Standardized_SMILES>  (606) 
COc1cc(CCN[C@@H](C)c2ccc(N3CCNCC3)cc2)c(Cl)cc1NC(=O)Nc1cnc(C#N)cn1

>  <Name>  (606) 
nan

>  <Pocket>  (606) 
nan

>  <ATP_Site>  (606) 
nan

>  <Peripheral>  (606) 
nan

>  <Num_H_Atoms_ProtBoundConf>  (606) 
nan

>  <Num_Resolved_Atoms>  (606) 
nan

>  <Num_Not_Resolved_Atoms>  (606) 
nan

$$$$
CHEMBL3694384
     RDKit          3D

  0  0  0  0  0  0  0  0  0  0999 V3000
M  V30 BEGIN CTAB
M  V30 COUNTS 69 72 0 0 0
M  V30 BEGIN ATOM
M  V30 1 C 0.560596 -3.586645 2.535480 0
M  V30 2 O 1.488635 -3.200456 1.520032 0
M  V30 3 C 2.283920 -2.078690 1.601413 0
M  V30 4 C 2.247816 -1.215657 2.699628 0
M  V30 5 C 3.042288 -0.058932 2.827144 0
M  V30 6 C 2.798880 0.627393 4.086416 0
M  V30 7 C 1.733923 1.652917 4.157052 0
M  V30 8 N 1.772804 2.812839 3.422440 0
M  V30 9 C 1.630309 2.962541 2.054855 0
M  V30 10 C 0.351553 2.410384 1.511587 0
M  V30 11 C 0.147912 1.178460 0.935282 0
M  V30 12 C -1.073087 0.739133 0.474368 0
M  V30 13 C -2.185034 1.545622 0.574052 0
M  V30 14 N -3.442229 1.100198 0.083594 0
M  V30 15 C -3.601231 0.005866 -0.855847 0
M  V30 16 C -4.786297 -0.838988 -0.424522 0
M  V30 17 N -5.064781 -0.673999 0.957601 0
M  V30 18 C -4.440802 -1.545179 1.875099 0
M  V30 19 C -5.385457 0.637971 1.397269 0
M  V30 20 C -4.717552 1.676132 0.486136 0
M  V30 21 C -1.988368 2.781730 1.149929 0
M  V30 22 C -0.771480 3.244366 1.619953 0
M  V30 23 C 3.887282 0.178192 1.764162 0
M  V30 24 C 3.955272 -0.644557 0.662429 0
M  V30 25 C 3.159207 -1.765272 0.582330 0
M  V30 26 N 3.193561 -2.643129 -0.536390 0
M  V30 27 C 2.511083 -2.751036 -1.755923 0
M  V30 28 O 1.637833 -1.865532 -1.946903 0
M  V30 29 N 2.847024 -3.818170 -2.654596 0
M  V30 30 C 2.068524 -3.802160 -3.849497 0
M  V30 31 C 0.891897 -4.539986 -3.784790 0
M  V30 32 N 0.034970 -4.627197 -4.845940 0
M  V30 33 C 0.349932 -3.967822 -5.999223 0
M  V30 34 C -0.523014 -4.017708 -7.164147 0
M  V30 35 N -1.205062 -4.058384 -8.095451 0
M  V30 36 C 1.514949 -3.234694 -6.068396 0
M  V30 37 N 2.346550 -3.160305 -5.014566 0
M  V30 38 H 0.313745 -4.658568 2.345694 0
M  V30 39 H 1.094138 -3.563833 3.521247 0
M  V30 40 H -0.323887 -2.947063 2.583735 0
M  V30 41 H 1.526147 -1.544188 3.453076 0
M  V30 42 H 3.761160 1.124892 4.399110 0
M  V30 43 H 2.666722 -0.150089 4.899825 0
M  V30 44 H 0.756603 1.074799 4.005494 0
M  V30 45 H 1.709559 1.963570 5.267348 0
M  V30 46 H 2.222724 3.640470 3.849867 0
M  V30 47 H 2.443735 2.561876 1.405162 0
M  V30 48 H 1.631957 4.081245 1.773612 0
M  V30 49 H 1.034522 0.585005 0.865632 0
M  V30 50 H -1.057709 -0.250795 0.052837 0
M  V30 51 H -3.892328 0.516146 -1.824344 0
M  V30 52 H -2.705494 -0.595567 -1.021159 0
M  V30 53 H -5.691140 -0.595154 -1.058840 0
M  V30 54 H -4.591160 -1.910553 -0.614038 0
M  V30 55 H -3.806377 -2.296092 1.320713 0
M  V30 56 H -5.125364 -2.158733 2.482928 0
M  V30 57 H -3.720771 -0.973130 2.494172 0
M  V30 58 H -6.478361 0.800562 1.448809 0
M  V30 59 H -4.934731 0.791466 2.399703 0
M  V30 60 H -4.616367 2.644522 1.008257 0
M  V30 61 H -5.360834 1.788171 -0.389036 0
M  V30 62 H -2.803715 3.475027 1.264636 0
M  V30 63 H -0.660737 4.229407 2.070255 0
M  V30 64 H 4.464492 1.075870 1.928027 0
M  V30 65 H 4.640003 -0.384940 -0.118226 0
M  V30 66 H 3.961652 -3.304017 -0.211416 0
M  V30 67 H 3.584877 -4.466492 -2.364623 0
M  V30 68 H 0.491974 -5.122959 -2.943779 0
M  V30 69 H 1.801476 -2.695882 -6.972412 0
M  V30 END ATOM
M  V30 BEGIN BOND
M  V30 1 1 1 2
M  V30 2 1 2 3
M  V30 3 2 3 4
M  V30 4 1 4 5
M  V30 5 1 5 6
M  V30 6 1 6 7
M  V30 7 1 7 8
M  V30 8 1 8 9
M  V30 9 1 9 10
M  V30 10 2 10 11
M  V30 11 1 11 12
M  V30 12 2 12 13
M  V30 13 1 13 14
M  V30 14 1 14 15
M  V30 15 1 15 16
M  V30 16 1 16 17
M  V30 17 1 17 18
M  V30 18 1 17 19
M  V30 19 1 19 20
M  V30 20 1 13 21
M  V30 21 2 21 22
M  V30 22 2 5 23
M  V30 23 1 23 24
M  V30 24 2 24 25
M  V30 25 1 25 26
M  V30 26 1 26 27
M  V30 27 2 27 28
M  V30 28 1 27 29
M  V30 29 1 29 30
M  V30 30 2 30 31
M  V30 31 1 31 32
M  V30 32 2 32 33
M  V30 33 1 33 34
M  V30 34 3 34 35
M  V30 35 1 33 36
M  V30 36 2 36 37
M  V30 37 1 25 3
M  V30 38 1 37 30
M  V30 39 1 22 10
M  V30 40 1 20 14
M  V30 41 1 1 38
M  V30 42 1 1 39
M  V30 43 1 1 40
M  V30 44 1 4 41
M  V30 45 1 6 42
M  V30 46 1 6 43
M  V30 47 1 7 44
M  V30 48 1 7 45
M  V30 49 1 8 46
M  V30 50 1 9 47
M  V30 51 1 9 48
M  V30 52 1 11 49
M  V30 53 1 12 50
M  V30 54 1 15 51
M  V30 55 1 15 52
M  V30 56 1 16 53
M  V30 57 1 16 54
M  V30 58 1 18 55
M  V30 59 1 18 56
M  V30 60 1 18 57
M  V30 61 1 19 58
M  V30 62 1 19 59
M  V30 63 1 20 60
M  V30 64 1 20 61
M  V30 65 1 21 62
M  V30 66 1 22 63
M  V30 67 1 23 64
M  V30 68 1 24 65
M  V30 69 1 26 66
M  V30 70 1 29 67
M  V30 71 1 31 68
M  V30 72 1 36 69
M  V30 END BOND
M  V30 END CTAB
M  END
>  <Dataset>  (607) 
ChEMBL_Kinases

>  <Ligand_Instance>  (607) 
nan

>  <PDB_ID>  (607) 
nan

>  <Standardized_SMILES>  (607) 
COc1cc(CCNCc2ccc(N3CCN(C)CC3)cc2)ccc1NC(=O)Nc1cnc(C#N)cn1

>  <Name>  (607) 
nan

>  <Pocket>  (607) 
nan

>  <ATP_Site>  (607) 
nan

>  <Peripheral>  (607) 
nan

>  <Num_H_Atoms_ProtBoundConf>  (607) 
nan

>  <Num_Resolved_Atoms>  (607) 
nan

>  <Num_Not_Resolved_Atoms>  (607) 
nan

$$$$
CHEMBL3694383
     RDKit          3D

  0  0  0  0  0  0  0  0  0  0999 V3000
M  V30 BEGIN CTAB
M  V30 COUNTS 69 72 0 0 0
M  V30 BEGIN ATOM
M  V30 1 C 5.291459 -3.549634 2.365001 0
M  V30 2 O 3.997446 -3.320322 2.826156 0
M  V30 3 C 2.848605 -3.258759 2.058686 0
M  V30 4 C 2.808040 -3.419068 0.684404 0
M  V30 5 C 1.629090 -3.346806 -0.027918 0
M  V30 6 C 1.647751 -3.524775 -1.497392 0
M  V30 7 C 1.502415 -2.163563 -2.183513 0
M  V30 8 N 1.514261 -2.280783 -3.629337 0
M  V30 9 C 1.377660 -0.960038 -4.244402 0
M  V30 10 C 0.128363 -0.277297 -3.890747 0
M  V30 11 C 0.017994 0.545769 -2.783853 0
M  V30 12 C -1.166399 1.175600 -2.476025 0
M  V30 13 C -2.309518 1.040018 -3.227943 0
M  V30 14 N -3.542914 1.665561 -2.943392 0
M  V30 15 C -4.742874 1.618314 -3.754722 0
M  V30 16 C -5.740100 0.765061 -3.017126 0
M  V30 17 N -5.675693 0.862229 -1.601254 0
M  V30 18 C -5.312064 -0.372463 -0.946212 0
M  V30 19 C -5.060320 2.017775 -1.046083 0
M  V30 20 C -3.816990 2.467750 -1.768793 0
M  V30 21 C -2.204776 0.222785 -4.329532 0
M  V30 22 C -1.021747 -0.420116 -4.656334 0
M  V30 23 C 0.431748 -3.103808 0.654983 0
M  V30 24 Cl -1.083130 -3.005028 -0.214999 0
M  V30 25 C 0.491089 -2.944099 2.045314 0
M  V30 26 C 1.674267 -3.015426 2.770231 0
M  V30 27 N 1.675772 -2.848650 4.184439 0
M  V30 28 C 1.807018 -1.627862 4.897109 0
M  V30 29 O 1.926033 -0.645210 4.090085 0
M  V30 30 N 1.799347 -1.574622 6.321115 0
M  V30 31 C 1.942128 -0.230633 6.785440 0
M  V30 32 C 0.903482 0.638088 7.051241 0
M  V30 33 N 1.218975 1.896025 7.487751 0
M  V30 34 C 2.539678 2.212861 7.632736 0
M  V30 35 C 2.794141 3.551993 8.094642 0
M  V30 36 N 3.010756 4.631535 8.452116 0
M  V30 37 C 3.586751 1.352495 7.369924 0
M  V30 38 N 3.260955 0.095587 6.933515 0
M  V30 39 H 6.000978 -2.727847 2.640590 0
M  V30 40 H 5.662278 -4.458900 2.922689 0
M  V30 41 H 5.398767 -3.786074 1.307366 0
M  V30 42 H 3.733684 -3.606583 0.158381 0
M  V30 43 H 2.618017 -3.931930 -1.806381 0
M  V30 44 H 0.874589 -4.221711 -1.817324 0
M  V30 45 H 2.343319 -1.496468 -1.906318 0
M  V30 46 H 0.574645 -1.676056 -1.885496 0
M  V30 47 H 0.717043 -2.880400 -3.975234 0
M  V30 48 H 1.579617 -1.002158 -5.323480 0
M  V30 49 H 2.219184 -0.361909 -3.796724 0
M  V30 50 H 0.884613 0.698291 -2.144221 0
M  V30 51 H -1.177840 1.798520 -1.602827 0
M  V30 52 H -5.155762 2.640275 -3.906332 0
M  V30 53 H -4.598108 1.205609 -4.761139 0
M  V30 54 H -6.790771 0.958659 -3.373870 0
M  V30 55 H -5.535544 -0.299909 -3.306556 0
M  V30 56 H -5.649218 -1.230311 -1.579001 0
M  V30 57 H -4.226024 -0.433713 -0.731558 0
M  V30 58 H -5.866263 -0.430441 -0.006092 0
M  V30 59 H -5.797602 2.836822 -0.912992 0
M  V30 60 H -4.739240 1.750409 -0.007340 0
M  V30 61 H -2.959801 2.616339 -1.104160 0
M  V30 62 H -4.050551 3.498213 -2.171878 0
M  V30 63 H -2.995242 0.003171 -5.026064 0
M  V30 64 H -0.911194 -1.068837 -5.516624 0
M  V30 65 H -0.443121 -2.755811 2.569466 0
M  V30 66 H 1.564226 -3.761763 4.714256 0
M  V30 67 H 1.687989 -2.525956 6.771906 0
M  V30 68 H -0.094548 0.257741 6.894323 0
M  V30 69 H 4.592019 1.716466 7.521647 0
M  V30 END ATOM
M  V30 BEGIN BOND
M  V30 1 1 1 2
M  V30 2 1 2 3
M  V30 3 2 3 4
M  V30 4 1 4 5
M  V30 5 1 5 6
M  V30 6 1 6 7
M  V30 7 1 7 8
M  V30 8 1 8 9
M  V30 9 1 9 10
M  V30 10 2 10 11
M  V30 11 1 11 12
M  V30 12 2 12 13
M  V30 13 1 13 14
M  V30 14 1 14 15
M  V30 15 1 15 16
M  V30 16 1 16 17
M  V30 17 1 17 18
M  V30 18 1 17 19
M  V30 19 1 19 20
M  V30 20 1 13 21
M  V30 21 2 21 22
M  V30 22 2 5 23
M  V30 23 1 23 24
M  V30 24 1 23 25
M  V30 25 2 25 26
M  V30 26 1 26 27
M  V30 27 1 27 28
M  V30 28 2 28 29
M  V30 29 1 28 30
M  V30 30 1 30 31
M  V30 31 2 31 32
M  V30 32 1 32 33
M  V30 33 2 33 34
M  V30 34 1 34 35
M  V30 35 3 35 36
M  V30 36 1 34 37
M  V30 37 2 37 38
M  V30 38 1 26 3
M  V30 39 1 38 31
M  V30 40 1 22 10
M  V30 41 1 20 14
M  V30 42 1 1 39
M  V30 43 1 1 40
M  V30 44 1 1 41
M  V30 45 1 4 42
M  V30 46 1 6 43
M  V30 47 1 6 44
M  V30 48 1 7 45
M  V30 49 1 7 46
M  V30 50 1 8 47
M  V30 51 1 9 48
M  V30 52 1 9 49
M  V30 53 1 11 50
M  V30 54 1 12 51
M  V30 55 1 15 52
M  V30 56 1 15 53
M  V30 57 1 16 54
M  V30 58 1 16 55
M  V30 59 1 18 56
M  V30 60 1 18 57
M  V30 61 1 18 58
M  V30 62 1 19 59
M  V30 63 1 19 60
M  V30 64 1 20 61
M  V30 65 1 20 62
M  V30 66 1 21 63
M  V30 67 1 22 64
M  V30 68 1 25 65
M  V30 69 1 27 66
M  V30 70 1 30 67
M  V30 71 1 32 68
M  V30 72 1 37 69
M  V30 END BOND
M  V30 END CTAB
M  END
>  <Dataset>  (608) 
ChEMBL_Kinases

>  <Ligand_Instance>  (608) 
nan

>  <PDB_ID>  (608) 
nan

>  <Standardized_SMILES>  (608) 
COc1cc(CCNCc2ccc(N3CCN(C)CC3)cc2)c(Cl)cc1NC(=O)Nc1cnc(C#N)cn1

>  <Name>  (608) 
nan

>  <Pocket>  (608) 
nan

>  <ATP_Site>  (608) 
nan

>  <Peripheral>  (608) 
nan

>  <Num_H_Atoms_ProtBoundConf>  (608) 
nan

>  <Num_Resolved_Atoms>  (608) 
nan

>  <Num_Not_Resolved_Atoms>  (608) 
nan

$$$$
CHEMBL3694382
     RDKit          3D

  0  0  0  0  0  0  0  0  0  0999 V3000
M  V30 BEGIN CTAB
M  V30 COUNTS 56 58 0 0 0
M  V30 BEGIN ATOM
M  V30 1 C 4.822020 -4.570595 2.202448 0
M  V30 2 O 5.088474 -3.253424 2.700982 0
M  V30 3 C 4.360385 -2.172892 2.243549 0
M  V30 4 C 4.700959 -0.931686 2.796637 0
M  V30 5 C 4.028291 0.222258 2.404172 0
M  V30 6 C 3.006808 0.194850 1.463066 0
M  V30 7 C 2.271609 1.437430 1.067460 0
M  V30 8 N 2.945233 2.110770 0.007451 0
M  V30 9 C 2.356116 3.245155 -0.541136 0
M  V30 10 C 1.231926 3.126931 -1.494878 0
M  V30 11 C 0.082969 2.345884 -1.083403 0
M  V30 12 C -1.045015 2.724650 -0.389896 0
M  V30 13 C -2.055912 1.859703 -0.037071 0
M  V30 14 O -3.142738 2.389419 0.667404 0
M  V30 15 C -3.245858 3.752666 1.029909 0
M  V30 16 C -2.004695 0.526427 -0.362206 0
M  V30 17 N -3.085758 -0.289612 0.039247 0
M  V30 18 C -3.281637 -1.674868 -0.176868 0
M  V30 19 O -2.423447 -2.332417 -0.801954 0
M  V30 20 N -4.409211 -2.404442 0.272479 0
M  V30 21 C -4.513212 -3.814504 -0.003053 0
M  V30 22 C -5.133735 -4.335062 -1.129730 0
M  V30 23 N -5.095263 -5.678942 -1.156745 0
M  V30 24 C -4.528780 -6.446926 -0.216631 0
M  V30 25 C -4.570819 -7.888746 -0.389213 0
M  V30 26 N -4.601344 -9.034012 -0.535984 0
M  V30 27 C -3.925586 -5.881760 0.882373 0
M  V30 28 N -3.926575 -4.539991 0.975727 0
M  V30 29 C -0.893935 0.111349 -1.054870 0
M  V30 30 C 0.118531 0.974210 -1.409598 0
M  V30 31 Cl 1.489033 0.331998 -2.333126 0
M  V30 32 C 2.671357 -1.024288 0.918391 0
M  V30 33 C 3.346272 -2.151970 1.317346 0
M  V30 34 H 4.961684 -4.505741 1.085316 0
M  V30 35 H 5.577520 -5.277673 2.588208 0
M  V30 36 H 3.776923 -4.881439 2.394884 0
M  V30 37 H 5.489515 -0.838390 3.536741 0
M  V30 38 H 4.318936 1.175945 2.857110 0
M  V30 39 H 1.210091 1.279165 1.009796 0
M  V30 40 H 2.421086 2.144074 1.971307 0
M  V30 41 H 3.544044 1.502631 -0.533584 0
M  V30 42 H 3.128941 3.993654 -0.919344 0
M  V30 43 H 1.919662 3.843922 0.346540 0
M  V30 44 H 1.595125 2.692834 -2.472224 0
M  V30 45 H 0.933316 4.180093 -1.805839 0
M  V30 46 H -1.081211 3.772781 -0.136219 0
M  V30 47 H -3.044146 4.432541 0.192787 0
M  V30 48 H -4.279007 3.914784 1.404756 0
M  V30 49 H -2.579339 4.016878 1.854980 0
M  V30 50 H -3.885338 0.120944 0.572361 0
M  V30 51 H -5.160008 -1.875183 0.808448 0
M  V30 52 H -5.562624 -3.666595 -1.833264 0
M  V30 53 H -3.500361 -6.570388 1.580880 0
M  V30 54 H -0.789123 -0.901215 -1.339207 0
M  V30 55 H 1.897585 -1.163366 0.188841 0
M  V30 56 H 3.093772 -3.123686 0.897292 0
M  V30 END ATOM
M  V30 BEGIN BOND
M  V30 1 1 1 2
M  V30 2 1 2 3
M  V30 3 2 3 4
M  V30 4 1 4 5
M  V30 5 2 5 6
M  V30 6 1 6 7
M  V30 7 1 7 8
M  V30 8 1 8 9
M  V30 9 1 9 10
M  V30 10 1 10 11
M  V30 11 2 11 12
M  V30 12 1 12 13
M  V30 13 1 13 14
M  V30 14 1 14 15
M  V30 15 2 13 16
M  V30 16 1 16 17
M  V30 17 1 17 18
M  V30 18 2 18 19
M  V30 19 1 18 20
M  V30 20 1 20 21
M  V30 21 2 21 22
M  V30 22 1 22 23
M  V30 23 2 23 24
M  V30 24 1 24 25
M  V30 25 3 25 26
M  V30 26 1 24 27
M  V30 27 2 27 28
M  V30 28 1 16 29
M  V30 29 2 29 30
M  V30 30 1 30 31
M  V30 31 1 6 32
M  V30 32 2 32 33
M  V30 33 1 33 3
M  V30 34 1 30 11
M  V30 35 1 28 21
M  V30 36 1 1 34
M  V30 37 1 1 35
M  V30 38 1 1 36
M  V30 39 1 4 37
M  V30 40 1 5 38
M  V30 41 1 7 39
M  V30 42 1 7 40
M  V30 43 1 8 41
M  V30 44 1 9 42
M  V30 45 1 9 43
M  V30 46 1 10 44
M  V30 47 1 10 45
M  V30 48 1 12 46
M  V30 49 1 15 47
M  V30 50 1 15 48
M  V30 51 1 15 49
M  V30 52 1 17 50
M  V30 53 1 20 51
M  V30 54 1 22 52
M  V30 55 1 27 53
M  V30 56 1 29 54
M  V30 57 1 32 55
M  V30 58 1 33 56
M  V30 END BOND
M  V30 END CTAB
M  END
>  <Dataset>  (609) 
ChEMBL_Kinases

>  <Ligand_Instance>  (609) 
nan

>  <PDB_ID>  (609) 
nan

>  <Standardized_SMILES>  (609) 
COc1ccc(CNCCc2cc(OC)c(NC(=O)Nc3cnc(C#N)cn3)cc2Cl)cc1

>  <Name>  (609) 
nan

>  <Pocket>  (609) 
nan

>  <ATP_Site>  (609) 
nan

>  <Peripheral>  (609) 
nan

>  <Num_H_Atoms_ProtBoundConf>  (609) 
nan

>  <Num_Resolved_Atoms>  (609) 
nan

>  <Num_Not_Resolved_Atoms>  (609) 
nan

$$$$
CHEMBL3694381
     RDKit          3D

  0  0  0  0  0  0  0  0  0  0999 V3000
M  V30 BEGIN CTAB
M  V30 COUNTS 56 58 0 0 0
M  V30 BEGIN ATOM
M  V30 1 C 7.170550 0.804682 1.701265 0
M  V30 2 O 6.287378 0.215831 2.625397 0
M  V30 3 C 4.966644 0.544760 2.775053 0
M  V30 4 C 4.238558 -0.141944 3.742130 0
M  V30 5 C 2.918645 0.188860 3.890688 0
M  V30 6 C 2.335001 1.169568 3.106504 0
M  V30 7 C 3.081160 1.845707 2.143531 0
M  V30 8 C 2.289375 2.859242 1.402425 0
M  V30 9 N 1.655825 2.314026 0.213386 0
M  V30 10 C 0.883512 3.328158 -0.494519 0
M  V30 11 C 0.271247 2.636875 -1.717148 0
M  V30 12 C -0.575733 1.548654 -1.174965 0
M  V30 13 C -0.154385 0.228659 -1.214870 0
M  V30 14 C -0.867177 -0.827891 -0.738390 0
M  V30 15 O -0.323490 -2.108083 -0.842603 0
M  V30 16 C 0.946251 -2.318363 -1.431158 0
M  V30 17 C -2.115652 -0.603693 -0.161714 0
M  V30 18 N -2.799528 -1.753217 0.315643 0
M  V30 19 C -3.700781 -2.643711 -0.287161 0
M  V30 20 O -4.115127 -2.604108 -1.451396 0
M  V30 21 N -4.123019 -3.654875 0.602560 0
M  V30 22 C -5.035562 -4.681724 0.230401 0
M  V30 23 C -6.409455 -4.646912 0.328928 0
M  V30 24 N -7.119477 -5.737391 -0.080575 0
M  V30 25 C -6.423169 -6.790986 -0.560657 0
M  V30 26 C -7.213785 -7.921805 -0.980942 0
M  V30 27 N -7.848622 -8.842182 -1.306485 0
M  V30 28 C -5.051697 -6.861788 -0.674042 0
M  V30 29 N -4.382391 -5.772589 -0.262711 0
M  V30 30 C -2.552840 0.698043 -0.112043 0
M  V30 31 C -1.817773 1.748527 -0.598569 0
M  V30 32 Cl -2.431263 3.390655 -0.505814 0
M  V30 33 C 4.407919 1.516641 1.990629 0
M  V30 34 H 6.836471 0.513412 0.692886 0
M  V30 35 H 8.212171 0.435964 1.845634 0
M  V30 36 H 7.140678 1.917747 1.848974 0
M  V30 37 H 4.721538 -0.916170 4.353639 0
M  V30 38 H 2.370453 -0.358080 4.649459 0
M  V30 39 H 1.284460 1.353849 3.304918 0
M  V30 40 H 1.567081 3.370146 2.054949 0
M  V30 41 H 3.026569 3.643775 1.070236 0
M  V30 42 H 2.372926 1.931992 -0.433439 0
M  V30 43 H 1.561717 4.119853 -0.836052 0
M  V30 44 H 0.060960 3.722103 0.110553 0
M  V30 45 H 1.084738 2.168129 -2.304349 0
M  V30 46 H -0.281104 3.351907 -2.356603 0
M  V30 47 H 0.824364 0.070197 -1.669231 0
M  V30 48 H 0.880186 -2.062659 -2.519153 0
M  V30 49 H 1.687672 -1.683498 -0.906483 0
M  V30 50 H 1.213058 -3.372392 -1.383233 0
M  V30 51 H -2.443279 -1.777022 1.293974 0
M  V30 52 H -3.841405 -3.786304 1.601059 0
M  V30 53 H -6.824962 -3.734829 0.732865 0
M  V30 54 H -4.617815 -7.766096 -1.075481 0
M  V30 55 H -3.523696 0.852966 0.338370 0
M  V30 56 H 4.919584 2.071520 1.236578 0
M  V30 END ATOM
M  V30 BEGIN BOND
M  V30 1 1 1 2
M  V30 2 1 2 3
M  V30 3 2 3 4
M  V30 4 1 4 5
M  V30 5 2 5 6
M  V30 6 1 6 7
M  V30 7 1 7 8
M  V30 8 1 8 9
M  V30 9 1 9 10
M  V30 10 1 10 11
M  V30 11 1 11 12
M  V30 12 2 12 13
M  V30 13 1 13 14
M  V30 14 1 14 15
M  V30 15 1 15 16
M  V30 16 2 14 17
M  V30 17 1 17 18
M  V30 18 1 18 19
M  V30 19 2 19 20
M  V30 20 1 19 21
M  V30 21 1 21 22
M  V30 22 2 22 23
M  V30 23 1 23 24
M  V30 24 2 24 25
M  V30 25 1 25 26
M  V30 26 3 26 27
M  V30 27 1 25 28
M  V30 28 2 28 29
M  V30 29 1 17 30
M  V30 30 2 30 31
M  V30 31 1 31 32
M  V30 32 2 7 33
M  V30 33 1 33 3
M  V30 34 1 31 12
M  V30 35 1 29 22
M  V30 36 1 1 34
M  V30 37 1 1 35
M  V30 38 1 1 36
M  V30 39 1 4 37
M  V30 40 1 5 38
M  V30 41 1 6 39
M  V30 42 1 8 40
M  V30 43 1 8 41
M  V30 44 1 9 42
M  V30 45 1 10 43
M  V30 46 1 10 44
M  V30 47 1 11 45
M  V30 48 1 11 46
M  V30 49 1 13 47
M  V30 50 1 16 48
M  V30 51 1 16 49
M  V30 52 1 16 50
M  V30 53 1 18 51
M  V30 54 1 21 52
M  V30 55 1 23 53
M  V30 56 1 28 54
M  V30 57 1 30 55
M  V30 58 1 33 56
M  V30 END BOND
M  V30 END CTAB
M  END
>  <Dataset>  (610) 
ChEMBL_Kinases

>  <Ligand_Instance>  (610) 
nan

>  <PDB_ID>  (610) 
nan

>  <Standardized_SMILES>  (610) 
COc1cccc(CNCCc2cc(OC)c(NC(=O)Nc3cnc(C#N)cn3)cc2Cl)c1

>  <Name>  (610) 
nan

>  <Pocket>  (610) 
nan

>  <ATP_Site>  (610) 
nan

>  <Peripheral>  (610) 
nan

>  <Num_H_Atoms_ProtBoundConf>  (610) 
nan

>  <Num_Resolved_Atoms>  (610) 
nan

>  <Num_Not_Resolved_Atoms>  (610) 
nan

$$$$
CHEMBL3694380
     RDKit          3D

  0  0  0  0  0  0  0  0  0  0999 V3000
M  V30 BEGIN CTAB
M  V30 COUNTS 53 55 0 0 0
M  V30 BEGIN ATOM
M  V30 1 C -0.290668 -0.794427 3.823910 0
M  V30 2 O -0.509645 -1.882579 2.968260 0
M  V30 3 C 0.408966 -2.305276 2.052574 0
M  V30 4 C 1.589002 -1.640538 1.967210 0
M  V30 5 C 2.614922 -1.931729 1.107074 0
M  V30 6 O 3.854111 -1.483763 0.792583 0
M  V30 7 C 4.535532 -0.411400 1.346607 0
M  V30 8 C 3.900278 0.920296 1.151742 0
M  V30 9 N 3.799791 1.162231 -0.278307 0
M  V30 10 C 3.190413 2.442671 -0.573693 0
M  V30 11 C 1.817249 2.535764 -0.022523 0
M  V30 12 C 0.693210 2.150533 -0.735397 0
M  V30 13 C -0.548737 2.274717 -0.136113 0
M  V30 14 C -0.705660 2.767024 1.141879 0
M  V30 15 F -1.937835 2.875994 1.700531 0
M  V30 16 C 0.409549 3.157923 1.871085 0
M  V30 17 C 1.624422 3.028042 1.263666 0
M  V30 18 C 2.369817 -3.026440 0.261177 0
M  V30 19 Cl 3.425941 -3.721881 -0.980633 0
M  V30 20 C 1.168950 -3.752312 0.303853 0
M  V30 21 C 0.195087 -3.358593 1.225436 0
M  V30 22 N -1.059988 -4.035518 1.343362 0
M  V30 23 C -2.104873 -3.526433 0.511791 0
M  V30 24 O -1.753646 -2.537030 -0.214591 0
M  V30 25 N -3.448962 -4.001842 0.421780 0
M  V30 26 C -4.338395 -3.335388 -0.488133 0
M  V30 27 C -4.520684 -3.681836 -1.812343 0
M  V30 28 N -5.395720 -2.954982 -2.539842 0
M  V30 29 C -6.075590 -1.912890 -1.980736 0
M  V30 30 C -7.006026 -1.143956 -2.763558 0
M  V30 31 N -7.765296 -0.521107 -3.389661 0
M  V30 32 C -5.891863 -1.568097 -0.656407 0
M  V30 33 N -5.015591 -2.293751 0.077357 0
M  V30 34 H -0.395260 0.135770 3.233281 0
M  V30 35 H -1.076477 -0.818972 4.615445 0
M  V30 36 H 0.711435 -0.777888 4.293498 0
M  V30 37 H 1.843570 -0.804123 2.594755 0
M  V30 38 H 4.745000 -0.596266 2.449294 0
M  V30 39 H 5.577185 -0.353776 0.894822 0
M  V30 40 H 4.568308 1.685554 1.618032 0
M  V30 41 H 2.932005 0.971004 1.631071 0
M  V30 42 H 4.741266 1.132894 -0.689717 0
M  V30 43 H 3.145372 2.522161 -1.678192 0
M  V30 44 H 3.837227 3.304736 -0.253510 0
M  V30 45 H 0.815820 1.759617 -1.749735 0
M  V30 46 H -1.431048 1.972460 -0.695364 0
M  V30 47 H 0.293877 3.544119 2.871903 0
M  V30 48 H 2.490819 3.327408 1.819274 0
M  V30 49 H 0.874756 -4.588778 -0.280372 0
M  V30 50 H -1.345486 -4.854325 1.946442 0
M  V30 51 H -3.602369 -4.806179 1.061646 0
M  V30 52 H -3.948273 -4.519056 -2.188495 0
M  V30 53 H -6.419722 -0.743768 -0.186417 0
M  V30 END ATOM
M  V30 BEGIN BOND
M  V30 1 1 1 2
M  V30 2 1 2 3
M  V30 3 2 3 4
M  V30 4 1 4 5
M  V30 5 1 5 6
M  V30 6 1 6 7
M  V30 7 1 7 8
M  V30 8 1 8 9
M  V30 9 1 9 10
M  V30 10 1 10 11
M  V30 11 2 11 12
M  V30 12 1 12 13
M  V30 13 2 13 14
M  V30 14 1 14 15
M  V30 15 1 14 16
M  V30 16 2 16 17
M  V30 17 2 5 18
M  V30 18 1 18 19
M  V30 19 1 18 20
M  V30 20 2 20 21
M  V30 21 1 21 22
M  V30 22 1 22 23
M  V30 23 2 23 24
M  V30 24 1 23 25
M  V30 25 1 25 26
M  V30 26 2 26 27
M  V30 27 1 27 28
M  V30 28 2 28 29
M  V30 29 1 29 30
M  V30 30 3 30 31
M  V30 31 1 29 32
M  V30 32 2 32 33
M  V30 33 1 21 3
M  V30 34 1 33 26
M  V30 35 1 17 11
M  V30 36 1 1 34
M  V30 37 1 1 35
M  V30 38 1 1 36
M  V30 39 1 4 37
M  V30 40 1 7 38
M  V30 41 1 7 39
M  V30 42 1 8 40
M  V30 43 1 8 41
M  V30 44 1 9 42
M  V30 45 1 10 43
M  V30 46 1 10 44
M  V30 47 1 12 45
M  V30 48 1 13 46
M  V30 49 1 16 47
M  V30 50 1 17 48
M  V30 51 1 20 49
M  V30 52 1 22 50
M  V30 53 1 25 51
M  V30 54 1 27 52
M  V30 55 1 32 53
M  V30 END BOND
M  V30 END CTAB
M  END
>  <Dataset>  (611) 
ChEMBL_Kinases

>  <Ligand_Instance>  (611) 
nan

>  <PDB_ID>  (611) 
nan

>  <Standardized_SMILES>  (611) 
COc1cc(OCCNCc2ccc(F)cc2)c(Cl)cc1NC(=O)Nc1cnc(C#N)cn1

>  <Name>  (611) 
nan

>  <Pocket>  (611) 
nan

>  <ATP_Site>  (611) 
nan

>  <Peripheral>  (611) 
nan

>  <Num_H_Atoms_ProtBoundConf>  (611) 
nan

>  <Num_Resolved_Atoms>  (611) 
nan

>  <Num_Not_Resolved_Atoms>  (611) 
nan

$$$$
CHEMBL3694379
     RDKit          3D

  0  0  0  0  0  0  0  0  0  0999 V3000
M  V30 BEGIN CTAB
M  V30 COUNTS 58 60 0 0 0
M  V30 BEGIN ATOM
M  V30 1 C 4.178163 -0.775878 2.384368 0
M  V30 2 C 2.700925 -0.560131 2.027044 0
M  V30 3 C 1.985775 -0.559748 3.374821 0
M  V30 4 O 2.196960 -1.629588 1.295164 0
M  V30 5 C 1.657522 -1.612305 0.040922 0
M  V30 6 C 1.500501 -0.504114 -0.764229 0
M  V30 7 C 0.946264 -0.525396 -2.038232 0
M  V30 8 C 0.838041 0.745530 -2.795155 0
M  V30 9 C -0.582685 1.267207 -2.816718 0
M  V30 10 N -0.701180 2.503682 -3.539874 0
M  V30 11 C -0.045265 3.604308 -2.860791 0
M  V30 12 C -0.636532 3.839913 -1.517015 0
M  V30 13 C -0.178840 3.226683 -0.364433 0
M  V30 14 C -0.705942 3.423183 0.892499 0
M  V30 15 C -1.766698 4.290400 1.028917 0
M  V30 16 F -2.293576 4.494812 2.256888 0
M  V30 17 C -2.247085 4.918904 -0.102949 0
M  V30 18 C -1.712239 4.716773 -1.363453 0
M  V30 19 C 0.531075 -1.758896 -2.507053 0
M  V30 20 Cl -0.172059 -1.815860 -4.115193 0
M  V30 21 C 0.666244 -2.898561 -1.739643 0
M  V30 22 C 1.224402 -2.818132 -0.479620 0
M  V30 23 N 1.317333 -4.068743 0.245681 0
M  V30 24 C 0.158579 -4.311004 1.020258 0
M  V30 25 O -0.761140 -3.431879 0.969803 0
M  V30 26 N -0.099965 -5.435873 1.857344 0
M  V30 27 C -1.348426 -5.520949 2.583978 0
M  V30 28 C -1.530548 -5.023150 3.862945 0
M  V30 29 N -2.752575 -5.162734 4.431518 0
M  V30 30 C -3.746382 -5.772927 3.749513 0
M  V30 31 C -5.006847 -5.873597 4.434498 0
M  V30 32 N -6.048022 -5.947848 4.980171 0
M  V30 33 C -3.578909 -6.273837 2.473660 0
M  V30 34 N -2.356764 -6.134741 1.904998 0
M  V30 35 H 4.379969 -0.189313 3.309164 0
M  V30 36 H 4.841179 -0.508344 1.562071 0
M  V30 37 H 4.271546 -1.843932 2.662276 0
M  V30 38 H 2.656417 0.426068 1.529205 0
M  V30 39 H 2.140385 0.390014 3.922529 0
M  V30 40 H 0.929987 -0.799347 3.171450 0
M  V30 41 H 2.402139 -1.445234 3.911778 0
M  V30 42 H 1.835523 0.432250 -0.362426 0
M  V30 43 H 1.118422 0.557021 -3.852265 0
M  V30 44 H 1.544551 1.464000 -2.377624 0
M  V30 45 H -0.972303 1.393057 -1.796628 0
M  V30 46 H -1.274104 0.536864 -3.305455 0
M  V30 47 H -1.703399 2.759950 -3.665801 0
M  V30 48 H -0.134661 4.540521 -3.444761 0
M  V30 49 H 1.043664 3.409631 -2.738821 0
M  V30 50 H 0.652175 2.538163 -0.426867 0
M  V30 51 H -0.319320 2.925881 1.765912 0
M  V30 52 H -3.082621 5.584382 0.082486 0
M  V30 53 H -2.139771 5.241442 -2.201746 0
M  V30 54 H 0.307917 -3.809254 -2.204298 0
M  V30 55 H 2.055073 -4.801570 0.301575 0
M  V30 56 H 0.672005 -6.160985 1.891898 0
M  V30 57 H -0.676071 -4.545327 4.343402 0
M  V30 58 H -4.434202 -6.749296 1.999578 0
M  V30 END ATOM
M  V30 BEGIN BOND
M  V30 1 1 1 2
M  V30 2 1 2 3
M  V30 3 1 2 4
M  V30 4 1 4 5
M  V30 5 2 5 6
M  V30 6 1 6 7
M  V30 7 1 7 8
M  V30 8 1 8 9
M  V30 9 1 9 10
M  V30 10 1 10 11
M  V30 11 1 11 12
M  V30 12 2 12 13
M  V30 13 1 13 14
M  V30 14 2 14 15
M  V30 15 1 15 16
M  V30 16 1 15 17
M  V30 17 2 17 18
M  V30 18 2 7 19
M  V30 19 1 19 20
M  V30 20 1 19 21
M  V30 21 2 21 22
M  V30 22 1 22 23
M  V30 23 1 23 24
M  V30 24 2 24 25
M  V30 25 1 24 26
M  V30 26 1 26 27
M  V30 27 2 27 28
M  V30 28 1 28 29
M  V30 29 2 29 30
M  V30 30 1 30 31
M  V30 31 3 31 32
M  V30 32 1 30 33
M  V30 33 2 33 34
M  V30 34 1 22 5
M  V30 35 1 34 27
M  V30 36 1 18 12
M  V30 37 1 1 35
M  V30 38 1 1 36
M  V30 39 1 1 37
M  V30 40 1 2 38
M  V30 41 1 3 39
M  V30 42 1 3 40
M  V30 43 1 3 41
M  V30 44 1 6 42
M  V30 45 1 8 43
M  V30 46 1 8 44
M  V30 47 1 9 45
M  V30 48 1 9 46
M  V30 49 1 10 47
M  V30 50 1 11 48
M  V30 51 1 11 49
M  V30 52 1 13 50
M  V30 53 1 14 51
M  V30 54 1 17 52
M  V30 55 1 18 53
M  V30 56 1 21 54
M  V30 57 1 23 55
M  V30 58 1 26 56
M  V30 59 1 28 57
M  V30 60 1 33 58
M  V30 END BOND
M  V30 END CTAB
M  END
>  <Dataset>  (612) 
ChEMBL_Kinases

>  <Ligand_Instance>  (612) 
nan

>  <PDB_ID>  (612) 
nan

>  <Standardized_SMILES>  (612) 
CC(C)Oc1cc(CCNCc2ccc(F)cc2)c(Cl)cc1NC(=O)Nc1cnc(C#N)cn1

>  <Name>  (612) 
nan

>  <Pocket>  (612) 
nan

>  <ATP_Site>  (612) 
nan

>  <Peripheral>  (612) 
nan

>  <Num_H_Atoms_ProtBoundConf>  (612) 
nan

>  <Num_Resolved_Atoms>  (612) 
nan

>  <Num_Not_Resolved_Atoms>  (612) 
nan

$$$$
CHEMBL3694378
     RDKit          3D

  0  0  0  0  0  0  0  0  0  0999 V3000
M  V30 BEGIN CTAB
M  V30 COUNTS 55 57 0 0 0
M  V30 BEGIN ATOM
M  V30 1 C 1.347978 -1.653174 5.101866 0
M  V30 2 C 0.052357 -1.456300 4.387189 0
M  V30 3 O -0.113531 -2.255713 3.238752 0
M  V30 4 C 0.724728 -2.212524 2.140484 0
M  V30 5 C 1.825797 -1.392428 2.013180 0
M  V30 6 C 2.660526 -1.369157 0.885982 0
M  V30 7 C 3.752840 -0.380178 1.016929 0
M  V30 8 C 3.504758 0.902333 0.303468 0
M  V30 9 N 3.349719 0.813935 -1.111042 0
M  V30 10 C 3.055124 2.113371 -1.713100 0
M  V30 11 C 1.826852 2.723112 -1.202030 0
M  V30 12 C 0.614148 2.458392 -1.813844 0
M  V30 13 C -0.570064 3.021765 -1.361313 0
M  V30 14 C -0.584108 3.880377 -0.267616 0
M  V30 15 F -1.687349 4.474372 0.241655 0
M  V30 16 C 0.606540 4.167717 0.368175 0
M  V30 17 C 1.747643 3.589848 -0.112569 0
M  V30 18 C 2.297962 -2.241561 -0.107932 0
M  V30 19 Cl 3.338193 -2.237059 -1.500437 0
M  V30 20 C 1.202321 -3.068561 -0.000894 0
M  V30 21 C 0.402686 -3.073285 1.108309 0
M  V30 22 N -0.694098 -3.980796 1.080100 0
M  V30 23 C -1.878597 -3.464206 0.543383 0
M  V30 24 O -1.873103 -2.277276 0.142952 0
M  V30 25 N -3.126168 -4.125823 0.386445 0
M  V30 26 C -4.269840 -3.495998 -0.177602 0
M  V30 27 C -4.373851 -3.638304 -1.561201 0
M  V30 28 N -5.408613 -3.090056 -2.226351 0
M  V30 29 C -6.355299 -2.395681 -1.548629 0
M  V30 30 C -7.458135 -1.807129 -2.225292 0
M  V30 31 N -8.352193 -1.308178 -2.786696 0
M  V30 32 C -6.267203 -2.242751 -0.160501 0
M  V30 33 N -5.225187 -2.798682 0.483676 0
M  V30 34 H 1.841955 -0.695414 5.287356 0
M  V30 35 H 1.121874 -2.072179 6.115477 0
M  V30 36 H 1.984340 -2.425298 4.621999 0
M  V30 37 H -0.806803 -1.531183 5.080567 0
M  V30 38 H 0.019999 -0.401731 4.014287 0
M  V30 39 H 1.966473 -0.767431 2.891148 0
M  V30 40 H 4.654988 -0.846380 0.505750 0
M  V30 41 H 4.068614 -0.231987 2.062412 0
M  V30 42 H 2.591108 1.428216 0.692062 0
M  V30 43 H 4.366845 1.575260 0.500421 0
M  V30 44 H 4.255066 0.533693 -1.591495 0
M  V30 45 H 3.004946 1.961478 -2.812429 0
M  V30 46 H 3.923045 2.757315 -1.487030 0
M  V30 47 H 0.509581 1.805916 -2.671312 0
M  V30 48 H -1.549206 2.864310 -1.783437 0
M  V30 49 H 0.716958 4.829029 1.237482 0
M  V30 50 H 2.704155 3.801131 0.372484 0
M  V30 51 H 1.040142 -3.710546 -0.879281 0
M  V30 52 H -0.741887 -4.984820 1.405474 0
M  V30 53 H -3.154256 -5.129909 0.718486 0
M  V30 54 H -3.664685 -4.175191 -2.182146 0
M  V30 55 H -6.981003 -1.705616 0.443478 0
M  V30 END ATOM
M  V30 BEGIN BOND
M  V30 1 1 1 2
M  V30 2 1 2 3
M  V30 3 1 3 4
M  V30 4 2 4 5
M  V30 5 1 5 6
M  V30 6 1 6 7
M  V30 7 1 7 8
M  V30 8 1 8 9
M  V30 9 1 9 10
M  V30 10 1 10 11
M  V30 11 2 11 12
M  V30 12 1 12 13
M  V30 13 2 13 14
M  V30 14 1 14 15
M  V30 15 1 14 16
M  V30 16 2 16 17
M  V30 17 2 6 18
M  V30 18 1 18 19
M  V30 19 1 18 20
M  V30 20 2 20 21
M  V30 21 1 21 22
M  V30 22 1 22 23
M  V30 23 2 23 24
M  V30 24 1 23 25
M  V30 25 1 25 26
M  V30 26 2 26 27
M  V30 27 1 27 28
M  V30 28 2 28 29
M  V30 29 1 29 30
M  V30 30 3 30 31
M  V30 31 1 29 32
M  V30 32 2 32 33
M  V30 33 1 21 4
M  V30 34 1 33 26
M  V30 35 1 17 11
M  V30 36 1 1 34
M  V30 37 1 1 35
M  V30 38 1 1 36
M  V30 39 1 2 37
M  V30 40 1 2 38
M  V30 41 1 5 39
M  V30 42 1 7 40
M  V30 43 1 7 41
M  V30 44 1 8 42
M  V30 45 1 8 43
M  V30 46 1 9 44
M  V30 47 1 10 45
M  V30 48 1 10 46
M  V30 49 1 12 47
M  V30 50 1 13 48
M  V30 51 1 16 49
M  V30 52 1 17 50
M  V30 53 1 20 51
M  V30 54 1 22 52
M  V30 55 1 25 53
M  V30 56 1 27 54
M  V30 57 1 32 55
M  V30 END BOND
M  V30 END CTAB
M  END
>  <Dataset>  (613) 
ChEMBL_Kinases

>  <Ligand_Instance>  (613) 
nan

>  <PDB_ID>  (613) 
nan

>  <Standardized_SMILES>  (613) 
CCOc1cc(CCNCc2ccc(F)cc2)c(Cl)cc1NC(=O)Nc1cnc(C#N)cn1

>  <Name>  (613) 
nan

>  <Pocket>  (613) 
nan

>  <ATP_Site>  (613) 
nan

>  <Peripheral>  (613) 
nan

>  <Num_H_Atoms_ProtBoundConf>  (613) 
nan

>  <Num_Resolved_Atoms>  (613) 
nan

>  <Num_Not_Resolved_Atoms>  (613) 
nan

$$$$
CHEMBL3694360
     RDKit          3D

  0  0  0  0  0  0  0  0  0  0999 V3000
M  V30 BEGIN CTAB
M  V30 COUNTS 54 56 0 0 0
M  V30 BEGIN ATOM
M  V30 1 C -0.305306 -0.161961 -1.859759 0
M  V30 2 O -1.156142 -0.099056 -0.714738 0
M  V30 3 C -0.622930 0.007196 0.596069 0
M  V30 4 C 0.754785 0.043584 0.734007 0
M  V30 5 C 1.192454 0.152283 2.070567 0
M  V30 6 C 2.653001 0.107558 2.301045 0
M  V30 7 C 3.418268 1.352911 2.092045 0
M  V30 8 N 3.440729 1.912061 0.780344 0
M  V30 9 C 4.159589 1.137542 -0.178638 0
M  V30 10 C 4.154836 1.734707 -1.507490 0
M  V30 11 C 5.129702 2.617693 -2.035482 0
M  V30 12 C 5.186518 3.210334 -3.302296 0
M  V30 13 C 4.113002 2.849479 -4.110787 0
M  V30 14 F 4.166248 3.435473 -5.352831 0
M  V30 15 C 3.072808 2.012195 -3.787822 0
M  V30 16 C 3.216536 1.555679 -2.530424 0
M  V30 17 C 0.359034 0.229473 3.262069 0
M  V30 18 C -0.926440 0.168161 2.806917 0
M  V30 19 C -1.530830 0.064983 1.619089 0
M  V30 20 N -2.936151 -0.008365 1.419776 0
M  V30 21 C -3.047130 -1.428695 1.545523 0
M  V30 22 O -2.336023 -2.446076 1.751748 0
M  V30 23 N -4.335132 -2.081510 1.426676 0
M  V30 24 C -4.765084 -3.443267 1.549246 0
M  V30 25 C -5.148594 -3.809124 2.817356 0
M  V30 26 N -5.554701 -5.069368 3.078806 0
M  V30 27 C -5.598468 -6.009033 2.114362 0
M  V30 28 C -6.053547 -7.364800 2.541176 0
M  V30 29 C -5.213162 -5.666532 0.805729 0
M  V30 30 N -4.826965 -4.404190 0.634173 0
M  V30 31 H -0.797801 -0.753465 -2.683227 0
M  V30 32 H 0.591735 -0.734445 -1.604489 0
M  V30 33 H -0.099925 0.877801 -2.217668 0
M  V30 34 H 1.486642 0.012906 -0.018555 0
M  V30 35 H 3.116227 -0.796234 1.821770 0
M  V30 36 H 2.816684 -0.132367 3.405781 0
M  V30 37 H 3.159471 2.121304 2.817496 0
M  V30 38 H 4.497320 1.081697 2.310834 0
M  V30 39 H 3.472790 2.914834 0.673599 0
M  V30 40 H 3.833962 0.069499 -0.256263 0
M  V30 41 H 5.250599 1.061709 0.125522 0
M  V30 42 H 5.943418 2.869930 -1.351904 0
M  V30 43 H 6.007141 3.856931 -3.526629 0
M  V30 44 H 2.285540 1.776026 -4.452480 0
M  V30 45 H 2.399064 0.872672 -2.227571 0
M  V30 46 H 0.818945 0.306806 4.214831 0
M  V30 47 H -1.646698 0.208992 3.660868 0
M  V30 48 H -3.805208 0.508335 1.239454 0
M  V30 49 H -5.257452 -1.577544 1.239326 0
M  V30 50 H -5.148861 -3.128573 3.645188 0
M  V30 51 H -7.159039 -7.435562 2.584575 0
M  V30 52 H -5.580622 -7.536782 3.553063 0
M  V30 53 H -5.700392 -8.144177 1.843292 0
M  V30 54 H -5.253483 -6.423079 0.045433 0
M  V30 END ATOM
M  V30 BEGIN BOND
M  V30 1 1 1 2
M  V30 2 1 2 3
M  V30 3 2 3 4
M  V30 4 1 4 5
M  V30 5 1 5 6
M  V30 6 1 6 7
M  V30 7 1 7 8
M  V30 8 1 8 9
M  V30 9 1 9 10
M  V30 10 2 10 11
M  V30 11 1 11 12
M  V30 12 2 12 13
M  V30 13 1 13 14
M  V30 14 1 13 15
M  V30 15 2 15 16
M  V30 16 2 5 17
M  V30 17 1 17 18
M  V30 18 2 18 19
M  V30 19 1 19 20
M  V30 20 1 20 21
M  V30 21 2 21 22
M  V30 22 1 21 23
M  V30 23 1 23 24
M  V30 24 2 24 25
M  V30 25 1 25 26
M  V30 26 2 26 27
M  V30 27 1 27 28
M  V30 28 1 27 29
M  V30 29 2 29 30
M  V30 30 1 19 3
M  V30 31 1 30 24
M  V30 32 1 16 10
M  V30 33 1 1 31
M  V30 34 1 1 32
M  V30 35 1 1 33
M  V30 36 1 4 34
M  V30 37 1 6 35
M  V30 38 1 6 36
M  V30 39 1 7 37
M  V30 40 1 7 38
M  V30 41 1 8 39
M  V30 42 1 9 40
M  V30 43 1 9 41
M  V30 44 1 11 42
M  V30 45 1 12 43
M  V30 46 1 15 44
M  V30 47 1 16 45
M  V30 48 1 17 46
M  V30 49 1 18 47
M  V30 50 1 20 48
M  V30 51 1 23 49
M  V30 52 1 25 50
M  V30 53 1 28 51
M  V30 54 1 28 52
M  V30 55 1 28 53
M  V30 56 1 29 54
M  V30 END BOND
M  V30 END CTAB
M  END
>  <Dataset>  (614) 
ChEMBL_Kinases

>  <Ligand_Instance>  (614) 
nan

>  <PDB_ID>  (614) 
nan

>  <Standardized_SMILES>  (614) 
COc1cc(CCNCc2ccc(F)cc2)ccc1NC(=O)Nc1cnc(C)cn1

>  <Name>  (614) 
nan

>  <Pocket>  (614) 
nan

>  <ATP_Site>  (614) 
nan

>  <Peripheral>  (614) 
nan

>  <Num_H_Atoms_ProtBoundConf>  (614) 
nan

>  <Num_Resolved_Atoms>  (614) 
nan

>  <Num_Not_Resolved_Atoms>  (614) 
nan

$$$$
CHEMBL3694361
     RDKit          3D

  0  0  0  0  0  0  0  0  0  0999 V3000
M  V30 BEGIN CTAB
M  V30 COUNTS 51 53 0 0 0
M  V30 BEGIN ATOM
M  V30 1 N 3.519442 -8.430780 -0.084993 0
M  V30 2 C 3.857777 -7.344405 0.099728 0
M  V30 3 C 4.261990 -5.973939 0.330103 0
M  V30 4 C 4.782781 -5.228279 -0.716094 0
M  V30 5 N 5.168764 -3.941229 -0.536564 0
M  V30 6 C 5.045947 -3.365770 0.687317 0
M  V30 7 N 5.437664 -1.996704 0.924967 0
M  V30 8 C 4.456401 -0.986822 0.742017 0
M  V30 9 O 3.296027 -1.334238 0.384402 0
M  V30 10 N 4.623922 0.434587 0.918696 0
M  V30 11 C 3.419931 1.168272 0.648298 0
M  V30 12 C 3.118430 1.632363 -0.622574 0
M  V30 13 C 1.925142 2.321137 -0.758094 0
M  V30 14 C 1.009119 2.583657 0.273129 0
M  V30 15 C -0.182084 3.309504 -0.156220 0
M  V30 16 C -1.420839 2.528730 -0.380941 0
M  V30 17 N -1.963553 1.841024 0.753012 0
M  V30 18 C -3.123544 1.004251 0.349791 0
M  V30 19 C -3.618143 0.357314 1.606904 0
M  V30 20 C -4.762912 -0.537617 1.454427 0
M  V30 21 C -6.098910 -0.382774 1.750275 0
M  V30 22 C -7.007451 -1.389776 1.516575 0
M  V30 23 C -6.617379 -2.616175 0.968966 0
M  V30 24 F -7.546775 -3.586387 0.752981 0
M  V30 25 C -5.278673 -2.786536 0.666762 0
M  V30 26 C -4.368978 -1.763455 0.905971 0
M  V30 27 F -3.111805 -2.117997 0.547082 0
M  V30 28 C 1.395145 2.085250 1.497570 0
M  V30 29 Cl 0.292424 2.405386 2.813046 0
M  V30 30 C 2.566466 1.390689 1.707889 0
M  V30 31 C 4.523329 -4.144995 1.698863 0
M  V30 32 N 4.136168 -5.413166 1.547164 0
M  V30 33 H 4.884595 -5.679547 -1.696350 0
M  V30 34 H 6.352738 -1.561078 1.223042 0
M  V30 35 H 5.576731 0.734055 1.213817 0
M  V30 36 H 3.788399 1.455504 -1.443122 0
M  V30 37 H 1.752648 2.654257 -1.772471 0
M  V30 38 H 0.052889 3.982539 -1.003299 0
M  V30 39 H -0.440874 4.039751 0.679521 0
M  V30 40 H -2.196635 3.259684 -0.720581 0
M  V30 41 H -1.362282 1.793360 -1.207197 0
M  V30 42 H -2.314840 2.526234 1.483933 0
M  V30 43 H -2.666930 0.265253 -0.341453 0
M  V30 44 H -3.884338 1.649978 -0.075423 0
M  V30 45 H -3.972130 1.204813 2.267508 0
M  V30 46 H -2.822773 -0.128350 2.203368 0
M  V30 47 H -6.302680 0.591337 2.167037 0
M  V30 48 H -8.037960 -1.173750 1.782580 0
M  V30 49 H -5.054134 -3.750986 0.250658 0
M  V30 50 H 2.764927 1.044861 2.719371 0
M  V30 51 H 4.394525 -3.755741 2.703269 0
M  V30 END ATOM
M  V30 BEGIN BOND
M  V30 1 3 1 2
M  V30 2 1 2 3
M  V30 3 2 3 4
M  V30 4 1 4 5
M  V30 5 2 5 6
M  V30 6 1 6 7
M  V30 7 1 7 8
M  V30 8 2 8 9
M  V30 9 1 8 10
M  V30 10 1 10 11
M  V30 11 2 11 12
M  V30 12 1 12 13
M  V30 13 2 13 14
M  V30 14 1 14 15
M  V30 15 1 15 16
M  V30 16 1 16 17
M  V30 17 1 17 18
M  V30 18 1 18 19
M  V30 19 1 19 20
M  V30 20 2 20 21
M  V30 21 1 21 22
M  V30 22 2 22 23
M  V30 23 1 23 24
M  V30 24 1 23 25
M  V30 25 2 25 26
M  V30 26 1 26 27
M  V30 27 1 14 28
M  V30 28 1 28 29
M  V30 29 2 28 30
M  V30 30 1 6 31
M  V30 31 2 31 32
M  V30 32 1 32 3
M  V30 33 1 30 11
M  V30 34 1 26 20
M  V30 35 1 4 33
M  V30 36 1 7 34
M  V30 37 1 10 35
M  V30 38 1 12 36
M  V30 39 1 13 37
M  V30 40 1 15 38
M  V30 41 1 15 39
M  V30 42 1 16 40
M  V30 43 1 16 41
M  V30 44 1 17 42
M  V30 45 1 18 43
M  V30 46 1 18 44
M  V30 47 1 19 45
M  V30 48 1 19 46
M  V30 49 1 21 47
M  V30 50 1 22 48
M  V30 51 1 25 49
M  V30 52 1 30 50
M  V30 53 1 31 51
M  V30 END BOND
M  V30 END CTAB
M  END
>  <Dataset>  (615) 
ChEMBL_Kinases

>  <Ligand_Instance>  (615) 
nan

>  <PDB_ID>  (615) 
nan

>  <Standardized_SMILES>  (615) 
N#Cc1cnc(NC(=O)Nc2ccc(CCNCCc3ccc(F)cc3F)c(Cl)c2)cn1

>  <Name>  (615) 
nan

>  <Pocket>  (615) 
nan

>  <ATP_Site>  (615) 
nan

>  <Peripheral>  (615) 
nan

>  <Num_H_Atoms_ProtBoundConf>  (615) 
nan

>  <Num_Resolved_Atoms>  (615) 
nan

>  <Num_Not_Resolved_Atoms>  (615) 
nan

$$$$
CHEMBL3694362
     RDKit          3D

  0  0  0  0  0  0  0  0  0  0999 V3000
M  V30 BEGIN CTAB
M  V30 COUNTS 45 47 0 0 0
M  V30 BEGIN ATOM
M  V30 1 N 2.347288 -10.249832 -1.102156 0
M  V30 2 C 1.887526 -9.216749 -1.368981 0
M  V30 3 C 1.300339 -7.958294 -1.696034 0
M  V30 4 C 1.792773 -7.136140 -2.714772 0
M  V30 5 N 1.193659 -5.957926 -2.975599 0
M  V30 6 C 0.107052 -5.544684 -2.261608 0
M  V30 7 N -0.575447 -4.313658 -2.482175 0
M  V30 8 C -0.117365 -3.185936 -1.748680 0
M  V30 9 O 0.847801 -3.288870 -0.945997 0
M  V30 10 N -0.750402 -1.922321 -1.916768 0
M  V30 11 C -0.439095 -0.688727 -1.278319 0
M  V30 12 C 0.448729 0.263264 -1.734899 0
M  V30 13 C 0.632880 1.408397 -0.988410 0
M  V30 14 C -0.019160 1.695189 0.222088 0
M  V30 15 C 0.370571 3.001087 0.800304 0
M  V30 16 N 1.506402 2.980626 1.646510 0
M  V30 17 C 1.411729 2.330345 2.902309 0
M  V30 18 C 0.527376 3.009514 3.894081 0
M  V30 19 C -0.806127 2.862309 4.194364 0
M  V30 20 C -1.409935 3.626205 5.165407 0
M  V30 21 C -0.737352 4.579570 5.898094 0
M  V30 22 C 0.601994 4.757745 5.627233 0
M  V30 23 C 1.193800 3.985719 4.651931 0
M  V30 24 C -0.893769 0.717203 0.635917 0
M  V30 25 C -1.095622 -0.435657 -0.091333 0
M  V30 26 C -0.352444 -6.393183 -1.254996 0
M  V30 27 N 0.215555 -7.583054 -0.957547 0
M  V30 28 H 2.654363 -7.462633 -3.281710 0
M  V30 29 H -1.364075 -4.170078 -3.120218 0
M  V30 30 H -1.550346 -1.845357 -2.584543 0
M  V30 31 H 0.948581 0.055300 -2.652301 0
M  V30 32 H 1.355376 2.084629 -1.447375 0
M  V30 33 H -0.487207 3.423731 1.408038 0
M  V30 34 H 0.556790 3.726926 -0.020997 0
M  V30 35 H 2.073478 3.830469 1.664063 0
M  V30 36 H 2.433210 2.240813 3.332493 0
M  V30 37 H 1.088917 1.255736 2.771422 0
M  V30 38 H -1.278889 2.108363 3.599795 0
M  V30 39 H -2.461782 3.429473 5.321007 0
M  V30 40 H -1.311936 5.120698 6.635296 0
M  V30 41 H 1.141242 5.502037 6.194579 0
M  V30 42 H 2.260244 4.209336 4.518483 0
M  V30 43 H -1.378649 0.965141 1.560546 0
M  V30 44 H -1.816879 -1.106477 0.370600 0
M  V30 45 H -1.222360 -6.083254 -0.668997 0
M  V30 END ATOM
M  V30 BEGIN BOND
M  V30 1 3 1 2
M  V30 2 1 2 3
M  V30 3 2 3 4
M  V30 4 1 4 5
M  V30 5 2 5 6
M  V30 6 1 6 7
M  V30 7 1 7 8
M  V30 8 2 8 9
M  V30 9 1 8 10
M  V30 10 1 10 11
M  V30 11 2 11 12
M  V30 12 1 12 13
M  V30 13 2 13 14
M  V30 14 1 14 15
M  V30 15 1 15 16
M  V30 16 1 16 17
M  V30 17 1 17 18
M  V30 18 2 18 19
M  V30 19 1 19 20
M  V30 20 2 20 21
M  V30 21 1 21 22
M  V30 22 2 22 23
M  V30 23 1 14 24
M  V30 24 2 24 25
M  V30 25 1 6 26
M  V30 26 2 26 27
M  V30 27 1 27 3
M  V30 28 1 25 11
M  V30 29 1 23 18
M  V30 30 1 4 28
M  V30 31 1 7 29
M  V30 32 1 10 30
M  V30 33 1 12 31
M  V30 34 1 13 32
M  V30 35 1 15 33
M  V30 36 1 15 34
M  V30 37 1 16 35
M  V30 38 1 17 36
M  V30 39 1 17 37
M  V30 40 1 19 38
M  V30 41 1 20 39
M  V30 42 1 21 40
M  V30 43 1 22 41
M  V30 44 1 23 42
M  V30 45 1 24 43
M  V30 46 1 25 44
M  V30 47 1 26 45
M  V30 END BOND
M  V30 END CTAB
M  END
>  <Dataset>  (616) 
ChEMBL_Kinases

>  <Ligand_Instance>  (616) 
nan

>  <PDB_ID>  (616) 
nan

>  <Standardized_SMILES>  (616) 
N#Cc1cnc(NC(=O)Nc2ccc(CNCc3ccccc3)cc2)cn1

>  <Name>  (616) 
nan

>  <Pocket>  (616) 
nan

>  <ATP_Site>  (616) 
nan

>  <Peripheral>  (616) 
nan

>  <Num_H_Atoms_ProtBoundConf>  (616) 
nan

>  <Num_Resolved_Atoms>  (616) 
nan

>  <Num_Not_Resolved_Atoms>  (616) 
nan

$$$$
CHEMBL3694363
     RDKit          3D

  0  0  0  0  0  0  0  0  0  0999 V3000
M  V30 BEGIN CTAB
M  V30 COUNTS 52 54 0 0 0
M  V30 BEGIN ATOM
M  V30 1 C -2.594944 0.574476 2.758170 0
M  V30 2 O -2.147841 -0.349917 1.788059 0
M  V30 3 C -0.820004 -0.734854 1.809267 0
M  V30 4 C 0.206637 -0.362472 2.650581 0
M  V30 5 C 1.477731 -0.872254 2.496670 0
M  V30 6 C 2.488889 -0.370228 3.489570 0
M  V30 7 C 3.151108 0.896110 2.913999 0
M  V30 8 N 3.801030 0.591406 1.674347 0
M  V30 9 C 4.456889 1.716724 1.103435 0
M  V30 10 C 3.592734 2.857663 0.798478 0
M  V30 11 C 3.128992 2.980093 -0.513005 0
M  V30 12 C 2.291763 3.955295 -1.005230 0
M  V30 13 C 1.863040 4.911414 -0.122140 0
M  V30 14 F 1.039247 5.880845 -0.581225 0
M  V30 15 C 2.276666 4.856051 1.178583 0
M  V30 16 C 3.105560 3.865148 1.601138 0
M  V30 17 F 3.511772 3.863394 2.890781 0
M  V30 18 C 1.810081 -1.775284 1.509158 0
M  V30 19 C 0.762599 -2.150015 0.657147 0
M  V30 20 C -0.530770 -1.649105 0.791063 0
M  V30 21 N -1.425343 -2.151339 -0.165486 0
M  V30 22 C -2.326163 -3.247368 -0.335618 0
M  V30 23 O -2.447076 -4.088970 0.576755 0
M  V30 24 N -3.003412 -3.239137 -1.585316 0
M  V30 25 C -3.914920 -4.298113 -1.832147 0
M  V30 26 C -3.259387 -5.364042 -2.438052 0
M  V30 27 N -3.901062 -6.510886 -2.784984 0
M  V30 28 C -5.221224 -6.632281 -2.538312 0
M  V30 29 C -5.940956 -7.834118 -2.892099 0
M  V30 30 N -6.517365 -8.804279 -3.165037 0
M  V30 31 C -5.888269 -5.564306 -1.928731 0
M  V30 32 N -5.238645 -4.434686 -1.590919 0
M  V30 33 H -3.679453 0.320864 2.944970 0
M  V30 34 H -2.580658 1.626484 2.400204 0
M  V30 35 H -2.105760 0.437943 3.749352 0
M  V30 36 H -0.107245 0.345158 3.404087 0
M  V30 37 H 2.030128 -0.115305 4.451996 0
M  V30 38 H 3.287320 -1.104957 3.644401 0
M  V30 39 H 3.847180 1.332577 3.622850 0
M  V30 40 H 2.273402 1.550970 2.653782 0
M  V30 41 H 4.380621 -0.252975 1.654239 0
M  V30 42 H 5.022208 1.455179 0.172254 0
M  V30 43 H 5.258545 2.124099 1.801484 0
M  V30 44 H 3.446505 2.235026 -1.257628 0
M  V30 45 H 1.986471 3.973346 -2.026867 0
M  V30 46 H 1.945915 5.612640 1.906484 0
M  V30 47 H 2.804266 -2.147279 1.422785 0
M  V30 48 H 1.058918 -2.862651 -0.110119 0
M  V30 49 H -1.280029 -1.404707 -0.899972 0
M  V30 50 H -2.876087 -2.503608 -2.342957 0
M  V30 51 H -2.198521 -5.435043 -2.709519 0
M  V30 52 H -6.936745 -5.599268 -1.707039 0
M  V30 END ATOM
M  V30 BEGIN BOND
M  V30 1 1 1 2
M  V30 2 1 2 3
M  V30 3 2 3 4
M  V30 4 1 4 5
M  V30 5 1 5 6
M  V30 6 1 6 7
M  V30 7 1 7 8
M  V30 8 1 8 9
M  V30 9 1 9 10
M  V30 10 2 10 11
M  V30 11 1 11 12
M  V30 12 2 12 13
M  V30 13 1 13 14
M  V30 14 1 13 15
M  V30 15 2 15 16
M  V30 16 1 16 17
M  V30 17 2 5 18
M  V30 18 1 18 19
M  V30 19 2 19 20
M  V30 20 1 20 21
M  V30 21 1 21 22
M  V30 22 2 22 23
M  V30 23 1 22 24
M  V30 24 1 24 25
M  V30 25 2 25 26
M  V30 26 1 26 27
M  V30 27 2 27 28
M  V30 28 1 28 29
M  V30 29 3 29 30
M  V30 30 1 28 31
M  V30 31 2 31 32
M  V30 32 1 20 3
M  V30 33 1 32 25
M  V30 34 1 16 10
M  V30 35 1 1 33
M  V30 36 1 1 34
M  V30 37 1 1 35
M  V30 38 1 4 36
M  V30 39 1 6 37
M  V30 40 1 6 38
M  V30 41 1 7 39
M  V30 42 1 7 40
M  V30 43 1 8 41
M  V30 44 1 9 42
M  V30 45 1 9 43
M  V30 46 1 11 44
M  V30 47 1 12 45
M  V30 48 1 15 46
M  V30 49 1 18 47
M  V30 50 1 19 48
M  V30 51 1 21 49
M  V30 52 1 24 50
M  V30 53 1 26 51
M  V30 54 1 31 52
M  V30 END BOND
M  V30 END CTAB
M  END
>  <Dataset>  (617) 
ChEMBL_Kinases

>  <Ligand_Instance>  (617) 
nan

>  <PDB_ID>  (617) 
nan

>  <Standardized_SMILES>  (617) 
COc1cc(CCNCc2ccc(F)cc2F)ccc1NC(=O)Nc1cnc(C#N)cn1

>  <Name>  (617) 
nan

>  <Pocket>  (617) 
nan

>  <ATP_Site>  (617) 
nan

>  <Peripheral>  (617) 
nan

>  <Num_H_Atoms_ProtBoundConf>  (617) 
nan

>  <Num_Resolved_Atoms>  (617) 
nan

>  <Num_Not_Resolved_Atoms>  (617) 
nan

$$$$
CHEMBL3694364
     RDKit          3D

  0  0  0  0  0  0  0  0  0  0999 V3000
M  V30 BEGIN CTAB
M  V30 COUNTS 55 57 0 0 0
M  V30 BEGIN ATOM
M  V30 1 C -1.688463 -0.186379 5.047427 0
M  V30 2 O -1.592047 -1.080874 3.947374 0
M  V30 3 C -0.382881 -1.358373 3.327433 0
M  V30 4 C 0.857014 -0.847315 3.650247 0
M  V30 5 C 1.982266 -1.212029 2.945162 0
M  V30 6 C 3.295700 -0.636279 3.328917 0
M  V30 7 C 3.536317 0.637264 2.569652 0
M  V30 8 N 3.543444 0.416936 1.123510 0
M  V30 9 C 3.779515 1.698967 0.501061 0
M  V30 10 C 3.805967 1.580890 -1.015106 0
M  V30 11 C 2.536420 1.064549 -1.552857 0
M  V30 12 C 2.304629 -0.293567 -1.731754 0
M  V30 13 C 1.113569 -0.750923 -2.234244 0
M  V30 14 C 0.100153 0.108714 -2.581961 0
M  V30 15 F -1.091891 -0.336271 -3.084084 0
M  V30 16 C 0.286619 1.484559 -2.419927 0
M  V30 17 C 1.497524 1.931583 -1.910232 0
M  V30 18 C 1.909286 -2.102082 1.890273 0
M  V30 19 C 0.646852 -2.614866 1.570723 0
M  V30 20 C -0.492279 -2.244045 2.286390 0
M  V30 21 N -1.644129 -2.902820 1.765161 0
M  V30 22 C -2.496937 -2.434835 0.741335 0
M  V30 23 O -2.162997 -1.316783 0.273743 0
M  V30 24 N -3.618571 -3.211990 0.324346 0
M  V30 25 C -4.385523 -2.608186 -0.718252 0
M  V30 26 C -4.078821 -2.859013 -2.039251 0
M  V30 27 N -4.773024 -2.312547 -3.054549 0
M  V30 28 C -5.816991 -1.481400 -2.808699 0
M  V30 29 C -6.528502 -0.921912 -3.922768 0
M  V30 30 N -7.116800 -0.466102 -4.813556 0
M  V30 31 C -6.137867 -1.219316 -1.485473 0
M  V30 32 N -5.435503 -1.772259 -0.472067 0
M  V30 33 H -2.707015 0.222452 5.156588 0
M  V30 34 H -1.382241 -0.630859 6.007355 0
M  V30 35 H -0.991068 0.665925 4.845684 0
M  V30 36 H 0.853499 -0.153229 4.486996 0
M  V30 37 H 4.137480 -1.334434 3.062644 0
M  V30 38 H 3.327569 -0.376371 4.403841 0
M  V30 39 H 2.739057 1.372255 2.855783 0
M  V30 40 H 4.541697 1.045393 2.825724 0
M  V30 41 H 4.347339 -0.207366 0.925319 0
M  V30 42 H 4.761511 2.123778 0.801869 0
M  V30 43 H 3.021170 2.450666 0.796183 0
M  V30 44 H 4.639841 0.891403 -1.258864 0
M  V30 45 H 3.992116 2.561791 -1.480621 0
M  V30 46 H 3.114466 -0.980451 -1.453778 0
M  V30 47 H 0.977226 -1.823620 -2.356627 0
M  V30 48 H -0.470633 2.210032 -2.674367 0
M  V30 49 H 1.647400 3.000662 -1.782323 0
M  V30 50 H 2.806717 -2.368089 1.357869 0
M  V30 51 H 0.689051 -3.310144 0.723161 0
M  V30 52 H -1.827115 -3.832437 2.232794 0
M  V30 53 H -3.809118 -4.142410 0.786187 0
M  V30 54 H -3.248948 -3.519853 -2.295315 0
M  V30 55 H -6.966968 -0.559324 -1.306822 0
M  V30 END ATOM
M  V30 BEGIN BOND
M  V30 1 1 1 2
M  V30 2 1 2 3
M  V30 3 2 3 4
M  V30 4 1 4 5
M  V30 5 1 5 6
M  V30 6 1 6 7
M  V30 7 1 7 8
M  V30 8 1 8 9
M  V30 9 1 9 10
M  V30 10 1 10 11
M  V30 11 2 11 12
M  V30 12 1 12 13
M  V30 13 2 13 14
M  V30 14 1 14 15
M  V30 15 1 14 16
M  V30 16 2 16 17
M  V30 17 2 5 18
M  V30 18 1 18 19
M  V30 19 2 19 20
M  V30 20 1 20 21
M  V30 21 1 21 22
M  V30 22 2 22 23
M  V30 23 1 22 24
M  V30 24 1 24 25
M  V30 25 2 25 26
M  V30 26 1 26 27
M  V30 27 2 27 28
M  V30 28 1 28 29
M  V30 29 3 29 30
M  V30 30 1 28 31
M  V30 31 2 31 32
M  V30 32 1 20 3
M  V30 33 1 32 25
M  V30 34 1 17 11
M  V30 35 1 1 33
M  V30 36 1 1 34
M  V30 37 1 1 35
M  V30 38 1 4 36
M  V30 39 1 6 37
M  V30 40 1 6 38
M  V30 41 1 7 39
M  V30 42 1 7 40
M  V30 43 1 8 41
M  V30 44 1 9 42
M  V30 45 1 9 43
M  V30 46 1 10 44
M  V30 47 1 10 45
M  V30 48 1 12 46
M  V30 49 1 13 47
M  V30 50 1 16 48
M  V30 51 1 17 49
M  V30 52 1 18 50
M  V30 53 1 19 51
M  V30 54 1 21 52
M  V30 55 1 24 53
M  V30 56 1 26 54
M  V30 57 1 31 55
M  V30 END BOND
M  V30 END CTAB
M  END
>  <Dataset>  (618) 
ChEMBL_Kinases

>  <Ligand_Instance>  (618) 
nan

>  <PDB_ID>  (618) 
nan

>  <Standardized_SMILES>  (618) 
COc1cc(CCNCCc2ccc(F)cc2)ccc1NC(=O)Nc1cnc(C#N)cn1

>  <Name>  (618) 
nan

>  <Pocket>  (618) 
nan

>  <ATP_Site>  (618) 
nan

>  <Peripheral>  (618) 
nan

>  <Num_H_Atoms_ProtBoundConf>  (618) 
nan

>  <Num_Resolved_Atoms>  (618) 
nan

>  <Num_Not_Resolved_Atoms>  (618) 
nan

$$$$
CHEMBL3694365
     RDKit          3D

  0  0  0  0  0  0  0  0  0  0999 V3000
M  V30 BEGIN CTAB
M  V30 COUNTS 54 56 0 0 0
M  V30 BEGIN ATOM
M  V30 1 C -2.933400 -2.472231 3.855077 0
M  V30 2 O -2.695050 -2.098429 2.517453 0
M  V30 3 C -1.511171 -1.471265 2.200014 0
M  V30 4 C -0.423365 -1.096388 2.954686 0
M  V30 5 C 0.703689 -0.465433 2.473717 0
M  V30 6 C 1.774633 -0.134243 3.428359 0
M  V30 7 C 1.639609 1.225532 4.043058 0
M  V30 8 N 1.661750 2.299935 3.121973 0
M  V30 9 C 2.889526 2.567731 2.451338 0
M  V30 10 C 2.639876 3.726729 1.549745 0
M  V30 11 C 2.216721 3.524410 0.255843 0
M  V30 12 C 1.971765 4.574726 -0.605600 0
M  V30 13 C 2.150960 5.894890 -0.176406 0
M  V30 14 C 2.577652 6.130298 1.125103 0
M  V30 15 C 2.807905 5.047465 1.943864 0
M  V30 16 C 0.761102 -0.173803 1.097851 0
M  V30 17 C -0.324332 -0.544785 0.333177 0
M  V30 18 C -1.447080 -1.178999 0.841282 0
M  V30 19 N -2.407913 -1.433865 -0.210481 0
M  V30 20 C -2.197397 -2.677769 -0.892800 0
M  V30 21 O -1.203661 -3.373707 -0.486647 0
M  V30 22 N -3.023965 -3.132821 -1.956750 0
M  V30 23 C -2.674486 -4.385639 -2.552721 0
M  V30 24 C -1.827734 -4.171493 -3.618338 0
M  V30 25 N -1.340981 -5.208206 -4.358468 0
M  V30 26 C -1.722632 -6.469573 -4.006187 0
M  V30 27 C -1.282543 -7.720292 -4.711544 0
M  V30 28 C -2.571510 -6.695420 -2.938799 0
M  V30 29 N -3.044641 -5.637079 -2.214141 0
M  V30 30 H -1.976788 -2.770546 4.322167 0
M  V30 31 H -3.686749 -3.292939 3.926780 0
M  V30 32 H -3.322033 -1.589246 4.437912 0
M  V30 33 H -0.558716 -1.361662 4.009192 0
M  V30 34 H 2.787514 -0.232589 2.966370 0
M  V30 35 H 1.745455 -0.877894 4.248842 0
M  V30 36 H 0.740532 1.286990 4.664199 0
M  V30 37 H 2.519497 1.333914 4.722741 0
M  V30 38 H 1.291856 3.155127 3.542630 0
M  V30 39 H 3.246348 1.750122 1.810102 0
M  V30 40 H 3.683993 2.814657 3.200286 0
M  V30 41 H 2.069080 2.509025 -0.099333 0
M  V30 42 H 1.639244 4.446001 -1.628349 0
M  V30 43 H 1.988945 6.788354 -0.764059 0
M  V30 44 H 2.730499 7.133096 1.503978 0
M  V30 45 H 3.141130 5.238699 2.959597 0
M  V30 46 H 1.644952 0.311595 0.767553 0
M  V30 47 H -0.159675 -0.265443 -0.703686 0
M  V30 48 H -3.209236 -0.823631 -0.511213 0
M  V30 49 H -3.829107 -2.539940 -2.261759 0
M  V30 50 H -1.452054 -3.216178 -3.994461 0
M  V30 51 H -0.402817 -7.459606 -5.347270 0
M  V30 52 H -2.109911 -8.182187 -5.251189 0
M  V30 53 H -0.883171 -8.464510 -3.968672 0
M  V30 54 H -2.911158 -7.664938 -2.607317 0
M  V30 END ATOM
M  V30 BEGIN BOND
M  V30 1 1 1 2
M  V30 2 1 2 3
M  V30 3 2 3 4
M  V30 4 1 4 5
M  V30 5 1 5 6
M  V30 6 1 6 7
M  V30 7 1 7 8
M  V30 8 1 8 9
M  V30 9 1 9 10
M  V30 10 2 10 11
M  V30 11 1 11 12
M  V30 12 2 12 13
M  V30 13 1 13 14
M  V30 14 2 14 15
M  V30 15 2 5 16
M  V30 16 1 16 17
M  V30 17 2 17 18
M  V30 18 1 18 19
M  V30 19 1 19 20
M  V30 20 2 20 21
M  V30 21 1 20 22
M  V30 22 1 22 23
M  V30 23 2 23 24
M  V30 24 1 24 25
M  V30 25 2 25 26
M  V30 26 1 26 27
M  V30 27 1 26 28
M  V30 28 2 28 29
M  V30 29 1 18 3
M  V30 30 1 29 23
M  V30 31 1 15 10
M  V30 32 1 1 30
M  V30 33 1 1 31
M  V30 34 1 1 32
M  V30 35 1 4 33
M  V30 36 1 6 34
M  V30 37 1 6 35
M  V30 38 1 7 36
M  V30 39 1 7 37
M  V30 40 1 8 38
M  V30 41 1 9 39
M  V30 42 1 9 40
M  V30 43 1 11 41
M  V30 44 1 12 42
M  V30 45 1 13 43
M  V30 46 1 14 44
M  V30 47 1 15 45
M  V30 48 1 16 46
M  V30 49 1 17 47
M  V30 50 1 19 48
M  V30 51 1 22 49
M  V30 52 1 24 50
M  V30 53 1 27 51
M  V30 54 1 27 52
M  V30 55 1 27 53
M  V30 56 1 28 54
M  V30 END BOND
M  V30 END CTAB
M  END
>  <Dataset>  (619) 
ChEMBL_Kinases

>  <Ligand_Instance>  (619) 
nan

>  <PDB_ID>  (619) 
nan

>  <Standardized_SMILES>  (619) 
COc1cc(CCNCc2ccccc2)ccc1NC(=O)Nc1cnc(C)cn1

>  <Name>  (619) 
nan

>  <Pocket>  (619) 
nan

>  <ATP_Site>  (619) 
nan

>  <Peripheral>  (619) 
nan

>  <Num_H_Atoms_ProtBoundConf>  (619) 
nan

>  <Num_Resolved_Atoms>  (619) 
nan

>  <Num_Not_Resolved_Atoms>  (619) 
nan

$$$$
CHEMBL3694366
     RDKit          3D

  0  0  0  0  0  0  0  0  0  0999 V3000
M  V30 BEGIN CTAB
M  V30 COUNTS 53 55 0 0 0
M  V30 BEGIN ATOM
M  V30 1 C 0.268587 -2.460596 5.105806 0
M  V30 2 O 0.257490 -3.186439 3.867386 0
M  V30 3 C 0.922175 -2.609637 2.806250 0
M  V30 4 C 1.616631 -1.389020 2.784194 0
M  V30 5 C 2.254534 -0.911817 1.632173 0
M  V30 6 O 2.809899 0.272413 1.986625 0
M  V30 7 C 3.521650 1.122887 1.161551 0
M  V30 8 C 2.628182 1.665758 0.055031 0
M  V30 9 N 3.329244 2.545976 -0.819958 0
M  V30 10 C 2.564152 3.076108 -1.890519 0
M  V30 11 C 1.375792 3.862631 -1.525176 0
M  V30 12 C 1.539822 5.243749 -1.535658 0
M  V30 13 C 0.524700 6.117184 -1.196377 0
M  V30 14 C -0.716527 5.634088 -0.826640 0
M  V30 15 F -1.731354 6.463682 -0.487802 0
M  V30 16 C -0.917567 4.256632 -0.805007 0
M  V30 17 C 0.138746 3.455089 -1.155317 0
M  V30 18 F -0.101352 2.128817 -1.143575 0
M  V30 19 C 2.144355 -1.727261 0.546423 0
M  V30 20 C 1.481020 -2.928736 0.503609 0
M  V30 21 C 0.869885 -3.358719 1.653021 0
M  V30 22 N 0.198325 -4.613455 1.540094 0
M  V30 23 C -1.145331 -4.523839 1.151800 0
M  V30 24 O -1.594046 -3.352909 0.951288 0
M  V30 25 N -2.070050 -5.579337 0.953723 0
M  V30 26 C -3.421442 -5.361052 0.554975 0
M  V30 27 C -4.275723 -6.430754 0.378956 0
M  V30 28 N -5.556682 -6.147573 -0.003868 0
M  V30 29 C -5.934340 -4.855829 -0.192998 0
M  V30 30 C -7.301361 -4.655960 -0.595329 0
M  V30 31 N -8.413975 -4.486448 -0.943003 0
M  V30 32 C -5.081173 -3.786826 -0.017258 0
M  V30 33 N -3.800571 -4.071194 0.365606 0
M  V30 34 H -0.297304 -1.501311 4.975051 0
M  V30 35 H -0.281363 -3.109854 5.828285 0
M  V30 36 H 1.301955 -2.296730 5.484711 0
M  V30 37 H 1.529187 -0.966555 3.801049 0
M  V30 38 H 4.004500 1.968076 1.696722 0
M  V30 39 H 4.377978 0.576483 0.661345 0
M  V30 40 H 2.143539 0.856111 -0.469638 0
M  V30 41 H 1.865538 2.303180 0.617688 0
M  V30 42 H 4.251063 2.222789 -1.148537 0
M  V30 43 H 2.247343 2.185827 -2.521601 0
M  V30 44 H 3.207686 3.666432 -2.610307 0
M  V30 45 H 2.459565 5.763667 -1.804750 0
M  V30 46 H 0.620522 7.188492 -1.194743 0
M  V30 47 H -1.872555 3.845134 -0.521762 0
M  V30 48 H 2.665125 -1.335772 -0.309078 0
M  V30 49 H 1.507293 -3.426760 -0.453128 0
M  V30 50 H 0.555984 -5.593120 1.702891 0
M  V30 51 H -1.695700 -6.538526 1.119887 0
M  V30 52 H -3.895984 -7.418992 0.549384 0
M  V30 53 H -5.491998 -2.810164 -0.195894 0
M  V30 END ATOM
M  V30 BEGIN BOND
M  V30 1 1 1 2
M  V30 2 1 2 3
M  V30 3 2 3 4
M  V30 4 1 4 5
M  V30 5 1 5 6
M  V30 6 1 6 7
M  V30 7 1 7 8
M  V30 8 1 8 9
M  V30 9 1 9 10
M  V30 10 1 10 11
M  V30 11 2 11 12
M  V30 12 1 12 13
M  V30 13 2 13 14
M  V30 14 1 14 15
M  V30 15 1 14 16
M  V30 16 2 16 17
M  V30 17 1 17 18
M  V30 18 2 5 19
M  V30 19 1 19 20
M  V30 20 2 20 21
M  V30 21 1 21 22
M  V30 22 1 22 23
M  V30 23 2 23 24
M  V30 24 1 23 25
M  V30 25 1 25 26
M  V30 26 2 26 27
M  V30 27 1 27 28
M  V30 28 2 28 29
M  V30 29 1 29 30
M  V30 30 3 30 31
M  V30 31 1 29 32
M  V30 32 2 32 33
M  V30 33 1 21 3
M  V30 34 1 33 26
M  V30 35 1 17 11
M  V30 36 1 1 34
M  V30 37 1 1 35
M  V30 38 1 1 36
M  V30 39 1 4 37
M  V30 40 1 7 38
M  V30 41 1 7 39
M  V30 42 1 8 40
M  V30 43 1 8 41
M  V30 44 1 9 42
M  V30 45 1 10 43
M  V30 46 1 10 44
M  V30 47 1 12 45
M  V30 48 1 13 46
M  V30 49 1 16 47
M  V30 50 1 19 48
M  V30 51 1 20 49
M  V30 52 1 22 50
M  V30 53 1 25 51
M  V30 54 1 27 52
M  V30 55 1 32 53
M  V30 END BOND
M  V30 END CTAB
M  END
>  <Dataset>  (620) 
ChEMBL_Kinases

>  <Ligand_Instance>  (620) 
nan

>  <PDB_ID>  (620) 
nan

>  <Standardized_SMILES>  (620) 
COc1cc(OCCNCc2ccc(F)cc2F)ccc1NC(=O)Nc1cnc(C#N)cn1

>  <Name>  (620) 
nan

>  <Pocket>  (620) 
nan

>  <ATP_Site>  (620) 
nan

>  <Peripheral>  (620) 
nan

>  <Num_H_Atoms_ProtBoundConf>  (620) 
nan

>  <Num_Resolved_Atoms>  (620) 
nan

>  <Num_Not_Resolved_Atoms>  (620) 
nan

$$$$
CHEMBL3694367
     RDKit          3D

  0  0  0  0  0  0  0  0  0  0999 V3000
M  V30 BEGIN CTAB
M  V30 COUNTS 48 50 0 0 0
M  V30 BEGIN ATOM
M  V30 1 N 4.966664 -8.307871 1.613090 0
M  V30 2 C 4.691800 -7.326103 1.062118 0
M  V30 3 C 4.341170 -6.124548 0.380514 0
M  V30 4 C 5.217069 -5.077673 0.179373 0
M  V30 5 N 4.815223 -3.971948 -0.474204 0
M  V30 6 C 3.552264 -3.840682 -0.955780 0
M  V30 7 N 3.080802 -2.689826 -1.653757 0
M  V30 8 C 2.495408 -1.625457 -0.925003 0
M  V30 9 O 2.418827 -1.746275 0.308324 0
M  V30 10 N 2.001088 -0.449135 -1.524107 0
M  V30 11 C 1.394110 0.695953 -0.949608 0
M  V30 12 C 0.991447 1.723775 -1.742989 0
M  V30 13 C 0.396590 2.859211 -1.237487 0
M  V30 14 C 0.172987 3.020739 0.114522 0
M  V30 15 C 0.568228 1.998340 0.952484 0
M  V30 16 C 0.343779 2.139011 2.403582 0
M  V30 17 C -1.007448 1.595535 2.847738 0
M  V30 18 N -1.065983 0.200564 2.514109 0
M  V30 19 C -2.327112 -0.410764 2.901964 0
M  V30 20 C -3.479271 0.225082 2.242542 0
M  V30 21 C -4.192583 1.310442 2.760215 0
M  V30 22 C -5.258115 1.822037 2.048056 0
M  V30 23 C -5.675854 1.328084 0.839167 0
M  V30 24 F -6.710149 1.808941 0.126811 0
M  V30 25 C -4.985903 0.249634 0.300117 0
M  V30 26 C -3.920156 -0.256213 1.020248 0
M  V30 27 C 1.158423 0.884865 0.393745 0
M  V30 28 C 2.692142 -4.906508 -0.740481 0
M  V30 29 N 3.067175 -6.024043 -0.090264 0
M  V30 30 H 6.226661 -5.169794 0.558320 0
M  V30 31 H 3.153261 -2.607691 -2.679864 0
M  V30 32 H 2.120923 -0.462102 -2.570258 0
M  V30 33 H 1.141982 1.652994 -2.819583 0
M  V30 34 H 0.107449 3.627862 -1.941270 0
M  V30 35 H -0.298983 3.940460 0.433100 0
M  V30 36 H 0.517555 3.175140 2.739405 0
M  V30 37 H 1.094285 1.499957 2.923246 0
M  V30 38 H -1.846783 2.184551 2.467700 0
M  V30 39 H -1.004971 1.697337 3.956767 0
M  V30 40 H -0.294063 -0.275706 3.029635 0
M  V30 41 H -2.429662 -0.461419 4.009801 0
M  V30 42 H -2.294545 -1.469283 2.570637 0
M  V30 43 H -3.858832 1.692908 3.709769 0
M  V30 44 H -5.803373 2.671106 2.469765 0
M  V30 45 H -5.262656 -0.189037 -0.649934 0
M  V30 46 H -3.386507 -1.103198 0.586126 0
M  V30 47 H 1.438463 0.132798 1.108605 0
M  V30 48 H 1.681198 -4.809260 -1.122280 0
M  V30 END ATOM
M  V30 BEGIN BOND
M  V30 1 3 1 2
M  V30 2 1 2 3
M  V30 3 2 3 4
M  V30 4 1 4 5
M  V30 5 2 5 6
M  V30 6 1 6 7
M  V30 7 1 7 8
M  V30 8 2 8 9
M  V30 9 1 8 10
M  V30 10 1 10 11
M  V30 11 2 11 12
M  V30 12 1 12 13
M  V30 13 2 13 14
M  V30 14 1 14 15
M  V30 15 1 15 16
M  V30 16 1 16 17
M  V30 17 1 17 18
M  V30 18 1 18 19
M  V30 19 1 19 20
M  V30 20 2 20 21
M  V30 21 1 21 22
M  V30 22 2 22 23
M  V30 23 1 23 24
M  V30 24 1 23 25
M  V30 25 2 25 26
M  V30 26 2 15 27
M  V30 27 1 6 28
M  V30 28 2 28 29
M  V30 29 1 29 3
M  V30 30 1 27 11
M  V30 31 1 26 20
M  V30 32 1 4 30
M  V30 33 1 7 31
M  V30 34 1 10 32
M  V30 35 1 12 33
M  V30 36 1 13 34
M  V30 37 1 14 35
M  V30 38 1 16 36
M  V30 39 1 16 37
M  V30 40 1 17 38
M  V30 41 1 17 39
M  V30 42 1 18 40
M  V30 43 1 19 41
M  V30 44 1 19 42
M  V30 45 1 21 43
M  V30 46 1 22 44
M  V30 47 1 25 45
M  V30 48 1 26 46
M  V30 49 1 27 47
M  V30 50 1 28 48
M  V30 END BOND
M  V30 END CTAB
M  END
>  <Dataset>  (621) 
ChEMBL_Kinases

>  <Ligand_Instance>  (621) 
nan

>  <PDB_ID>  (621) 
nan

>  <Standardized_SMILES>  (621) 
N#Cc1cnc(NC(=O)Nc2cccc(CCNCc3ccc(F)cc3)c2)cn1

>  <Name>  (621) 
nan

>  <Pocket>  (621) 
nan

>  <ATP_Site>  (621) 
nan

>  <Peripheral>  (621) 
nan

>  <Num_H_Atoms_ProtBoundConf>  (621) 
nan

>  <Num_Resolved_Atoms>  (621) 
nan

>  <Num_Not_Resolved_Atoms>  (621) 
nan

$$$$
CHEMBL3694377
     RDKit          3D

  0  0  0  0  0  0  0  0  0  0999 V3000
M  V30 BEGIN CTAB
M  V30 COUNTS 55 57 0 0 0
M  V30 BEGIN ATOM
M  V30 1 C -2.653300 -2.750796 3.847758 0
M  V30 2 O -1.588373 -3.091579 2.963219 0
M  V30 3 C -0.467959 -2.218811 2.911863 0
M  V30 4 C 0.545926 -1.438183 2.858836 0
M  V30 5 C 1.748226 -1.237908 2.277411 0
M  V30 6 C 2.490199 -0.049179 2.675457 0
M  V30 7 C 2.222758 1.051685 1.655823 0
M  V30 8 N 2.928354 2.268856 2.024716 0
M  V30 9 C 2.724633 3.252588 0.978731 0 CFG=1
M  V30 10 C 3.395450 2.755291 -0.279256 0
M  V30 11 C 1.303257 3.500143 0.712246 0
M  V30 12 C 0.609680 3.766336 1.893899 0
M  V30 13 C -0.770192 4.008597 1.800391 0
M  V30 14 C -1.491660 3.999843 0.600203 0
M  V30 15 F -2.816506 4.250484 0.671352 0
M  V30 16 C -0.762148 3.734901 -0.523374 0
M  V30 17 C 0.589144 3.495228 -0.456194 0
M  V30 18 C 2.075782 -2.217233 1.378357 0
M  V30 19 C 1.178666 -3.281611 1.155166 0
M  V30 20 C -0.046744 -3.239406 1.923873 0
M  V30 21 N -0.579103 -4.478919 1.289734 0
M  V30 22 C -1.323500 -4.188202 0.080729 0
M  V30 23 O -1.291639 -2.929821 -0.054228 0
M  V30 24 N -1.916134 -5.227745 -0.697266 0
M  V30 25 C -2.577884 -4.725309 -1.844747 0
M  V30 26 C -1.641346 -4.568653 -2.840753 0
M  V30 27 N -1.798471 -4.132449 -4.101171 0
M  V30 28 C -3.091420 -3.782224 -4.473108 0
M  V30 29 C -3.434455 -3.303926 -5.754290 0
M  V30 30 N -3.714734 -2.910587 -6.837504 0
M  V30 31 C -4.077159 -3.928211 -3.485313 0
M  V30 32 N -3.816825 -4.384415 -2.220411 0
M  V30 33 H -3.090914 -1.805623 3.444568 0
M  V30 34 H -2.288942 -2.598215 4.866752 0
M  V30 35 H -3.377540 -3.586947 3.735882 0
M  V30 36 H 0.071635 -0.783185 3.624501 0
M  V30 37 H 3.577579 -0.302180 2.696129 0
M  V30 38 H 2.219336 0.363673 3.668894 0
M  V30 39 H 2.593970 0.712989 0.675080 0
M  V30 40 H 1.135225 1.271982 1.681898 0
M  V30 41 H 2.636298 2.607457 2.972948 0
M  V30 42 H 3.237957 4.190153 1.267973 0
M  V30 43 H 3.757229 3.615073 -0.881087 0
M  V30 44 H 4.305295 2.158892 0.013595 0
M  V30 45 H 2.751808 2.128555 -0.908121 0
M  V30 46 H 1.026726 3.807865 2.903325 0
M  V30 47 H -1.325972 4.223420 2.721543 0
M  V30 48 H -1.290908 3.713660 -1.459450 0
M  V30 49 H 1.181919 3.285049 -1.336080 0
M  V30 50 H 3.045633 -1.976522 0.968567 0
M  V30 51 H 1.723906 -3.882997 0.397125 0
M  V30 52 H -0.465717 -5.445637 1.637031 0
M  V30 53 H -1.751742 -6.166925 -0.285614 0
M  V30 54 H -0.550645 -4.779844 -2.776127 0
M  V30 55 H -5.129577 -3.690413 -3.654234 0
M  V30 END ATOM
M  V30 BEGIN BOND
M  V30 1 1 1 2
M  V30 2 1 2 3
M  V30 3 2 3 4
M  V30 4 1 4 5
M  V30 5 1 5 6
M  V30 6 1 6 7
M  V30 7 1 7 8
M  V30 8 1 8 9
M  V30 9 1 9 10
M  V30 10 1 9 11
M  V30 11 2 11 12
M  V30 12 1 12 13
M  V30 13 2 13 14
M  V30 14 1 14 15
M  V30 15 1 14 16
M  V30 16 2 16 17
M  V30 17 2 5 18
M  V30 18 1 18 19
M  V30 19 2 19 20
M  V30 20 1 20 21
M  V30 21 1 21 22
M  V30 22 2 22 23
M  V30 23 1 22 24
M  V30 24 1 24 25
M  V30 25 2 25 26
M  V30 26 1 26 27
M  V30 27 2 27 28
M  V30 28 1 28 29
M  V30 29 3 29 30
M  V30 30 1 28 31
M  V30 31 2 31 32
M  V30 32 1 20 3
M  V30 33 1 32 25
M  V30 34 1 17 11
M  V30 35 1 1 33
M  V30 36 1 1 34
M  V30 37 1 1 35
M  V30 38 1 4 36
M  V30 39 1 6 37
M  V30 40 1 6 38
M  V30 41 1 7 39
M  V30 42 1 7 40
M  V30 43 1 8 41
M  V30 44 1 9 42 CFG=1
M  V30 45 1 10 43
M  V30 46 1 10 44
M  V30 47 1 10 45
M  V30 48 1 12 46
M  V30 49 1 13 47
M  V30 50 1 16 48
M  V30 51 1 17 49
M  V30 52 1 18 50
M  V30 53 1 19 51
M  V30 54 1 21 52
M  V30 55 1 24 53
M  V30 56 1 26 54
M  V30 57 1 31 55
M  V30 END BOND
M  V30 END CTAB
M  END
>  <Dataset>  (622) 
ChEMBL_Kinases

>  <Ligand_Instance>  (622) 
nan

>  <PDB_ID>  (622) 
nan

>  <Standardized_SMILES>  (622) 
COc1cc(CCN[C@@H](C)c2ccc(F)cc2)ccc1NC(=O)Nc1cnc(C#N)cn1

>  <Name>  (622) 
nan

>  <Pocket>  (622) 
nan

>  <ATP_Site>  (622) 
nan

>  <Peripheral>  (622) 
nan

>  <Num_H_Atoms_ProtBoundConf>  (622) 
nan

>  <Num_Resolved_Atoms>  (622) 
nan

>  <Num_Not_Resolved_Atoms>  (622) 
nan

$$$$
CHEMBL3694369
     RDKit          3D

  0  0  0  0  0  0  0  0  0  0999 V3000
M  V30 BEGIN CTAB
M  V30 COUNTS 51 53 0 0 0
M  V30 BEGIN ATOM
M  V30 1 C -2.692261 0.970953 2.195700 0
M  V30 2 C -1.570072 0.149341 1.653799 0
M  V30 3 C -0.280933 0.605204 1.943235 0
M  V30 4 C 0.894480 -0.022699 1.525491 0
M  V30 5 N 2.153034 0.574028 1.908873 0
M  V30 6 C 2.617028 1.516372 0.961836 0
M  V30 7 O 1.907633 1.712524 -0.060205 0
M  V30 8 N 3.820209 2.254866 1.079151 0
M  V30 9 C 4.247697 3.195176 0.097912 0
M  V30 10 C 5.039192 3.007819 -1.016753 0
M  V30 11 N 5.303758 4.083050 -1.806079 0
M  V30 12 C 4.788161 5.299091 -1.480518 0
M  V30 13 C 5.139320 6.357956 -2.392913 0
M  V30 14 N 5.424414 7.227124 -3.124485 0
M  V30 15 C 3.994823 5.513669 -0.372772 0
M  V30 16 N 3.743232 4.421941 0.403068 0
M  V30 17 C 0.771894 -1.167167 0.778395 0
M  V30 18 C -0.495760 -1.619910 0.490901 0
M  V30 19 C -1.653853 -1.006263 0.899773 0
M  V30 20 C -3.038098 -1.482094 0.588542 0
M  V30 21 C -3.693554 -2.087984 1.775392 0
M  V30 22 N -3.152778 -3.191546 2.411110 0
M  V30 23 C -3.124034 -4.484771 1.915992 0
M  V30 24 C -2.222094 -4.725260 0.789538 0
M  V30 25 C -2.342251 -4.753278 -0.574674 0
M  V30 26 C -1.335611 -5.020408 -1.465130 0
M  V30 27 C -0.080025 -5.288018 -0.964043 0
M  V30 28 F 0.883735 -5.546814 -1.890611 0
M  V30 29 C 0.122262 -5.278908 0.395718 0
M  V30 30 C -0.931394 -5.001517 1.273214 0
M  V30 31 H -3.605536 0.939331 1.602259 0
M  V30 32 H -2.832261 0.823606 3.289225 0
M  V30 33 H -2.341669 2.045207 2.121470 0
M  V30 34 H -0.158617 1.522792 2.541551 0
M  V30 35 H 2.747368 0.407247 2.765484 0
M  V30 36 H 4.419088 2.104753 1.918602 0
M  V30 37 H 5.365647 1.984702 -1.130326 0
M  V30 38 H 3.617172 6.500258 -0.169579 0
M  V30 39 H 1.656613 -1.656127 0.453063 0
M  V30 40 H -0.577837 -2.514645 -0.103389 0
M  V30 41 H -3.670094 -0.586894 0.289235 0
M  V30 42 H -3.001104 -2.101353 -0.314593 0
M  V30 43 H -3.779038 -1.246178 2.550115 0
M  V30 44 H -4.798501 -2.307768 1.508818 0
M  V30 45 H -3.393996 -3.188685 3.435492 0
M  V30 46 H -2.946322 -5.265837 2.741126 0
M  V30 47 H -4.199868 -4.748927 1.607403 0
M  V30 48 H -3.386688 -4.524283 -0.835180 0
M  V30 49 H -1.644302 -4.991819 -2.502720 0
M  V30 50 H 1.131631 -5.497655 0.709227 0
M  V30 51 H -0.592137 -5.036910 2.307921 0
M  V30 END ATOM
M  V30 BEGIN BOND
M  V30 1 1 1 2
M  V30 2 2 2 3
M  V30 3 1 3 4
M  V30 4 1 4 5
M  V30 5 1 5 6
M  V30 6 2 6 7
M  V30 7 1 6 8
M  V30 8 1 8 9
M  V30 9 2 9 10
M  V30 10 1 10 11
M  V30 11 2 11 12
M  V30 12 1 12 13
M  V30 13 3 13 14
M  V30 14 1 12 15
M  V30 15 2 15 16
M  V30 16 2 4 17
M  V30 17 1 17 18
M  V30 18 2 18 19
M  V30 19 1 19 20
M  V30 20 1 20 21
M  V30 21 1 21 22
M  V30 22 1 22 23
M  V30 23 1 23 24
M  V30 24 2 24 25
M  V30 25 1 25 26
M  V30 26 2 26 27
M  V30 27 1 27 28
M  V30 28 1 27 29
M  V30 29 2 29 30
M  V30 30 1 19 2
M  V30 31 1 30 24
M  V30 32 1 16 9
M  V30 33 1 1 31
M  V30 34 1 1 32
M  V30 35 1 1 33
M  V30 36 1 3 34
M  V30 37 1 5 35
M  V30 38 1 8 36
M  V30 39 1 10 37
M  V30 40 1 15 38
M  V30 41 1 17 39
M  V30 42 1 18 40
M  V30 43 1 20 41
M  V30 44 1 20 42
M  V30 45 1 21 43
M  V30 46 1 21 44
M  V30 47 1 22 45
M  V30 48 1 23 46
M  V30 49 1 23 47
M  V30 50 1 25 48
M  V30 51 1 26 49
M  V30 52 1 29 50
M  V30 53 1 30 51
M  V30 END BOND
M  V30 END CTAB
M  END
>  <Dataset>  (623) 
ChEMBL_Kinases

>  <Ligand_Instance>  (623) 
nan

>  <PDB_ID>  (623) 
nan

>  <Standardized_SMILES>  (623) 
Cc1cc(NC(=O)Nc2cnc(C#N)cn2)ccc1CCNCc1ccc(F)cc1

>  <Name>  (623) 
nan

>  <Pocket>  (623) 
nan

>  <ATP_Site>  (623) 
nan

>  <Peripheral>  (623) 
nan

>  <Num_H_Atoms_ProtBoundConf>  (623) 
nan

>  <Num_Resolved_Atoms>  (623) 
nan

>  <Num_Not_Resolved_Atoms>  (623) 
nan

$$$$
CHEMBL3694370
     RDKit          3D

  0  0  0  0  0  0  0  0  0  0999 V3000
M  V30 BEGIN CTAB
M  V30 COUNTS 52 54 0 0 0
M  V30 BEGIN ATOM
M  V30 1 C 1.470226 -4.557469 2.480831 0
M  V30 2 O 0.384674 -3.701027 2.295354 0
M  V30 3 C 0.369069 -2.358000 2.534538 0
M  V30 4 C 1.383523 -1.565399 2.996957 0
M  V30 5 C 1.164605 -0.212078 3.174246 0
M  V30 6 C 2.232392 0.656723 3.669464 0
M  V30 7 C 2.856383 1.506644 2.589999 0
M  V30 8 N 3.451610 0.756454 1.531487 0
M  V30 9 C 4.016753 1.677407 0.566585 0
M  V30 10 C 3.008679 2.585958 -0.030404 0
M  V30 11 C 2.424259 2.073714 -1.172372 0
M  V30 12 C 1.459167 2.802723 -1.854752 0
M  V30 13 C 1.109835 4.051744 -1.348792 0
M  V30 14 F 0.175268 4.820100 -1.962034 0
M  V30 15 C 1.681311 4.580208 -0.210892 0
M  V30 16 C 2.644237 3.829974 0.452358 0
M  V30 17 C -0.080777 0.335892 2.882808 0
M  V30 18 Cl -0.300962 2.075354 3.130003 0
M  V30 19 C -1.135622 -0.451926 2.408432 0
M  V30 20 C -0.869942 -1.817439 2.243766 0
M  V30 21 N -2.027827 -2.504948 1.754576 0
M  V30 22 C -2.452776 -2.765499 0.419042 0
M  V30 23 O -1.779105 -2.375369 -0.557604 0
M  V30 24 N -3.675439 -3.487360 0.300854 0
M  V30 25 C -4.133756 -3.768025 -1.016563 0
M  V30 26 C -3.843887 -4.894188 -1.793593 0
M  V30 27 N -4.391852 -4.960626 -3.035573 0
M  V30 28 C -5.181908 -3.965405 -3.479214 0
M  V30 29 C -5.720163 -4.115395 -4.805031 0
M  V30 30 N -6.143921 -4.244538 -5.887521 0
M  V30 31 C -5.475883 -2.848675 -2.722653 0
M  V30 32 N -4.929007 -2.790581 -1.493192 0
M  V30 33 H 2.297194 -4.072958 3.037419 0
M  V30 34 H 1.203464 -5.449495 3.122177 0
M  V30 35 H 1.782937 -5.012957 1.517344 0
M  V30 36 H 2.325363 -2.051991 3.203724 0
M  V30 37 H 1.830014 1.309568 4.458412 0
M  V30 38 H 3.053680 0.052001 4.118618 0
M  V30 39 H 2.041208 2.130154 2.123131 0
M  V30 40 H 3.598261 2.219650 2.990378 0
M  V30 41 H 4.157972 0.073503 1.828575 0
M  V30 42 H 4.627602 1.157929 -0.217973 0
M  V30 43 H 4.769794 2.360016 1.057534 0
M  V30 44 H 2.638971 1.112762 -1.630565 0
M  V30 45 H 0.953353 2.463071 -2.763966 0
M  V30 46 H 1.422800 5.540980 0.191647 0
M  V30 47 H 3.154443 4.161233 1.360361 0
M  V30 48 H -2.049132 0.056049 2.213649 0
M  V30 49 H -2.592155 -2.832206 2.588913 0
M  V30 50 H -4.229166 -3.807358 1.139144 0
M  V30 51 H -3.196547 -5.610656 -1.308514 0
M  V30 52 H -6.114880 -2.064783 -3.107426 0
M  V30 END ATOM
M  V30 BEGIN BOND
M  V30 1 1 1 2
M  V30 2 1 2 3
M  V30 3 2 3 4
M  V30 4 1 4 5
M  V30 5 1 5 6
M  V30 6 1 6 7
M  V30 7 1 7 8
M  V30 8 1 8 9
M  V30 9 1 9 10
M  V30 10 2 10 11
M  V30 11 1 11 12
M  V30 12 2 12 13
M  V30 13 1 13 14
M  V30 14 1 13 15
M  V30 15 2 15 16
M  V30 16 2 5 17
M  V30 17 1 17 18
M  V30 18 1 17 19
M  V30 19 2 19 20
M  V30 20 1 20 21
M  V30 21 1 21 22
M  V30 22 2 22 23
M  V30 23 1 22 24
M  V30 24 1 24 25
M  V30 25 2 25 26
M  V30 26 1 26 27
M  V30 27 2 27 28
M  V30 28 1 28 29
M  V30 29 3 29 30
M  V30 30 1 28 31
M  V30 31 2 31 32
M  V30 32 1 20 3
M  V30 33 1 32 25
M  V30 34 1 16 10
M  V30 35 1 1 33
M  V30 36 1 1 34
M  V30 37 1 1 35
M  V30 38 1 4 36
M  V30 39 1 6 37
M  V30 40 1 6 38
M  V30 41 1 7 39
M  V30 42 1 7 40
M  V30 43 1 8 41
M  V30 44 1 9 42
M  V30 45 1 9 43
M  V30 46 1 11 44
M  V30 47 1 12 45
M  V30 48 1 15 46
M  V30 49 1 16 47
M  V30 50 1 19 48
M  V30 51 1 21 49
M  V30 52 1 24 50
M  V30 53 1 26 51
M  V30 54 1 31 52
M  V30 END BOND
M  V30 END CTAB
M  END
>  <Dataset>  (624) 
ChEMBL_Kinases

>  <Ligand_Instance>  (624) 
nan

>  <PDB_ID>  (624) 
nan

>  <Standardized_SMILES>  (624) 
COc1cc(CCNCc2ccc(F)cc2)c(Cl)cc1NC(=O)Nc1cnc(C#N)cn1

>  <Name>  (624) 
nan

>  <Pocket>  (624) 
nan

>  <ATP_Site>  (624) 
nan

>  <Peripheral>  (624) 
nan

>  <Num_H_Atoms_ProtBoundConf>  (624) 
nan

>  <Num_Resolved_Atoms>  (624) 
nan

>  <Num_Not_Resolved_Atoms>  (624) 
nan

$$$$
CHEMBL3694371
     RDKit          3D

  0  0  0  0  0  0  0  0  0  0999 V3000
M  V30 BEGIN CTAB
M  V30 COUNTS 65 68 0 0 0
M  V30 BEGIN ATOM
M  V30 1 C 2.808695 1.775726 3.437289 0
M  V30 2 N 4.193731 2.156650 3.442743 0
M  V30 3 C 5.026780 1.159867 2.780397 0
M  V30 4 C 5.366888 1.639069 1.364689 0
M  V30 5 N 4.155997 2.187854 0.812228 0
M  V30 6 C 3.350301 1.577755 -0.180347 0
M  V30 7 C 3.611844 0.346102 -0.693175 0
M  V30 8 C 2.822604 -0.243901 -1.663799 0
M  V30 9 C 1.725139 0.459714 -2.122403 0
M  V30 10 C 1.430292 1.729495 -1.613707 0
M  V30 11 C 0.234587 2.418817 -2.158880 0
M  V30 12 N -0.901510 2.063107 -1.337809 0
M  V30 13 C -2.122944 2.691394 -1.802091 0
M  V30 14 C -3.265900 2.280136 -0.887416 0
M  V30 15 C -3.476244 0.813697 -0.864792 0
M  V30 16 C -3.061754 0.059298 0.204820 0
M  V30 17 C -3.264799 -1.301646 0.213329 0
M  V30 18 C -3.873793 -1.995581 -0.803925 0
M  V30 19 N -4.118857 -3.386456 -0.867732 0
M  V30 20 C -3.810463 -4.392079 0.078283 0
M  V30 21 O -3.239199 -4.076097 1.146107 0
M  V30 22 N -4.105140 -5.762120 -0.093183 0
M  V30 23 C -3.761648 -6.711552 0.908160 0
M  V30 24 C -4.061903 -8.042268 0.712374 0
M  V30 25 N -3.722884 -8.908591 1.679618 0
M  V30 26 C -3.110341 -8.524050 2.813047 0
M  V30 27 C -2.742871 -9.440795 3.854219 0
M  V30 28 N -2.464015 -10.175382 4.701549 0
M  V30 29 C -2.807630 -7.193961 3.014159 0
M  V30 30 N -3.150032 -6.332336 2.041523 0
M  V30 31 C -4.275875 -1.216736 -1.855934 0
M  V30 32 C -4.081264 0.146087 -1.881879 0
M  V30 33 Cl -4.634021 1.043693 -3.275005 0
M  V30 34 C 2.252174 2.258462 -0.652854 0
M  V30 35 C 3.836792 3.468082 1.399011 0
M  V30 36 C 4.381059 3.458348 2.825215 0
M  V30 37 H 2.580292 1.081305 2.585742 0
M  V30 38 H 2.137792 2.643758 3.315499 0
M  V30 39 H 2.511831 1.250999 4.380383 0
M  V30 40 H 5.952795 0.983910 3.344235 0
M  V30 41 H 4.419607 0.236776 2.703072 0
M  V30 42 H 5.760269 0.783292 0.815748 0
M  V30 43 H 6.154505 2.410756 1.514815 0
M  V30 44 H 4.456270 -0.237842 -0.364724 0
M  V30 45 H 2.992422 -1.224183 -2.103013 0
M  V30 46 H 1.072588 0.026749 -2.892943 0
M  V30 47 H 0.439541 3.510683 -2.157481 0
M  V30 48 H 0.062041 2.074967 -3.183895 0
M  V30 49 H -0.756562 2.149840 -0.329145 0
M  V30 50 H -2.010744 3.791500 -1.669602 0
M  V30 51 H -2.329548 2.452921 -2.852723 0
M  V30 52 H -2.969346 2.600417 0.130570 0
M  V30 53 H -4.204968 2.807279 -1.158548 0
M  V30 54 H -2.574611 0.549998 1.038344 0
M  V30 55 H -2.917982 -1.839475 1.078897 0
M  V30 56 H -4.590530 -3.788472 -1.705038 0
M  V30 57 H -4.580785 -6.064577 -0.970150 0
M  V30 58 H -4.556561 -8.424573 -0.180519 0
M  V30 59 H -2.308836 -6.799632 3.911161 0
M  V30 60 H -4.769233 -1.683197 -2.709696 0
M  V30 61 H 1.931685 3.238364 -0.335053 0
M  V30 62 H 2.735248 3.589694 1.495412 0
M  V30 63 H 4.307988 4.316436 0.869403 0
M  V30 64 H 3.799763 4.172117 3.466921 0
M  V30 65 H 5.430213 3.752580 2.893291 0
M  V30 END ATOM
M  V30 BEGIN BOND
M  V30 1 1 1 2
M  V30 2 1 2 3
M  V30 3 1 3 4
M  V30 4 1 4 5
M  V30 5 1 5 6
M  V30 6 2 6 7
M  V30 7 1 7 8
M  V30 8 2 8 9
M  V30 9 1 9 10
M  V30 10 1 10 11
M  V30 11 1 11 12
M  V30 12 1 12 13
M  V30 13 1 13 14
M  V30 14 1 14 15
M  V30 15 2 15 16
M  V30 16 1 16 17
M  V30 17 2 17 18
M  V30 18 1 18 19
M  V30 19 1 19 20
M  V30 20 2 20 21
M  V30 21 1 20 22
M  V30 22 1 22 23
M  V30 23 2 23 24
M  V30 24 1 24 25
M  V30 25 2 25 26
M  V30 26 1 26 27
M  V30 27 3 27 28
M  V30 28 1 26 29
M  V30 29 2 29 30
M  V30 30 1 18 31
M  V30 31 2 31 32
M  V30 32 1 32 33
M  V30 33 2 10 34
M  V30 34 1 5 35
M  V30 35 1 35 36
M  V30 36 1 36 2
M  V30 37 1 34 6
M  V30 38 1 32 15
M  V30 39 1 30 23
M  V30 40 1 1 37
M  V30 41 1 1 38
M  V30 42 1 1 39
M  V30 43 1 3 40
M  V30 44 1 3 41
M  V30 45 1 4 42
M  V30 46 1 4 43
M  V30 47 1 7 44
M  V30 48 1 8 45
M  V30 49 1 9 46
M  V30 50 1 11 47
M  V30 51 1 11 48
M  V30 52 1 12 49
M  V30 53 1 13 50
M  V30 54 1 13 51
M  V30 55 1 14 52
M  V30 56 1 14 53
M  V30 57 1 16 54
M  V30 58 1 17 55
M  V30 59 1 19 56
M  V30 60 1 22 57
M  V30 61 1 24 58
M  V30 62 1 29 59
M  V30 63 1 31 60
M  V30 64 1 34 61
M  V30 65 1 35 62
M  V30 66 1 35 63
M  V30 67 1 36 64
M  V30 68 1 36 65
M  V30 END BOND
M  V30 END CTAB
M  END
>  <Dataset>  (625) 
ChEMBL_Kinases

>  <Ligand_Instance>  (625) 
nan

>  <PDB_ID>  (625) 
nan

>  <Standardized_SMILES>  (625) 
CN1CCN(c2cccc(CNCCc3ccc(NC(=O)Nc4cnc(C#N)cn4)cc3Cl)c2)CC1

>  <Name>  (625) 
nan

>  <Pocket>  (625) 
nan

>  <ATP_Site>  (625) 
nan

>  <Peripheral>  (625) 
nan

>  <Num_H_Atoms_ProtBoundConf>  (625) 
nan

>  <Num_Resolved_Atoms>  (625) 
nan

>  <Num_Not_Resolved_Atoms>  (625) 
nan

$$$$
CHEMBL3694372
     RDKit          3D

  0  0  0  0  0  0  0  0  0  0999 V3000
M  V30 BEGIN CTAB
M  V30 COUNTS 61 64 0 0 0
M  V30 BEGIN ATOM
M  V30 1 N 6.157555 -6.393513 0.795691 0
M  V30 2 C 5.879175 -5.293924 0.689019 0
M  V30 3 C 5.536090 -3.907356 0.568415 0
M  V30 4 C 6.442775 -2.941761 0.267749 0
M  V30 5 N 6.108857 -1.644196 0.159722 0
M  V30 6 C 4.840610 -1.214774 0.344367 0
M  V30 7 N 4.552086 0.163142 0.219482 0
M  V30 8 C 3.350922 0.858842 0.375237 0
M  V30 9 O 2.345192 0.177464 0.673853 0
M  V30 10 N 3.151996 2.250892 0.232496 0
M  V30 11 C 1.755546 2.536998 0.490147 0
M  V30 12 C 1.429708 2.795466 1.806725 0
M  V30 13 C 0.098472 3.066691 2.071064 0
M  V30 14 C -0.890482 3.084588 1.071440 0
M  V30 15 C -2.203996 3.397497 1.648363 0
M  V30 16 C -3.403687 3.030798 0.864559 0
M  V30 17 N -3.516699 1.655010 0.525180 0
M  V30 18 C -3.734095 0.732963 1.585238 0
M  V30 19 C -3.857861 -0.665625 1.044456 0
M  V30 20 C -5.101399 -1.216537 0.729923 0
M  V30 21 C -5.134367 -2.511318 0.224102 0
M  V30 22 C -3.983367 -3.246285 0.031180 0
M  V30 23 C -2.759836 -2.702545 0.341058 0
M  V30 24 N -1.582830 -3.462479 0.139672 0
M  V30 25 C -1.514632 -4.867035 -0.193045 0
M  V30 26 C -0.832586 -5.028985 -1.543660 0
M  V30 27 O 0.479300 -4.585452 -1.431480 0
M  V30 28 C 0.532145 -3.250484 -1.077939 0
M  V30 29 C -0.219699 -2.972116 0.214038 0
M  V30 30 C -2.721424 -1.423520 0.841618 0
M  V30 31 C -0.483883 2.817696 -0.211489 0
M  V30 32 Cl -1.710454 2.838471 -1.426479 0
M  V30 33 C 0.827741 2.541425 -0.531176 0
M  V30 34 C 3.960882 -2.221429 0.645204 0
M  V30 35 N 4.261127 -3.519126 0.759851 0
M  V30 36 H 7.486434 -3.242498 0.109320 0
M  V30 37 H 5.320700 0.817682 -0.026902 0
M  V30 38 H 3.973871 2.835350 -0.019506 0
M  V30 39 H 2.190000 2.780240 2.567857 0
M  V30 40 H -0.079298 3.261452 3.140996 0
M  V30 41 H -2.241701 4.507816 1.843720 0
M  V30 42 H -2.332568 2.962422 2.675603 0
M  V30 43 H -4.326835 3.271211 1.503866 0
M  V30 44 H -3.552822 3.669349 -0.013305 0
M  V30 45 H -4.196447 1.546026 -0.255545 0
M  V30 46 H -4.740094 0.967570 2.020816 0
M  V30 47 H -3.032879 0.785804 2.410238 0
M  V30 48 H -5.980836 -0.605088 0.896740 0
M  V30 49 H -6.110423 -2.868503 0.006899 0
M  V30 50 H -4.148820 -4.235344 -0.366980 0
M  V30 51 H -0.859638 -5.405617 0.528341 0
M  V30 52 H -2.479915 -5.370584 -0.279951 0
M  V30 53 H -1.354386 -4.539145 -2.363343 0
M  V30 54 H -0.771205 -6.111706 -1.795637 0
M  V30 55 H 0.168427 -2.614969 -1.913771 0
M  V30 56 H 1.594386 -2.972486 -0.916449 0
M  V30 57 H -0.154384 -1.870033 0.352955 0
M  V30 58 H 0.319431 -3.495552 1.028963 0
M  V30 59 H -1.800307 -0.956921 1.099479 0
M  V30 60 H 1.100462 2.337289 -1.555393 0
M  V30 61 H 2.922151 -1.993866 0.811840 0
M  V30 END ATOM
M  V30 BEGIN BOND
M  V30 1 3 1 2
M  V30 2 1 2 3
M  V30 3 2 3 4
M  V30 4 1 4 5
M  V30 5 2 5 6
M  V30 6 1 6 7
M  V30 7 1 7 8
M  V30 8 2 8 9
M  V30 9 1 8 10
M  V30 10 1 10 11
M  V30 11 2 11 12
M  V30 12 1 12 13
M  V30 13 2 13 14
M  V30 14 1 14 15
M  V30 15 1 15 16
M  V30 16 1 16 17
M  V30 17 1 17 18
M  V30 18 1 18 19
M  V30 19 2 19 20
M  V30 20 1 20 21
M  V30 21 2 21 22
M  V30 22 1 22 23
M  V30 23 1 23 24
M  V30 24 1 24 25
M  V30 25 1 25 26
M  V30 26 1 26 27
M  V30 27 1 27 28
M  V30 28 1 28 29
M  V30 29 2 23 30
M  V30 30 1 14 31
M  V30 31 1 31 32
M  V30 32 2 31 33
M  V30 33 1 6 34
M  V30 34 2 34 35
M  V30 35 1 35 3
M  V30 36 1 33 11
M  V30 37 1 30 19
M  V30 38 1 29 24
M  V30 39 1 4 36
M  V30 40 1 7 37
M  V30 41 1 10 38
M  V30 42 1 12 39
M  V30 43 1 13 40
M  V30 44 1 15 41
M  V30 45 1 15 42
M  V30 46 1 16 43
M  V30 47 1 16 44
M  V30 48 1 17 45
M  V30 49 1 18 46
M  V30 50 1 18 47
M  V30 51 1 20 48
M  V30 52 1 21 49
M  V30 53 1 22 50
M  V30 54 1 25 51
M  V30 55 1 25 52
M  V30 56 1 26 53
M  V30 57 1 26 54
M  V30 58 1 28 55
M  V30 59 1 28 56
M  V30 60 1 29 57
M  V30 61 1 29 58
M  V30 62 1 30 59
M  V30 63 1 33 60
M  V30 64 1 34 61
M  V30 END BOND
M  V30 END CTAB
M  END
>  <Dataset>  (626) 
ChEMBL_Kinases

>  <Ligand_Instance>  (626) 
nan

>  <PDB_ID>  (626) 
nan

>  <Standardized_SMILES>  (626) 
N#Cc1cnc(NC(=O)Nc2ccc(CCNCc3cccc(N4CCOCC4)c3)c(Cl)c2)cn1

>  <Name>  (626) 
nan

>  <Pocket>  (626) 
nan

>  <ATP_Site>  (626) 
nan

>  <Peripheral>  (626) 
nan

>  <Num_H_Atoms_ProtBoundConf>  (626) 
nan

>  <Num_Resolved_Atoms>  (626) 
nan

>  <Num_Not_Resolved_Atoms>  (626) 
nan

$$$$
CHEMBL3694373
     RDKit          3D

  0  0  0  0  0  0  0  0  0  0999 V3000
M  V30 BEGIN CTAB
M  V30 COUNTS 48 50 0 0 0
M  V30 BEGIN ATOM
M  V30 1 N -0.145567 -7.377631 -3.119541 0
M  V30 2 C 0.192597 -6.273738 -3.139195 0
M  V30 3 C 0.622253 -4.889136 -3.143999 0
M  V30 4 C 1.963940 -4.648422 -2.906304 0
M  V30 5 N 2.368228 -3.361210 -2.908235 0
M  V30 6 C 1.515805 -2.344353 -3.129979 0
M  V30 7 N 1.906704 -0.952628 -3.133214 0
M  V30 8 C 1.871688 -0.201138 -1.927810 0
M  V30 9 O 1.498093 -0.812702 -0.903689 0
M  V30 10 N 2.220248 1.176804 -1.787399 0
M  V30 11 C 2.047133 1.576588 -0.405291 0
M  V30 12 C 2.922576 1.585475 0.658112 0
M  V30 13 C 2.459323 2.008895 1.882475 0
M  V30 14 C 1.156578 2.420350 2.073287 0
M  V30 15 C 0.737529 2.827191 3.407641 0
M  V30 16 C 0.164069 1.855599 4.359527 0
M  V30 17 N -0.963999 1.059928 4.034705 0
M  V30 18 C -0.693104 -0.068519 3.197555 0
M  V30 19 C -1.931837 -0.843111 2.823670 0
M  V30 20 C -2.691402 -0.609093 1.698202 0
M  V30 21 C -3.811549 -1.355404 1.406614 0
M  V30 22 C -4.190892 -2.365073 2.256775 0
M  V30 23 F -5.280783 -3.148875 2.044301 0
M  V30 24 C -3.449915 -2.631018 3.401613 0
M  V30 25 F -3.750922 -3.614281 4.305771 0
M  V30 26 C -2.332663 -1.868712 3.669804 0
M  V30 27 C 0.279007 2.405007 0.974514 0
M  V30 28 Cl -1.340032 2.960289 1.334685 0
M  V30 29 C 0.740095 1.977939 -0.267710 0
M  V30 30 C 0.177261 -2.568584 -3.368459 0
M  V30 31 N -0.222515 -3.865840 -3.365101 0
M  V30 32 H 2.676007 -5.439725 -2.723792 0
M  V30 33 H 2.224444 -0.433259 -4.002127 0
M  V30 34 H 2.532239 1.672042 -2.648152 0
M  V30 35 H 3.897544 1.239139 0.350942 0
M  V30 36 H 3.212979 1.983711 2.661319 0
M  V30 37 H 0.039502 3.713794 3.274917 0
M  V30 38 H 1.650095 3.270214 3.944869 0
M  V30 39 H 0.041070 2.327012 5.389018 0
M  V30 40 H 1.028420 1.118006 4.586680 0
M  V30 41 H -1.357294 0.699691 4.944890 0
M  V30 42 H -0.006144 -0.798500 3.771036 0
M  V30 43 H -0.151281 0.192640 2.321185 0
M  V30 44 H -2.383223 0.185840 1.034693 0
M  V30 45 H -4.386565 -1.154076 0.524984 0
M  V30 46 H -1.729683 -2.059763 4.568166 0
M  V30 47 H -0.070260 2.036354 -0.980387 0
M  V30 48 H -0.511773 -1.774930 -3.546839 0
M  V30 END ATOM
M  V30 BEGIN BOND
M  V30 1 3 1 2
M  V30 2 1 2 3
M  V30 3 2 3 4
M  V30 4 1 4 5
M  V30 5 2 5 6
M  V30 6 1 6 7
M  V30 7 1 7 8
M  V30 8 2 8 9
M  V30 9 1 8 10
M  V30 10 1 10 11
M  V30 11 2 11 12
M  V30 12 1 12 13
M  V30 13 2 13 14
M  V30 14 1 14 15
M  V30 15 1 15 16
M  V30 16 1 16 17
M  V30 17 1 17 18
M  V30 18 1 18 19
M  V30 19 2 19 20
M  V30 20 1 20 21
M  V30 21 2 21 22
M  V30 22 1 22 23
M  V30 23 1 22 24
M  V30 24 1 24 25
M  V30 25 2 24 26
M  V30 26 1 14 27
M  V30 27 1 27 28
M  V30 28 2 27 29
M  V30 29 1 6 30
M  V30 30 2 30 31
M  V30 31 1 31 3
M  V30 32 1 29 11
M  V30 33 1 26 19
M  V30 34 1 4 32
M  V30 35 1 7 33
M  V30 36 1 10 34
M  V30 37 1 12 35
M  V30 38 1 13 36
M  V30 39 1 15 37
M  V30 40 1 15 38
M  V30 41 1 16 39
M  V30 42 1 16 40
M  V30 43 1 17 41
M  V30 44 1 18 42
M  V30 45 1 18 43
M  V30 46 1 20 44
M  V30 47 1 21 45
M  V30 48 1 26 46
M  V30 49 1 29 47
M  V30 50 1 30 48
M  V30 END BOND
M  V30 END CTAB
M  END
>  <Dataset>  (627) 
ChEMBL_Kinases

>  <Ligand_Instance>  (627) 
nan

>  <PDB_ID>  (627) 
nan

>  <Standardized_SMILES>  (627) 
N#Cc1cnc(NC(=O)Nc2ccc(CCNCc3ccc(F)c(F)c3)c(Cl)c2)cn1

>  <Name>  (627) 
nan

>  <Pocket>  (627) 
nan

>  <ATP_Site>  (627) 
nan

>  <Peripheral>  (627) 
nan

>  <Num_H_Atoms_ProtBoundConf>  (627) 
nan

>  <Num_Resolved_Atoms>  (627) 
nan

>  <Num_Not_Resolved_Atoms>  (627) 
nan

$$$$
CHEMBL3694374
     RDKit          3D

  0  0  0  0  0  0  0  0  0  0999 V3000
M  V30 BEGIN CTAB
M  V30 COUNTS 48 50 0 0 0
M  V30 BEGIN ATOM
M  V30 1 N -0.925786 -7.962797 -2.235973 0
M  V30 2 C -0.394201 -6.940429 -2.381530 0
M  V30 3 C 0.271379 -5.673639 -2.556958 0
M  V30 4 C 1.596399 -5.463576 -2.177010 0
M  V30 5 N 2.139355 -4.233021 -2.381232 0
M  V30 6 C 1.406721 -3.238876 -2.940494 0
M  V30 7 N 1.965971 -1.942473 -3.157691 0
M  V30 8 C 1.859901 -0.951434 -2.134481 0
M  V30 9 O 1.253902 -1.306933 -1.063447 0
M  V30 10 N 2.324494 0.385589 -2.111176 0
M  V30 11 C 2.032743 1.101572 -0.890627 0
M  V30 12 C 0.851295 1.781166 -0.841176 0
M  V30 13 C 0.546130 2.481239 0.331321 0
M  V30 14 C 1.456881 2.440082 1.360649 0
M  V30 15 C 1.191905 3.169245 2.648981 0
M  V30 16 C 0.775665 2.166034 3.713799 0
M  V30 17 N -0.432773 1.511889 3.227449 0
M  V30 18 C -0.938807 0.528392 4.146376 0
M  V30 19 C -2.157945 -0.100914 3.601311 0
M  V30 20 C -3.429543 0.368743 3.821326 0
M  V30 21 C -4.533019 -0.258813 3.286646 0
M  V30 22 C -4.364890 -1.380459 2.514984 0
M  V30 23 F -5.473732 -1.975321 2.002597 0
M  V30 24 C -3.104124 -1.885624 2.269387 0
M  V30 25 C -1.996287 -1.241155 2.816116 0
M  V30 26 C 2.635632 1.746140 1.275963 0
M  V30 27 Br 3.936633 1.661263 2.690204 0
M  V30 28 C 2.960215 1.047305 0.129922 0
M  V30 29 C 0.079106 -3.465564 -3.316221 0
M  V30 30 N -0.479373 -4.695639 -3.117399 0
M  V30 31 H 2.120506 -6.299377 -1.737633 0
M  V30 32 H 2.473188 -1.542661 -3.972535 0
M  V30 33 H 2.823532 0.656952 -3.011725 0
M  V30 34 H 0.184007 1.773169 -1.678669 0
M  V30 35 H -0.369700 3.035604 0.430952 0
M  V30 36 H 2.082740 3.694479 3.010062 0
M  V30 37 H 0.338094 3.840879 2.479618 0
M  V30 38 H 1.524663 1.382212 3.878671 0
M  V30 39 H 0.613266 2.732671 4.647872 0
M  V30 40 H -1.131867 2.293909 3.078533 0
M  V30 41 H -1.118637 0.991692 5.139363 0
M  V30 42 H -0.128158 -0.247181 4.250648 0
M  V30 43 H -3.561349 1.255048 4.430861 0
M  V30 44 H -5.520871 0.149117 3.488062 0
M  V30 45 H -3.037999 -2.769088 1.656183 0
M  V30 46 H -1.027540 -1.655889 2.608643 0
M  V30 47 H 3.882054 0.487961 0.027190 0
M  V30 48 H -0.455748 -2.618704 -3.762985 0
M  V30 END ATOM
M  V30 BEGIN BOND
M  V30 1 3 1 2
M  V30 2 1 2 3
M  V30 3 2 3 4
M  V30 4 1 4 5
M  V30 5 2 5 6
M  V30 6 1 6 7
M  V30 7 1 7 8
M  V30 8 2 8 9
M  V30 9 1 8 10
M  V30 10 1 10 11
M  V30 11 2 11 12
M  V30 12 1 12 13
M  V30 13 2 13 14
M  V30 14 1 14 15
M  V30 15 1 15 16
M  V30 16 1 16 17
M  V30 17 1 17 18
M  V30 18 1 18 19
M  V30 19 2 19 20
M  V30 20 1 20 21
M  V30 21 2 21 22
M  V30 22 1 22 23
M  V30 23 1 22 24
M  V30 24 2 24 25
M  V30 25 1 14 26
M  V30 26 1 26 27
M  V30 27 2 26 28
M  V30 28 1 6 29
M  V30 29 2 29 30
M  V30 30 1 30 3
M  V30 31 1 28 11
M  V30 32 1 25 19
M  V30 33 1 4 31
M  V30 34 1 7 32
M  V30 35 1 10 33
M  V30 36 1 12 34
M  V30 37 1 13 35
M  V30 38 1 15 36
M  V30 39 1 15 37
M  V30 40 1 16 38
M  V30 41 1 16 39
M  V30 42 1 17 40
M  V30 43 1 18 41
M  V30 44 1 18 42
M  V30 45 1 20 43
M  V30 46 1 21 44
M  V30 47 1 24 45
M  V30 48 1 25 46
M  V30 49 1 28 47
M  V30 50 1 29 48
M  V30 END BOND
M  V30 END CTAB
M  END
>  <Dataset>  (628) 
ChEMBL_Kinases

>  <Ligand_Instance>  (628) 
nan

>  <PDB_ID>  (628) 
nan

>  <Standardized_SMILES>  (628) 
N#Cc1cnc(NC(=O)Nc2ccc(CCNCc3ccc(F)cc3)c(Br)c2)cn1

>  <Name>  (628) 
nan

>  <Pocket>  (628) 
nan

>  <ATP_Site>  (628) 
nan

>  <Peripheral>  (628) 
nan

>  <Num_H_Atoms_ProtBoundConf>  (628) 
nan

>  <Num_Resolved_Atoms>  (628) 
nan

>  <Num_Not_Resolved_Atoms>  (628) 
nan

$$$$
CHEMBL3694375
     RDKit          3D

  0  0  0  0  0  0  0  0  0  0999 V3000
M  V30 BEGIN CTAB
M  V30 COUNTS 52 54 0 0 0
M  V30 BEGIN ATOM
M  V30 1 C -0.043912 -4.061808 3.992305 0
M  V30 2 O -0.010766 -3.559933 2.669544 0
M  V30 3 C 0.291475 -2.267066 2.561882 0
M  V30 4 C 0.706075 -1.328685 3.276341 0
M  V30 5 C 1.053866 0.039254 3.340397 0
M  V30 6 C 1.691190 1.176537 3.942496 0
M  V30 7 C 3.037054 1.507432 3.106826 0
M  V30 8 N 2.786567 1.621164 1.740522 0
M  V30 9 C 3.699145 2.318155 0.830979 0
M  V30 10 C 2.735775 2.946163 -0.257701 0
M  V30 11 C 2.204970 1.717060 -0.808441 0
M  V30 12 C 1.115496 2.311705 -1.627050 0
M  V30 13 C 0.727513 3.568635 -1.820097 0
M  V30 14 F -0.431841 3.795162 -2.559718 0
M  V30 15 C 1.421593 4.596202 -1.179189 0
M  V30 16 C 2.451568 4.152108 -0.384102 0
M  V30 17 C 0.719649 0.244743 1.948647 0
M  V30 18 Br 0.225711 2.202467 1.845386 0
M  V30 19 C 0.274558 -0.551153 0.937599 0
M  V30 20 C 0.073759 -1.867572 1.331685 0
M  V30 21 N -0.291648 -2.393957 -0.040449 0
M  V30 22 C -1.681858 -3.292923 0.022121 0
M  V30 23 O -1.836352 -3.384110 1.169385 0
M  V30 24 N -1.590998 -3.241140 -1.475249 0
M  V30 25 C -2.862966 -3.894938 -1.850277 0
M  V30 26 C -3.115940 -5.237909 -2.293733 0
M  V30 27 N -4.403162 -5.759498 -2.533578 0
M  V30 28 C -5.385354 -4.733719 -2.272705 0
M  V30 29 C -6.832959 -4.998742 -2.351723 0
M  V30 30 N -8.047373 -5.214760 -2.404156 0
M  V30 31 C -5.089252 -3.557284 -1.900100 0
M  V30 32 N -3.880906 -2.965171 -1.638326 0
M  V30 33 H -0.172836 -3.142903 4.694512 0
M  V30 34 H -1.301694 -4.232781 4.085261 0
M  V30 35 H 0.279012 -4.969502 4.289298 0
M  V30 36 H 0.999017 -1.614676 4.307827 0
M  V30 37 H 1.128455 1.992340 4.249091 0
M  V30 38 H 2.255535 0.772096 4.903573 0
M  V30 39 H 3.319105 2.456905 3.551025 0
M  V30 40 H 3.774321 0.716255 3.342543 0
M  V30 41 H 2.873798 0.548534 1.368797 0
M  V30 42 H 4.439992 1.736237 0.316856 0
M  V30 43 H 4.154305 3.192449 1.306425 0
M  V30 44 H 2.254985 0.666617 -0.843080 0
M  V30 45 H 0.502546 1.561809 -2.209040 0
M  V30 46 H 1.128218 5.602767 -1.355034 0
M  V30 47 H 3.034464 4.856850 0.135779 0
M  V30 48 H 0.081168 0.040472 0.018237 0
M  V30 49 H 0.424549 -2.229908 -0.877279 0
M  V30 50 H -1.412437 -3.127552 -2.452325 0
M  V30 51 H -2.268123 -5.845523 -2.461070 0
M  V30 52 H -5.840713 -2.763451 -1.707228 0
M  V30 END ATOM
M  V30 BEGIN BOND
M  V30 1 1 1 2
M  V30 2 1 2 3
M  V30 3 2 3 4
M  V30 4 1 4 5
M  V30 5 1 5 6
M  V30 6 1 6 7
M  V30 7 1 7 8
M  V30 8 1 8 9
M  V30 9 1 9 10
M  V30 10 2 10 11
M  V30 11 1 11 12
M  V30 12 2 12 13
M  V30 13 1 13 14
M  V30 14 1 13 15
M  V30 15 2 15 16
M  V30 16 2 5 17
M  V30 17 1 17 18
M  V30 18 1 17 19
M  V30 19 2 19 20
M  V30 20 1 20 21
M  V30 21 1 21 22
M  V30 22 2 22 23
M  V30 23 1 22 24
M  V30 24 1 24 25
M  V30 25 2 25 26
M  V30 26 1 26 27
M  V30 27 2 27 28
M  V30 28 1 28 29
M  V30 29 3 29 30
M  V30 30 1 28 31
M  V30 31 2 31 32
M  V30 32 1 20 3
M  V30 33 1 32 25
M  V30 34 1 16 10
M  V30 35 1 1 33
M  V30 36 1 1 34
M  V30 37 1 1 35
M  V30 38 1 4 36
M  V30 39 1 6 37
M  V30 40 1 6 38
M  V30 41 1 7 39
M  V30 42 1 7 40
M  V30 43 1 8 41
M  V30 44 1 9 42
M  V30 45 1 9 43
M  V30 46 1 11 44
M  V30 47 1 12 45
M  V30 48 1 15 46
M  V30 49 1 16 47
M  V30 50 1 19 48
M  V30 51 1 21 49
M  V30 52 1 24 50
M  V30 53 1 26 51
M  V30 54 1 31 52
M  V30 END BOND
M  V30 END CTAB
M  END
>  <Dataset>  (629) 
ChEMBL_Kinases

>  <Ligand_Instance>  (629) 
nan

>  <PDB_ID>  (629) 
nan

>  <Standardized_SMILES>  (629) 
COc1cc(CCNCc2ccc(F)cc2)c(Br)cc1NC(=O)Nc1cnc(C#N)cn1

>  <Name>  (629) 
nan

>  <Pocket>  (629) 
nan

>  <ATP_Site>  (629) 
nan

>  <Peripheral>  (629) 
nan

>  <Num_H_Atoms_ProtBoundConf>  (629) 
nan

>  <Num_Resolved_Atoms>  (629) 
nan

>  <Num_Not_Resolved_Atoms>  (629) 
nan

$$$$
CHEMBL3694376
     RDKit          3D

  0  0  0  0  0  0  0  0  0  0999 V3000
M  V30 BEGIN CTAB
M  V30 COUNTS 55 57 0 0 0
M  V30 BEGIN ATOM
M  V30 1 C -1.706990 -1.046475 3.915589 0
M  V30 2 O -1.518278 -2.213540 3.103186 0
M  V30 3 C -0.308638 -2.421625 2.452530 0
M  V30 4 C 0.762051 -1.554809 2.535128 0
M  V30 5 C 1.958394 -1.812900 1.858862 0
M  V30 6 C 3.056332 -0.790961 2.026876 0
M  V30 7 C 2.809594 0.197574 0.880618 0
M  V30 8 N 3.762938 1.262946 0.864613 0
M  V30 9 C 3.573551 2.226326 -0.202482 0 CFG=2
M  V30 10 C 4.705149 3.242913 0.001401 0
M  V30 11 C 2.316629 2.969290 -0.080933 0
M  V30 12 C 1.913855 3.486077 1.126709 0
M  V30 13 C 0.736948 4.179979 1.233289 0
M  V30 14 C -0.037358 4.351246 0.107300 0
M  V30 15 F -1.214780 5.040292 0.192272 0
M  V30 16 C 0.299651 3.862627 -1.138853 0
M  V30 17 C 1.504114 3.171352 -1.168805 0
M  V30 18 C 2.073876 -2.948793 1.097485 0
M  V30 19 C 1.027331 -3.822735 1.000038 0
M  V30 20 C -0.171394 -3.574422 1.671206 0
M  V30 21 N -1.300764 -4.471918 1.594568 0
M  V30 22 C -2.178939 -4.169035 0.532030 0
M  V30 23 O -1.880806 -3.196346 -0.185087 0
M  V30 24 N -3.368331 -4.851968 0.188448 0
M  V30 25 C -4.173457 -4.436779 -0.923501 0
M  V30 26 C -4.094787 -4.836086 -2.229240 0
M  V30 27 N -4.954418 -4.319334 -3.126767 0
M  V30 28 C -5.882779 -3.419444 -2.748367 0
M  V30 29 C -6.808791 -2.862437 -3.713632 0
M  V30 30 N -7.550867 -2.413102 -4.478618 0
M  V30 31 C -5.991866 -2.993223 -1.440367 0
M  V30 32 N -5.120977 -3.523512 -0.557777 0
M  V30 33 H -2.769231 -0.838634 4.079174 0
M  V30 34 H -1.278096 -0.146484 3.415752 0
M  V30 35 H -1.210442 -1.186549 4.888762 0
M  V30 36 H 0.675344 -0.661376 3.132196 0
M  V30 37 H 3.998165 -1.335320 1.876314 0
M  V30 38 H 2.955879 -0.345665 3.013961 0
M  V30 39 H 2.868693 -0.428165 -0.049739 0
M  V30 40 H 1.779589 0.570581 1.049737 0
M  V30 41 H 4.735501 0.910204 0.897122 0
M  V30 42 H 3.685186 1.788960 -1.215762 0
M  V30 43 H 4.590230 3.615080 1.039579 0
M  V30 44 H 4.645738 4.068569 -0.732574 0
M  V30 45 H 5.681820 2.746336 -0.103025 0
M  V30 46 H 2.553925 3.326249 1.980969 0
M  V30 47 H 0.405293 4.595097 2.184011 0
M  V30 48 H -0.301664 3.991801 -2.029344 0
M  V30 49 H 1.845732 2.753175 -2.108638 0
M  V30 50 H 3.009457 -3.124743 0.584833 0
M  V30 51 H 1.099174 -4.736692 0.396494 0
M  V30 52 H -1.576623 -5.307228 2.193246 0
M  V30 53 H -3.620426 -5.682357 0.802741 0
M  V30 54 H -3.320246 -5.556524 -2.425215 0
M  V30 55 H -6.744112 -2.268427 -1.151064 0
M  V30 END ATOM
M  V30 BEGIN BOND
M  V30 1 1 1 2
M  V30 2 1 2 3
M  V30 3 2 3 4
M  V30 4 1 4 5
M  V30 5 1 5 6
M  V30 6 1 6 7
M  V30 7 1 7 8
M  V30 8 1 8 9
M  V30 9 1 9 10
M  V30 10 1 9 11
M  V30 11 2 11 12
M  V30 12 1 12 13
M  V30 13 2 13 14
M  V30 14 1 14 15
M  V30 15 1 14 16
M  V30 16 2 16 17
M  V30 17 2 5 18
M  V30 18 1 18 19
M  V30 19 2 19 20
M  V30 20 1 20 21
M  V30 21 1 21 22
M  V30 22 2 22 23
M  V30 23 1 22 24
M  V30 24 1 24 25
M  V30 25 2 25 26
M  V30 26 1 26 27
M  V30 27 2 27 28
M  V30 28 1 28 29
M  V30 29 3 29 30
M  V30 30 1 28 31
M  V30 31 2 31 32
M  V30 32 1 20 3
M  V30 33 1 32 25
M  V30 34 1 17 11
M  V30 35 1 1 33
M  V30 36 1 1 34
M  V30 37 1 1 35
M  V30 38 1 4 36
M  V30 39 1 6 37
M  V30 40 1 6 38
M  V30 41 1 7 39
M  V30 42 1 7 40
M  V30 43 1 8 41
M  V30 44 1 9 42 CFG=3
M  V30 45 1 10 43
M  V30 46 1 10 44
M  V30 47 1 10 45
M  V30 48 1 12 46
M  V30 49 1 13 47
M  V30 50 1 16 48
M  V30 51 1 17 49
M  V30 52 1 18 50
M  V30 53 1 19 51
M  V30 54 1 21 52
M  V30 55 1 24 53
M  V30 56 1 26 54
M  V30 57 1 31 55
M  V30 END BOND
M  V30 END CTAB
M  END
>  <Dataset>  (630) 
ChEMBL_Kinases

>  <Ligand_Instance>  (630) 
nan

>  <PDB_ID>  (630) 
nan

>  <Standardized_SMILES>  (630) 
COc1cc(CCN[C@H](C)c2ccc(F)cc2)ccc1NC(=O)Nc1cnc(C#N)cn1

>  <Name>  (630) 
nan

>  <Pocket>  (630) 
nan

>  <ATP_Site>  (630) 
nan

>  <Peripheral>  (630) 
nan

>  <Num_H_Atoms_ProtBoundConf>  (630) 
nan

>  <Num_Resolved_Atoms>  (630) 
nan

>  <Num_Not_Resolved_Atoms>  (630) 
nan

$$$$
CHEMBL3694368
     RDKit          3D

  0  0  0  0  0  0  0  0  0  0999 V3000
M  V30 BEGIN CTAB
M  V30 COUNTS 65 68 0 0 0
M  V30 BEGIN ATOM
M  V30 1 C 4.333760 1.667873 2.129816 0
M  V30 2 N 5.508135 1.389740 1.333572 0
M  V30 3 C 5.360331 0.209893 0.520787 0
M  V30 4 C 5.192968 0.517016 -0.940826 0
M  V30 5 N 4.390708 1.715054 -1.061471 0
M  V30 6 C 3.073438 1.750356 -1.560971 0
M  V30 7 C 2.351229 0.626904 -1.867051 0
M  V30 8 C 1.058018 0.661775 -2.360320 0
M  V30 9 C 0.428378 1.890679 -2.568080 0
M  V30 10 C -0.972915 1.840975 -3.097562 0
M  V30 11 N -1.889939 1.821000 -1.977905 0
M  V30 12 C -3.254422 1.736828 -2.392675 0
M  V30 13 C -4.222995 1.743419 -1.226091 0
M  V30 14 C -3.986445 0.622289 -0.313611 0
M  V30 15 C -3.344160 0.912512 0.888067 0
M  V30 16 C -3.062609 -0.035293 1.830750 0
M  V30 17 C -3.402015 -1.359017 1.647702 0
M  V30 18 N -3.085980 -2.292196 2.662063 0
M  V30 19 C -3.302362 -3.691691 2.729600 0
M  V30 20 O -3.853539 -4.241377 1.770423 0
M  V30 21 N -2.926110 -4.482585 3.820600 0
M  V30 22 C -3.173522 -5.881030 3.818676 0
M  V30 23 C -2.781792 -6.626879 4.923071 0
M  V30 24 N -2.977011 -7.954428 5.004115 0
M  V30 25 C -3.575414 -8.610119 3.983333 0
M  V30 26 C -3.777973 -10.027404 4.080506 0
M  V30 27 N -3.931345 -11.177148 4.176160 0
M  V30 28 C -3.961989 -7.865081 2.890328 0
M  V30 29 N -3.759469 -6.536666 2.824498 0
M  V30 30 C -4.033989 -1.624726 0.457457 0
M  V30 31 C -4.323005 -0.686894 -0.495821 0
M  V30 32 Cl -5.130423 -1.090585 -1.988743 0
M  V30 33 C 1.127907 3.029758 -2.270435 0
M  V30 34 C 2.415687 2.937496 -1.780859 0
M  V30 35 C 5.105384 2.885852 -0.595525 0
M  V30 36 C 5.975717 2.534734 0.593865 0
M  V30 37 H 3.955666 0.670009 2.476257 0
M  V30 38 H 3.551724 2.176356 1.540815 0
M  V30 39 H 4.633817 2.208913 3.030510 0
M  V30 40 H 6.292226 -0.391923 0.635422 0
M  V30 41 H 4.485491 -0.389582 0.845261 0
M  V30 42 H 4.732517 -0.377306 -1.398721 0
M  V30 43 H 6.189985 0.742172 -1.386149 0
M  V30 44 H 2.751735 -0.355527 -1.739655 0
M  V30 45 H 0.517203 -0.250267 -2.591498 0
M  V30 46 H -1.130244 0.992434 -3.775848 0
M  V30 47 H -1.083509 2.789649 -3.696222 0
M  V30 48 H -1.732219 2.688899 -1.420643 0
M  V30 49 H -3.526606 2.623213 -3.022552 0
M  V30 50 H -3.429566 0.857684 -3.035142 0
M  V30 51 H -5.249816 1.655436 -1.646972 0
M  V30 52 H -4.175597 2.712889 -0.695162 0
M  V30 53 H -3.043541 1.939003 1.105676 0
M  V30 54 H -2.555413 0.273426 2.748849 0
M  V30 55 H -2.608212 -1.926702 3.532355 0
M  V30 56 H -2.461793 -4.026971 4.631861 0
M  V30 57 H -2.297462 -6.089385 5.745325 0
M  V30 58 H -4.438061 -8.370784 2.071872 0
M  V30 59 H -4.333103 -2.633527 0.237160 0
M  V30 60 H 0.600864 3.937604 -2.447384 0
M  V30 61 H 2.852047 3.906554 -1.590447 0
M  V30 62 H 4.462454 3.742454 -0.398871 0
M  V30 63 H 5.837322 3.160371 -1.409898 0
M  V30 64 H 5.894454 3.403382 1.305097 0
M  V30 65 H 7.034334 2.412687 0.366050 0
M  V30 END ATOM
M  V30 BEGIN BOND
M  V30 1 1 1 2
M  V30 2 1 2 3
M  V30 3 1 3 4
M  V30 4 1 4 5
M  V30 5 1 5 6
M  V30 6 2 6 7
M  V30 7 1 7 8
M  V30 8 2 8 9
M  V30 9 1 9 10
M  V30 10 1 10 11
M  V30 11 1 11 12
M  V30 12 1 12 13
M  V30 13 1 13 14
M  V30 14 2 14 15
M  V30 15 1 15 16
M  V30 16 2 16 17
M  V30 17 1 17 18
M  V30 18 1 18 19
M  V30 19 2 19 20
M  V30 20 1 19 21
M  V30 21 1 21 22
M  V30 22 2 22 23
M  V30 23 1 23 24
M  V30 24 2 24 25
M  V30 25 1 25 26
M  V30 26 3 26 27
M  V30 27 1 25 28
M  V30 28 2 28 29
M  V30 29 1 17 30
M  V30 30 2 30 31
M  V30 31 1 31 32
M  V30 32 1 9 33
M  V30 33 2 33 34
M  V30 34 1 5 35
M  V30 35 1 35 36
M  V30 36 1 36 2
M  V30 37 1 34 6
M  V30 38 1 31 14
M  V30 39 1 29 22
M  V30 40 1 1 37
M  V30 41 1 1 38
M  V30 42 1 1 39
M  V30 43 1 3 40
M  V30 44 1 3 41
M  V30 45 1 4 42
M  V30 46 1 4 43
M  V30 47 1 7 44
M  V30 48 1 8 45
M  V30 49 1 10 46
M  V30 50 1 10 47
M  V30 51 1 11 48
M  V30 52 1 12 49
M  V30 53 1 12 50
M  V30 54 1 13 51
M  V30 55 1 13 52
M  V30 56 1 15 53
M  V30 57 1 16 54
M  V30 58 1 18 55
M  V30 59 1 21 56
M  V30 60 1 23 57
M  V30 61 1 28 58
M  V30 62 1 30 59
M  V30 63 1 33 60
M  V30 64 1 34 61
M  V30 65 1 35 62
M  V30 66 1 35 63
M  V30 67 1 36 64
M  V30 68 1 36 65
M  V30 END BOND
M  V30 END CTAB
M  END
>  <Dataset>  (631) 
ChEMBL_Kinases

>  <Ligand_Instance>  (631) 
nan

>  <PDB_ID>  (631) 
nan

>  <Standardized_SMILES>  (631) 
CN1CCN(c2ccc(CNCCc3ccc(NC(=O)Nc4cnc(C#N)cn4)cc3Cl)cc2)CC1

>  <Name>  (631) 
nan

>  <Pocket>  (631) 
nan

>  <ATP_Site>  (631) 
nan

>  <Peripheral>  (631) 
nan

>  <Num_H_Atoms_ProtBoundConf>  (631) 
nan

>  <Num_Resolved_Atoms>  (631) 
nan

>  <Num_Not_Resolved_Atoms>  (631) 
nan

$$$$
CHEMBL3691678
     RDKit          3D

  0  0  0  0  0  0  0  0  0  0999 V3000
M  V30 BEGIN CTAB
M  V30 COUNTS 77 82 0 0 0
M  V30 BEGIN ATOM
M  V30 1 C 3.692988 -2.964862 5.550007 0
M  V30 2 C 3.349625 -2.550524 4.152830 0
M  V30 3 C 1.895722 -2.174033 4.082722 0
M  V30 4 N 4.129083 -1.465127 3.644601 0
M  V30 5 C 5.526526 -1.766911 3.480600 0 CFG=2
M  V30 6 C 6.294350 -0.886914 4.413706 0
M  V30 7 C 5.371309 0.226529 4.786934 0
M  V30 8 C 4.006328 -0.215343 4.299843 0 CFG=1
M  V30 9 C 3.560358 0.796585 3.248207 0
M  V30 10 N 3.895064 0.312544 1.926902 0
M  V30 11 C 3.087290 1.036453 1.006744 0
M  V30 12 C 1.831959 0.404333 0.902257 0
M  V30 13 C 0.850386 0.935620 0.053566 0
M  V30 14 C 1.124773 2.094751 -0.687542 0
M  V30 15 N 0.142404 2.688447 -1.562296 0
M  V30 16 C -1.093528 1.987040 -1.523199 0
M  V30 17 N -1.830453 2.586247 -0.557966 0
M  V30 18 C -3.072972 2.159833 -0.243474 0
M  V30 19 C -3.585515 1.082249 -0.937984 0
M  V30 20 C -4.796835 0.382351 -0.886018 0
M  V30 21 C -4.677742 -0.598582 -1.847810 0
M  V30 22 C -5.802019 -1.502061 -2.020160 0
M  V30 23 O -5.561528 -2.750885 -2.098388 0
M  V30 24 N -7.206089 -1.296690 -2.128536 0
M  V30 25 C -8.029159 -2.477344 -2.291575 0
M  V30 26 C -8.046476 -0.086418 -2.111056 0
M  V30 27 N -3.495067 -0.557419 -2.484183 0
M  V30 28 C -3.073203 -1.464869 -3.536829 0
M  V30 29 C -3.135256 -0.864604 -4.906161 0
M  V30 30 C -1.893385 -1.297133 -5.636012 0
M  V30 31 C -1.307288 -2.391330 -4.760678 0
M  V30 32 C -1.666536 -1.973453 -3.350349 0
M  V30 33 C -2.846855 0.465892 -1.921162 0
M  V30 34 N -1.626314 0.940813 -2.178671 0
M  V30 35 N 2.339708 2.650418 -0.544225 0
M  V30 36 C 3.297692 2.168163 0.257047 0
M  V30 37 C 4.761967 -0.650152 1.402474 0
M  V30 38 O 4.660190 -0.933534 0.156420 0
M  V30 39 C 5.820013 -1.445239 2.020681 0
M  V30 40 H 2.787607 -3.063308 6.176740 0
M  V30 41 H 4.374054 -2.241320 6.038306 0
M  V30 42 H 4.145092 -3.978022 5.497538 0
M  V30 43 H 3.469694 -3.401674 3.427872 0
M  V30 44 H 1.246525 -2.844834 4.683870 0
M  V30 45 H 1.717735 -1.102340 4.293509 0
M  V30 46 H 1.555985 -2.313453 3.007450 0
M  V30 47 H 5.748979 -2.830680 3.641711 0
M  V30 48 H 6.590037 -1.403716 5.351615 0
M  V30 49 H 7.225493 -0.465518 3.980031 0
M  V30 50 H 5.706606 1.174623 4.321111 0
M  V30 51 H 5.338208 0.449217 5.885446 0
M  V30 52 H 3.302763 -0.221448 5.165216 0
M  V30 53 H 4.100294 1.740280 3.433412 0
M  V30 54 H 2.453702 0.959466 3.323041 0
M  V30 55 H 1.506361 -0.504692 1.430963 0
M  V30 56 H -0.118646 0.454355 -0.034780 0
M  V30 57 H 0.442860 3.532046 -2.095156 0
M  V30 58 H -3.735774 2.579949 0.513986 0
M  V30 59 H -5.576974 0.642415 -0.204558 0
M  V30 60 H -7.413518 -3.388759 -2.117266 0
M  V30 61 H -8.848074 -2.419073 -1.529981 0
M  V30 62 H -8.507286 -2.535331 -3.275797 0
M  V30 63 H -8.393255 0.158594 -3.136997 0
M  V30 64 H -7.471568 0.746642 -1.675034 0
M  V30 65 H -8.911197 -0.253203 -1.432276 0
M  V30 66 H -3.724309 -2.377065 -3.511784 0
M  V30 67 H -3.205323 0.229745 -4.815856 0
M  V30 68 H -4.063458 -1.181017 -5.431199 0
M  V30 69 H -2.120377 -1.643566 -6.654898 0
M  V30 70 H -1.128309 -0.485795 -5.657198 0
M  V30 71 H -1.788414 -3.350038 -4.974779 0
M  V30 72 H -0.224880 -2.505120 -4.910940 0
M  V30 73 H -1.617366 -2.807623 -2.639113 0
M  V30 74 H -0.967141 -1.148730 -3.089764 0
M  V30 75 H 4.287818 2.553111 0.430243 0
M  V30 76 H 6.783905 -0.864363 2.016072 0
M  V30 77 H 6.002371 -2.407587 1.503651 0
M  V30 END ATOM
M  V30 BEGIN BOND
M  V30 1 1 1 2
M  V30 2 1 2 3
M  V30 3 1 2 4
M  V30 4 1 4 5
M  V30 5 1 5 6
M  V30 6 1 6 7
M  V30 7 1 7 8
M  V30 8 1 8 9
M  V30 9 1 9 10
M  V30 10 1 10 11
M  V30 11 2 11 12
M  V30 12 1 12 13
M  V30 13 2 13 14
M  V30 14 1 14 15
M  V30 15 1 15 16
M  V30 16 2 16 17
M  V30 17 1 17 18
M  V30 18 2 18 19
M  V30 19 1 19 20
M  V30 20 2 20 21
M  V30 21 1 21 22
M  V30 22 2 22 23
M  V30 23 1 22 24
M  V30 24 1 24 25
M  V30 25 1 24 26
M  V30 26 1 21 27
M  V30 27 1 27 28
M  V30 28 1 28 29
M  V30 29 1 29 30
M  V30 30 1 30 31
M  V30 31 1 31 32
M  V30 32 1 27 33
M  V30 33 2 33 34
M  V30 34 1 14 35
M  V30 35 2 35 36
M  V30 36 1 10 37
M  V30 37 2 37 38
M  V30 38 1 37 39
M  V30 39 1 8 4
M  V30 40 1 36 11
M  V30 41 1 39 5
M  V30 42 1 34 16
M  V30 43 1 33 19
M  V30 44 1 32 28
M  V30 45 1 1 40
M  V30 46 1 1 41
M  V30 47 1 1 42
M  V30 48 1 2 43
M  V30 49 1 3 44
M  V30 50 1 3 45
M  V30 51 1 3 46
M  V30 52 1 5 47 CFG=1
M  V30 53 1 6 48
M  V30 54 1 6 49
M  V30 55 1 7 50
M  V30 56 1 7 51
M  V30 57 1 8 52 CFG=1
M  V30 58 1 9 53
M  V30 59 1 9 54
M  V30 60 1 12 55
M  V30 61 1 13 56
M  V30 62 1 15 57
M  V30 63 1 18 58
M  V30 64 1 20 59
M  V30 65 1 25 60
M  V30 66 1 25 61
M  V30 67 1 25 62
M  V30 68 1 26 63
M  V30 69 1 26 64
M  V30 70 1 26 65
M  V30 71 1 28 66
M  V30 72 1 29 67
M  V30 73 1 29 68
M  V30 74 1 30 69
M  V30 75 1 30 70
M  V30 76 1 31 71
M  V30 77 1 31 72
M  V30 78 1 32 73
M  V30 79 1 32 74
M  V30 80 1 36 75
M  V30 81 1 39 76
M  V30 82 1 39 77
M  V30 END BOND
M  V30 END CTAB
M  END
>  <Dataset>  (632) 
ChEMBL_Kinases

>  <Ligand_Instance>  (632) 
nan

>  <PDB_ID>  (632) 
nan

>  <Standardized_SMILES>  (632) 
CC(C)N1[C@@H]2CC[C@H]1CN(c1ccc(Nc3ncc4cc(C(=O)N(C)C)n(C5CCCC5)c4n3)nc1)C(=O)C2

>  <Name>  (632) 
nan

>  <Pocket>  (632) 
nan

>  <ATP_Site>  (632) 
nan

>  <Peripheral>  (632) 
nan

>  <Num_H_Atoms_ProtBoundConf>  (632) 
nan

>  <Num_Resolved_Atoms>  (632) 
nan

>  <Num_Not_Resolved_Atoms>  (632) 
nan

$$$$
CHEMBL3691677
     RDKit          3D

  0  0  0  0  0  0  0  0  0  0999 V3000
M  V30 BEGIN CTAB
M  V30 COUNTS 71 76 0 0 0
M  V30 BEGIN ATOM
M  V30 1 C 1.660823 -2.900511 3.602839 0
M  V30 2 N 1.521420 -2.507066 5.016109 0
M  V30 3 C 2.232488 -3.301758 5.994980 0
M  V30 4 C 0.764687 -1.414717 5.588098 0
M  V30 5 O 0.650440 -1.089383 6.796058 0
M  V30 6 C 0.096947 -0.682575 4.487131 0
M  V30 7 C -1.262380 -0.941511 4.273392 0
M  V30 8 C -1.712775 -0.186021 3.213875 0
M  V30 9 C -2.939613 -0.044298 2.576376 0
M  V30 10 N -3.009837 0.819995 1.528859 0
M  V30 11 C -1.928182 1.511803 1.125721 0
M  V30 12 N -1.868217 2.443586 0.051171 0
M  V30 13 C -1.732205 1.887720 -1.274750 0
M  V30 14 C -1.630107 2.711935 -2.384399 0
M  V30 15 C -1.516006 2.166923 -3.645173 0
M  V30 16 C -1.501420 0.798213 -3.823852 0
M  V30 17 N -1.386971 0.048482 -5.036958 0
M  V30 18 C -0.027247 -0.306345 -5.423466 0
M  V30 19 C 0.110098 -1.797541 -5.589250 0 CFG=2
M  V30 20 C 0.325247 -2.228041 -7.002428 0
M  V30 21 C -0.892361 -3.016649 -7.354038 0
M  V30 22 C -1.886270 -2.601994 -6.310603 0 CFG=2
M  V30 23 C -2.691978 -1.406544 -6.707723 0
M  V30 24 C -2.597308 -0.280882 -5.745626 0
M  V30 25 O -3.561816 0.477008 -5.470469 0
M  V30 26 N -1.108249 -2.410666 -5.126987 0
M  V30 27 C -0.831313 -3.600479 -4.385349 0
M  V30 28 C -1.605190 -0.030167 -2.692242 0
M  V30 29 N -1.712951 0.571091 -1.499066 0
M  V30 30 N -0.745079 1.363705 1.754724 0
M  V30 31 C -0.582906 0.533780 2.798133 0
M  V30 32 N 0.470624 0.222347 3.567546 0
M  V30 33 C 1.819405 0.682643 3.564858 0
M  V30 34 C 2.186971 1.554403 2.395469 0
M  V30 35 C 3.429567 2.312554 2.880285 0
M  V30 36 C 3.171826 2.544806 4.365115 0
M  V30 37 C 2.034806 1.640532 4.747055 0
M  V30 38 H 2.641878 -2.567296 3.215544 0
M  V30 39 H 1.624330 -4.002539 3.519142 0
M  V30 40 H 0.807967 -2.499735 3.019705 0
M  V30 41 H 2.658975 -4.209689 5.527999 0
M  V30 42 H 3.105217 -2.764828 6.445533 0
M  V30 43 H 1.579873 -3.660653 6.828760 0
M  V30 44 H -1.942256 -1.603456 4.793003 0
M  V30 45 H -3.803314 -0.598357 2.900312 0
M  V30 46 H -1.912410 3.480619 0.133801 0
M  V30 47 H -1.635269 3.788589 -2.295720 0
M  V30 48 H -1.430095 2.720978 -4.569688 0
M  V30 49 H 0.716455 0.070916 -4.717348 0
M  V30 50 H 0.180715 0.143076 -6.415515 0
M  V30 51 H 0.973364 -2.131957 -4.982016 0
M  V30 52 H 1.203021 -2.891809 -7.144506 0
M  V30 53 H 0.434828 -1.377120 -7.707654 0
M  V30 54 H -1.242340 -2.857520 -8.392004 0
M  V30 55 H -0.730358 -4.121309 -7.249938 0
M  V30 56 H -2.586174 -3.446028 -6.118555 0
M  V30 57 H -2.253173 -1.027674 -7.679793 0
M  V30 58 H -3.729170 -1.705551 -6.952349 0
M  V30 59 H -0.176190 -4.262735 -4.986983 0
M  V30 60 H -1.761913 -4.125633 -4.083020 0
M  V30 61 H -0.240213 -3.303789 -3.485153 0
M  V30 62 H -1.609043 -1.107063 -2.664033 0
M  V30 63 H 2.546604 -0.175868 3.651324 0
M  V30 64 H 2.442880 0.869730 1.545508 0
M  V30 65 H 1.392476 2.240544 2.102168 0
M  V30 66 H 4.345444 1.714884 2.785285 0
M  V30 67 H 3.487709 3.294908 2.361968 0
M  V30 68 H 4.108960 2.352339 4.958438 0
M  V30 69 H 2.939559 3.621171 4.540756 0
M  V30 70 H 2.214089 1.078316 5.694474 0
M  V30 71 H 1.087182 2.230612 4.831194 0
M  V30 END ATOM
M  V30 BEGIN BOND
M  V30 1 1 1 2
M  V30 2 1 2 3
M  V30 3 1 2 4
M  V30 4 2 4 5
M  V30 5 1 4 6
M  V30 6 2 6 7
M  V30 7 1 7 8
M  V30 8 2 8 9
M  V30 9 1 9 10
M  V30 10 2 10 11
M  V30 11 1 11 12
M  V30 12 1 12 13
M  V30 13 2 13 14
M  V30 14 1 14 15
M  V30 15 2 15 16
M  V30 16 1 16 17
M  V30 17 1 17 18
M  V30 18 1 18 19
M  V30 19 1 19 20
M  V30 20 1 20 21
M  V30 21 1 21 22
M  V30 22 1 22 23
M  V30 23 1 23 24
M  V30 24 2 24 25
M  V30 25 1 22 26
M  V30 26 1 26 27
M  V30 27 1 16 28
M  V30 28 2 28 29
M  V30 29 1 11 30
M  V30 30 2 30 31
M  V30 31 1 31 32
M  V30 32 1 32 33
M  V30 33 1 33 34
M  V30 34 1 34 35
M  V30 35 1 35 36
M  V30 36 1 36 37
M  V30 37 1 32 6
M  V30 38 1 37 33
M  V30 39 1 31 8
M  V30 40 1 29 13
M  V30 41 1 24 17
M  V30 42 1 26 19
M  V30 43 1 1 38
M  V30 44 1 1 39
M  V30 45 1 1 40
M  V30 46 1 3 41
M  V30 47 1 3 42
M  V30 48 1 3 43
M  V30 49 1 7 44
M  V30 50 1 9 45
M  V30 51 1 12 46
M  V30 52 1 14 47
M  V30 53 1 15 48
M  V30 54 1 18 49
M  V30 55 1 18 50
M  V30 56 1 19 51 CFG=1
M  V30 57 1 20 52
M  V30 58 1 20 53
M  V30 59 1 21 54
M  V30 60 1 21 55
M  V30 61 1 22 56 CFG=1
M  V30 62 1 23 57
M  V30 63 1 23 58
M  V30 64 1 27 59
M  V30 65 1 27 60
M  V30 66 1 27 61
M  V30 67 1 28 62
M  V30 68 1 33 63
M  V30 69 1 34 64
M  V30 70 1 34 65
M  V30 71 1 35 66
M  V30 72 1 35 67
M  V30 73 1 36 68
M  V30 74 1 36 69
M  V30 75 1 37 70
M  V30 76 1 37 71
M  V30 END BOND
M  V30 END CTAB
M  END
>  <Dataset>  (633) 
ChEMBL_Kinases

>  <Ligand_Instance>  (633) 
nan

>  <PDB_ID>  (633) 
nan

>  <Standardized_SMILES>  (633) 
CN(C)C(=O)c1cc2cnc(Nc3ccc(N4C[C@@H]5CC[C@H](CC4=O)N5C)cn3)nc2n1C1CCCC1

>  <Name>  (633) 
nan

>  <Pocket>  (633) 
nan

>  <ATP_Site>  (633) 
nan

>  <Peripheral>  (633) 
nan

>  <Num_H_Atoms_ProtBoundConf>  (633) 
nan

>  <Num_Resolved_Atoms>  (633) 
nan

>  <Num_Not_Resolved_Atoms>  (633) 
nan

$$$$
CHEMBL3691676
     RDKit          3D

  0  0  0  0  0  0  0  0  0  0999 V3000
M  V30 BEGIN CTAB
M  V30 COUNTS 71 76 0 0 0
M  V30 BEGIN ATOM
M  V30 1 C 6.971446 -1.015806 1.430193 0
M  V30 2 N 5.633281 -0.640405 1.017512 0
M  V30 3 C 4.416202 -1.008958 1.758019 0
M  V30 4 C 5.515813 0.146887 -0.197120 0
M  V30 5 O 6.741694 0.072008 -0.203078 0
M  V30 6 C 4.174931 0.488798 -0.596869 0
M  V30 7 C 3.570359 -0.668716 -1.116037 0
M  V30 8 C 2.256630 -0.290559 -1.452524 0
M  V30 9 C 1.198562 -0.996771 -1.975732 0
M  V30 10 N 0.074104 -0.222266 -2.110535 0
M  V30 11 C 0.018229 1.076883 -1.769134 0
M  V30 12 N -1.356762 1.352827 -2.087939 0
M  V30 13 C -2.289850 0.687675 -1.186297 0
M  V30 14 C -3.670504 0.696093 -1.319464 0
M  V30 15 C -4.445073 -0.003246 -0.421611 0
M  V30 16 C -3.942293 -0.732845 0.626956 0
M  V30 17 N -4.651458 -1.535977 1.544100 0
M  V30 18 C -6.048615 -1.941009 1.338439 0
M  V30 19 C -6.193018 -3.429417 1.235749 0 CFG=1
M  V30 20 C -5.162873 -3.956098 0.257364 0
M  V30 21 C -4.027751 -4.357035 1.134303 0
M  V30 22 C -4.597920 -4.416271 2.518229 0 CFG=1
M  V30 23 C -3.968166 -3.353433 3.388163 0
M  V30 24 C -3.967838 -2.028304 2.708051 0
M  V30 25 O -3.209928 -1.154762 3.267677 0
M  V30 26 N -5.997562 -4.158170 2.446705 0
M  V30 27 C -6.720391 -5.439038 2.447651 0
M  V30 28 C -2.570563 -0.715634 0.728357 0
M  V30 29 N -1.807983 -0.041204 -0.135612 0
M  V30 30 N 1.082981 1.718596 -1.264134 0
M  V30 31 C 2.256037 1.036264 -1.091387 0
M  V30 32 N 3.382658 1.533637 -0.581447 0
M  V30 33 C 3.713347 2.845301 -0.140226 0
M  V30 34 C 5.037485 3.243135 -0.815841 0
M  V30 35 C 4.566539 3.205768 -2.282212 0
M  V30 36 C 3.206975 3.902286 -2.207879 0
M  V30 37 C 2.824260 3.907394 -0.748295 0
M  V30 38 H 7.423822 -1.704003 0.668745 0
M  V30 39 H 6.900580 -1.642912 2.358548 0
M  V30 40 H 7.648452 -0.179674 1.593928 0
M  V30 41 H 4.027559 -1.960951 1.378665 0
M  V30 42 H 4.541890 -0.928129 2.841991 0
M  V30 43 H 3.651213 -0.224934 1.477971 0
M  V30 44 H 3.877259 -1.712200 -1.297094 0
M  V30 45 H 1.326353 -2.051840 -2.227453 0
M  V30 46 H -1.736043 1.940359 -2.842772 0
M  V30 47 H -4.016620 1.277709 -2.150355 0
M  V30 48 H -5.509538 0.021120 -0.544452 0
M  V30 49 H -6.754085 -1.452179 2.026822 0
M  V30 50 H -6.327390 -1.553541 0.313931 0
M  V30 51 H -7.198146 -3.651200 0.832562 0
M  V30 52 H -5.535167 -4.871770 -0.280512 0
M  V30 53 H -4.827560 -3.237640 -0.488687 0
M  V30 54 H -3.615661 -5.333940 0.781991 0
M  V30 55 H -3.201064 -3.607997 1.055992 0
M  V30 56 H -4.355513 -5.429322 2.924843 0
M  V30 57 H -4.543225 -3.289538 4.328900 0
M  V30 58 H -2.966383 -3.705542 3.686076 0
M  V30 59 H -7.737649 -5.219972 2.077765 0
M  V30 60 H -6.169770 -6.129989 1.800319 0
M  V30 61 H -6.716073 -5.863781 3.457093 0
M  V30 62 H -1.927132 -1.199446 1.442247 0
M  V30 63 H 3.775189 2.990364 0.936278 0
M  V30 64 H 5.338129 4.279473 -0.542268 0
M  V30 65 H 5.828523 2.500421 -0.700872 0
M  V30 66 H 5.252081 3.729773 -2.956986 0
M  V30 67 H 4.388147 2.154074 -2.555351 0
M  V30 68 H 2.455084 3.474383 -2.864809 0
M  V30 69 H 3.403742 4.939677 -2.595930 0
M  V30 70 H 1.769783 3.824344 -0.529932 0
M  V30 71 H 3.153499 4.881741 -0.281690 0
M  V30 END ATOM
M  V30 BEGIN BOND
M  V30 1 1 1 2
M  V30 2 1 2 3
M  V30 3 1 2 4
M  V30 4 2 4 5
M  V30 5 1 4 6
M  V30 6 2 6 7
M  V30 7 1 7 8
M  V30 8 2 8 9
M  V30 9 1 9 10
M  V30 10 2 10 11
M  V30 11 1 11 12
M  V30 12 1 12 13
M  V30 13 2 13 14
M  V30 14 1 14 15
M  V30 15 2 15 16
M  V30 16 1 16 17
M  V30 17 1 17 18
M  V30 18 1 18 19
M  V30 19 1 19 20
M  V30 20 1 20 21
M  V30 21 1 21 22
M  V30 22 1 22 23
M  V30 23 1 23 24
M  V30 24 2 24 25
M  V30 25 1 22 26
M  V30 26 1 26 27
M  V30 27 1 16 28
M  V30 28 2 28 29
M  V30 29 1 11 30
M  V30 30 2 30 31
M  V30 31 1 31 32
M  V30 32 1 32 33
M  V30 33 1 33 34
M  V30 34 1 34 35
M  V30 35 1 35 36
M  V30 36 1 36 37
M  V30 37 1 32 6
M  V30 38 1 37 33
M  V30 39 1 31 8
M  V30 40 1 29 13
M  V30 41 1 24 17
M  V30 42 1 26 19
M  V30 43 1 1 38
M  V30 44 1 1 39
M  V30 45 1 1 40
M  V30 46 1 3 41
M  V30 47 1 3 42
M  V30 48 1 3 43
M  V30 49 1 7 44
M  V30 50 1 9 45
M  V30 51 1 12 46
M  V30 52 1 14 47
M  V30 53 1 15 48
M  V30 54 1 18 49
M  V30 55 1 18 50
M  V30 56 1 19 51 CFG=3
M  V30 57 1 20 52
M  V30 58 1 20 53
M  V30 59 1 21 54
M  V30 60 1 21 55
M  V30 61 1 22 56 CFG=1
M  V30 62 1 23 57
M  V30 63 1 23 58
M  V30 64 1 27 59
M  V30 65 1 27 60
M  V30 66 1 27 61
M  V30 67 1 28 62
M  V30 68 1 33 63
M  V30 69 1 34 64
M  V30 70 1 34 65
M  V30 71 1 35 66
M  V30 72 1 35 67
M  V30 73 1 36 68
M  V30 74 1 36 69
M  V30 75 1 37 70
M  V30 76 1 37 71
M  V30 END BOND
M  V30 END CTAB
M  END
>  <Dataset>  (634) 
ChEMBL_Kinases

>  <Ligand_Instance>  (634) 
nan

>  <PDB_ID>  (634) 
nan

>  <Standardized_SMILES>  (634) 
CN(C)C(=O)c1cc2cnc(Nc3ccc(N4C[C@H]5CC[C@@H](CC4=O)N5C)cn3)nc2n1C1CCCC1

>  <Name>  (634) 
nan

>  <Pocket>  (634) 
nan

>  <ATP_Site>  (634) 
nan

>  <Peripheral>  (634) 
nan

>  <Num_H_Atoms_ProtBoundConf>  (634) 
nan

>  <Num_Resolved_Atoms>  (634) 
nan

>  <Num_Not_Resolved_Atoms>  (634) 
nan

$$$$
CHEMBL3691675
     RDKit          3D

  0  0  0  0  0  0  0  0  0  0999 V3000
M  V30 BEGIN CTAB
M  V30 COUNTS 73 78 0 0 0
M  V30 BEGIN ATOM
M  V30 1 C 5.672536 -4.097018 3.955018 0
M  V30 2 C 4.461867 -3.578650 3.275499 0
M  V30 3 O 3.760159 -4.543530 2.866314 0
M  V30 4 N 4.170025 -2.170132 3.127668 0
M  V30 5 C 4.748255 -0.880440 3.475283 0 CFG=2
M  V30 6 C 3.574206 -0.063808 3.945453 0
M  V30 7 C 2.480215 -0.503680 3.011463 0
M  V30 8 C 2.946829 -1.810235 2.427795 0 CFG=1
M  V30 9 C 3.194232 -1.696482 0.929399 0
M  V30 10 N 3.544396 -0.348736 0.567272 0
M  V30 11 C 2.809777 0.453496 -0.327538 0
M  V30 12 C 2.973912 1.725734 -0.789115 0
M  V30 13 C 2.108087 2.323318 -1.672192 0
M  V30 14 C 0.996725 1.689670 -2.169265 0
M  V30 15 N 0.065278 2.310418 -3.079571 0
M  V30 16 C -1.014036 1.430144 -3.448573 0
M  V30 17 N -1.235416 0.812133 -4.635107 0
M  V30 18 C -2.290066 -0.009837 -4.784359 0
M  V30 19 C -3.112164 -0.187848 -3.697475 0
M  V30 20 C -4.257948 -0.939870 -3.481310 0
M  V30 21 C -4.693136 -0.757220 -2.179010 0
M  V30 22 C -5.904669 -1.455492 -1.712062 0
M  V30 23 O -7.085069 -1.076962 -1.493346 0
M  V30 24 N -5.697098 -2.848479 -1.454197 0
M  V30 25 C -4.437415 -3.573515 -1.614932 0
M  V30 26 C -6.717676 -3.779380 -0.984955 0
M  V30 27 N -3.841271 0.095524 -1.574449 0
M  V30 28 C -4.054235 0.462741 -0.185084 0
M  V30 29 C -3.593944 -0.573587 0.766780 0
M  V30 30 C -2.466222 0.008401 1.546115 0
M  V30 31 C -2.160512 1.354899 0.937019 0
M  V30 32 C -3.432052 1.708342 0.268712 0
M  V30 33 C -2.917352 0.421312 -2.484243 0
M  V30 34 N -1.845831 1.239119 -2.380306 0
M  V30 35 N 0.837995 0.418831 -1.704058 0
M  V30 36 C 1.686612 -0.155573 -0.843638 0
M  V30 37 C 4.729497 0.162553 1.199813 0
M  V30 38 O 5.244727 1.188397 0.694083 0
M  V30 39 C 5.552530 -0.250678 2.387503 0
M  V30 40 H 6.315688 -3.332551 4.385944 0
M  V30 41 H 5.374610 -4.787032 4.798727 0
M  V30 42 H 6.204345 -4.775721 3.244262 0
M  V30 43 H 5.423705 -0.966824 4.355976 0
M  V30 44 H 3.806398 0.998939 3.904423 0
M  V30 45 H 3.340032 -0.422955 4.971251 0
M  V30 46 H 2.347058 0.297261 2.255509 0
M  V30 47 H 1.526146 -0.578817 3.570093 0
M  V30 48 H 2.125195 -2.539413 2.565470 0
M  V30 49 H 4.051220 -2.366552 0.662985 0
M  V30 50 H 2.334625 -2.130742 0.403229 0
M  V30 51 H 3.806440 2.283344 -0.445766 0
M  V30 52 H 2.309919 3.329341 -1.991833 0
M  V30 53 H 0.279035 3.286751 -3.352116 0
M  V30 54 H -2.455443 -0.494610 -5.730918 0
M  V30 55 H -4.702260 -1.566579 -4.267193 0
M  V30 56 H -4.652268 -4.385618 -2.350393 0
M  V30 57 H -4.130377 -4.025284 -0.661372 0
M  V30 58 H -3.666665 -2.885519 -2.051228 0
M  V30 59 H -6.517630 -4.061993 0.075868 0
M  V30 60 H -7.710354 -3.306746 -1.083750 0
M  V30 61 H -6.743246 -4.721621 -1.559869 0
M  V30 62 H -5.182417 0.591354 -0.015922 0
M  V30 63 H -4.414181 -0.783777 1.504409 0
M  V30 64 H -3.343113 -1.546650 0.293877 0
M  V30 65 H -1.603944 -0.692494 1.453919 0
M  V30 66 H -2.673366 0.151239 2.627324 0
M  V30 67 H -1.274970 1.229922 0.316713 0
M  V30 68 H -1.864555 2.087120 1.734992 0
M  V30 69 H -3.342763 2.505927 -0.499703 0
M  V30 70 H -4.087764 2.161020 1.081528 0
M  V30 71 H 1.246982 -1.132536 -0.707318 0
M  V30 72 H 6.075857 0.610239 2.805378 0
M  V30 73 H 6.237049 -1.037928 1.982233 0
M  V30 END ATOM
M  V30 BEGIN BOND
M  V30 1 1 1 2
M  V30 2 2 2 3
M  V30 3 1 2 4
M  V30 4 1 4 5
M  V30 5 1 5 6
M  V30 6 1 6 7
M  V30 7 1 7 8
M  V30 8 1 8 9
M  V30 9 1 9 10
M  V30 10 1 10 11
M  V30 11 2 11 12
M  V30 12 1 12 13
M  V30 13 2 13 14
M  V30 14 1 14 15
M  V30 15 1 15 16
M  V30 16 2 16 17
M  V30 17 1 17 18
M  V30 18 2 18 19
M  V30 19 1 19 20
M  V30 20 2 20 21
M  V30 21 1 21 22
M  V30 22 2 22 23
M  V30 23 1 22 24
M  V30 24 1 24 25
M  V30 25 1 24 26
M  V30 26 1 21 27
M  V30 27 1 27 28
M  V30 28 1 28 29
M  V30 29 1 29 30
M  V30 30 1 30 31
M  V30 31 1 31 32
M  V30 32 1 27 33
M  V30 33 2 33 34
M  V30 34 1 14 35
M  V30 35 2 35 36
M  V30 36 1 10 37
M  V30 37 2 37 38
M  V30 38 1 37 39
M  V30 39 1 8 4
M  V30 40 1 36 11
M  V30 41 1 39 5
M  V30 42 1 34 16
M  V30 43 1 33 19
M  V30 44 1 32 28
M  V30 45 1 1 40
M  V30 46 1 1 41
M  V30 47 1 1 42
M  V30 48 1 5 43 CFG=1
M  V30 49 1 6 44
M  V30 50 1 6 45
M  V30 51 1 7 46
M  V30 52 1 7 47
M  V30 53 1 8 48 CFG=3
M  V30 54 1 9 49
M  V30 55 1 9 50
M  V30 56 1 12 51
M  V30 57 1 13 52
M  V30 58 1 15 53
M  V30 59 1 18 54
M  V30 60 1 20 55
M  V30 61 1 25 56
M  V30 62 1 25 57
M  V30 63 1 25 58
M  V30 64 1 26 59
M  V30 65 1 26 60
M  V30 66 1 26 61
M  V30 67 1 28 62
M  V30 68 1 29 63
M  V30 69 1 29 64
M  V30 70 1 30 65
M  V30 71 1 30 66
M  V30 72 1 31 67
M  V30 73 1 31 68
M  V30 74 1 32 69
M  V30 75 1 32 70
M  V30 76 1 36 71
M  V30 77 1 39 72
M  V30 78 1 39 73
M  V30 END BOND
M  V30 END CTAB
M  END
>  <Dataset>  (635) 
ChEMBL_Kinases

>  <Ligand_Instance>  (635) 
nan

>  <PDB_ID>  (635) 
nan

>  <Standardized_SMILES>  (635) 
CC(=O)N1[C@@H]2CC[C@H]1CN(c1ccc(Nc3ncc4cc(C(=O)N(C)C)n(C5CCCC5)c4n3)nc1)C(=O)C2

>  <Name>  (635) 
nan

>  <Pocket>  (635) 
nan

>  <ATP_Site>  (635) 
nan

>  <Peripheral>  (635) 
nan

>  <Num_H_Atoms_ProtBoundConf>  (635) 
nan

>  <Num_Resolved_Atoms>  (635) 
nan

>  <Num_Not_Resolved_Atoms>  (635) 
nan

$$$$
CHEMBL3691674
     RDKit          3D

  0  0  0  0  0  0  0  0  0  0999 V3000
M  V30 BEGIN CTAB
M  V30 COUNTS 80 85 0 0 0
M  V30 BEGIN ATOM
M  V30 1 C 0.316769 -6.642509 2.406419 0
M  V30 2 C -1.153991 -6.582493 2.304155 0
M  V30 3 O -1.707716 -7.528080 2.942654 0
M  V30 4 N -1.858350 -5.563840 1.563552 0
M  V30 5 C -3.297048 -5.711877 1.607492 0
M  V30 6 C -4.011217 -4.671804 0.840547 0
M  V30 7 O -5.281089 -4.818079 0.886118 0
M  V30 8 N -3.792934 -3.523632 0.038932 0
M  V30 9 C -4.963475 -2.864874 -0.499288 0 CFG=2
M  V30 10 C -4.490449 -2.414087 -1.873236 0
M  V30 11 C -3.025879 -2.097450 -1.710820 0
M  V30 12 C -2.658193 -2.783167 -0.424338 0 CFG=1
M  V30 13 C -2.157368 -1.737396 0.558022 0
M  V30 14 N -3.025247 -0.596338 0.617760 0
M  V30 15 C -2.580854 0.738786 0.507717 0
M  V30 16 C -3.363613 1.851629 0.332618 0
M  V30 17 C -2.850349 3.130226 0.263693 0
M  V30 18 C -1.500388 3.383216 0.366540 0
M  V30 19 N -0.901832 4.666232 0.297648 0
M  V30 20 C 0.527096 4.807371 0.444117 0
M  V30 21 N 1.090355 6.048791 0.354892 0
M  V30 22 C 2.410382 6.221984 0.497731 0
M  V30 23 C 3.164337 5.092189 0.737556 0
M  V30 24 C 4.532784 5.010883 0.924105 0
M  V30 25 C 4.756331 3.644383 1.130815 0
M  V30 26 C 6.073960 3.097368 1.378707 0
M  V30 27 O 6.564287 3.131883 2.538496 0
M  V30 28 N 7.123240 2.450847 0.631635 0
M  V30 29 C 8.164430 2.196373 1.637226 0
M  V30 30 C 7.390487 2.021882 -0.746110 0
M  V30 31 N 3.597407 2.942053 1.072901 0
M  V30 32 C 3.547683 1.537442 1.250847 0
M  V30 33 C 2.617852 1.149406 2.381723 0
M  V30 34 C 2.206793 -0.282448 2.086328 0
M  V30 35 C 2.422161 -0.498332 0.617408 0
M  V30 36 C 2.956652 0.798884 0.044236 0
M  V30 37 C 2.613872 3.809498 0.833398 0
M  V30 38 N 1.278112 3.691399 0.681267 0
M  V30 39 N -0.718813 2.301154 0.538763 0
M  V30 40 C -1.243238 1.061230 0.603303 0
M  V30 41 C -4.419148 -0.807672 0.768364 0
M  V30 42 O -5.045004 0.021312 1.514045 0
M  V30 43 C -5.479382 -1.733939 0.321751 0
M  V30 44 H 0.663510 -7.689332 2.190439 0
M  V30 45 H 0.783574 -6.000381 1.622154 0
M  V30 46 H 0.678515 -6.290793 3.381459 0
M  V30 47 H -1.202842 -4.902641 1.129213 0
M  V30 48 H -3.644332 -5.602432 2.677605 0
M  V30 49 H -3.592531 -6.704054 1.209991 0
M  V30 50 H -5.818517 -3.545465 -0.699706 0
M  V30 51 H -5.103485 -1.604870 -2.274076 0
M  V30 52 H -4.544194 -3.269757 -2.574019 0
M  V30 53 H -2.393553 -2.436949 -2.553435 0
M  V30 54 H -2.840229 -0.994847 -1.636354 0
M  V30 55 H -1.774319 -3.435540 -0.656975 0
M  V30 56 H -1.185158 -1.396465 0.107817 0
M  V30 57 H -1.916202 -2.202740 1.514013 0
M  V30 58 H -4.430731 1.756773 0.230880 0
M  V30 59 H -3.515440 3.973044 0.123312 0
M  V30 60 H -1.465862 5.529677 0.143584 0
M  V30 61 H 2.846780 7.208572 0.425320 0
M  V30 62 H 5.296619 5.779512 0.921529 0
M  V30 63 H 9.040279 1.724000 1.195439 0
M  V30 64 H 8.516010 3.169184 2.087354 0
M  V30 65 H 7.788199 1.577524 2.461756 0
M  V30 66 H 8.432917 2.295649 -0.938006 0
M  V30 67 H 6.737343 2.594069 -1.443470 0
M  V30 68 H 7.168691 0.940362 -0.852461 0
M  V30 69 H 4.541907 1.073417 1.395253 0
M  V30 70 H 3.110237 1.225282 3.367277 0
M  V30 71 H 1.738263 1.828070 2.364864 0
M  V30 72 H 1.153579 -0.415708 2.318668 0
M  V30 73 H 2.786987 -0.999030 2.700598 0
M  V30 74 H 1.516724 -0.781226 0.054250 0
M  V30 75 H 3.127724 -1.346964 0.498165 0
M  V30 76 H 2.127194 1.407352 -0.365464 0
M  V30 77 H 3.735663 0.530955 -0.703350 0
M  V30 78 H -0.480491 0.316518 0.747744 0
M  V30 79 H -6.165156 -1.148060 -0.342253 0
M  V30 80 H -6.031146 -2.143628 1.201785 0
M  V30 END ATOM
M  V30 BEGIN BOND
M  V30 1 1 1 2
M  V30 2 2 2 3
M  V30 3 1 2 4
M  V30 4 1 4 5
M  V30 5 1 5 6
M  V30 6 2 6 7
M  V30 7 1 6 8
M  V30 8 1 8 9
M  V30 9 1 9 10
M  V30 10 1 10 11
M  V30 11 1 11 12
M  V30 12 1 12 13
M  V30 13 1 13 14
M  V30 14 1 14 15
M  V30 15 2 15 16
M  V30 16 1 16 17
M  V30 17 2 17 18
M  V30 18 1 18 19
M  V30 19 1 19 20
M  V30 20 2 20 21
M  V30 21 1 21 22
M  V30 22 2 22 23
M  V30 23 1 23 24
M  V30 24 2 24 25
M  V30 25 1 25 26
M  V30 26 2 26 27
M  V30 27 1 26 28
M  V30 28 1 28 29
M  V30 29 1 28 30
M  V30 30 1 25 31
M  V30 31 1 31 32
M  V30 32 1 32 33
M  V30 33 1 33 34
M  V30 34 1 34 35
M  V30 35 1 35 36
M  V30 36 1 31 37
M  V30 37 2 37 38
M  V30 38 1 18 39
M  V30 39 2 39 40
M  V30 40 1 14 41
M  V30 41 2 41 42
M  V30 42 1 41 43
M  V30 43 1 12 8
M  V30 44 1 40 15
M  V30 45 1 43 9
M  V30 46 1 38 20
M  V30 47 1 37 23
M  V30 48 1 36 32
M  V30 49 1 1 44
M  V30 50 1 1 45
M  V30 51 1 1 46
M  V30 52 1 4 47
M  V30 53 1 5 48
M  V30 54 1 5 49
M  V30 55 1 9 50 CFG=3
M  V30 56 1 10 51
M  V30 57 1 10 52
M  V30 58 1 11 53
M  V30 59 1 11 54
M  V30 60 1 12 55 CFG=3
M  V30 61 1 13 56
M  V30 62 1 13 57
M  V30 63 1 16 58
M  V30 64 1 17 59
M  V30 65 1 19 60
M  V30 66 1 22 61
M  V30 67 1 24 62
M  V30 68 1 29 63
M  V30 69 1 29 64
M  V30 70 1 29 65
M  V30 71 1 30 66
M  V30 72 1 30 67
M  V30 73 1 30 68
M  V30 74 1 32 69
M  V30 75 1 33 70
M  V30 76 1 33 71
M  V30 77 1 34 72
M  V30 78 1 34 73
M  V30 79 1 35 74
M  V30 80 1 35 75
M  V30 81 1 36 76
M  V30 82 1 36 77
M  V30 83 1 40 78
M  V30 84 1 43 79
M  V30 85 1 43 80
M  V30 END BOND
M  V30 END CTAB
M  END
>  <Dataset>  (636) 
ChEMBL_Kinases

>  <Ligand_Instance>  (636) 
nan

>  <PDB_ID>  (636) 
nan

>  <Standardized_SMILES>  (636) 
CC(=O)NCC(=O)N1[C@@H]2CC[C@H]1CN(c1ccc(Nc3ncc4cc(C(=O)N(C)C)n(C5CCCC5)c4n3)nc1)C(=O)C2

>  <Name>  (636) 
nan

>  <Pocket>  (636) 
nan

>  <ATP_Site>  (636) 
nan

>  <Peripheral>  (636) 
nan

>  <Num_H_Atoms_ProtBoundConf>  (636) 
nan

>  <Num_Resolved_Atoms>  (636) 
nan

>  <Num_Not_Resolved_Atoms>  (636) 
nan

$$$$
CHEMBL3691673
     RDKit          3D

  0  0  0  0  0  0  0  0  0  0999 V3000
M  V30 BEGIN CTAB
M  V30 COUNTS 74 79 0 0 0
M  V30 BEGIN ATOM
M  V30 1 C 8.010857 -2.935746 2.682721 0
M  V30 2 N 6.927092 -2.987350 1.718972 0
M  V30 3 C 6.775786 -4.089480 0.772018 0
M  V30 4 C 6.044288 -1.875806 1.791268 0
M  V30 5 O 6.561298 -1.199922 2.735666 0
M  V30 6 C 4.860149 -1.589942 0.991754 0
M  V30 7 C 3.862220 -2.551089 1.076592 0
M  V30 8 C 2.807486 -2.137486 0.273083 0
M  V30 9 C 1.548910 -2.646826 -0.054291 0
M  V30 10 N 0.792646 -1.919202 -0.895460 0
M  V30 11 C 1.186840 -0.737591 -1.430355 0
M  V30 12 N 0.200221 -0.186516 -2.277041 0
M  V30 13 C -1.163084 0.009443 -1.923349 0
M  V30 14 C -1.640671 -0.311380 -0.670916 0
M  V30 15 C -3.001087 -0.092388 -0.415026 0
M  V30 16 C -3.857333 0.434070 -1.391954 0
M  V30 17 N -5.185197 0.565888 -0.906925 0
M  V30 18 C -5.958232 -0.671919 -1.100139 0
M  V30 19 C -6.187218 -1.212608 0.304596 0 CFG=2
M  V30 20 C -7.648070 -1.590584 0.367930 0
M  V30 21 C -8.303700 -0.236994 0.575577 0
M  V30 22 C -7.245500 0.668793 1.171172 0 CFG=2
M  V30 23 C -7.005243 1.921504 0.354207 0
M  V30 24 C -5.653235 1.769387 -0.302570 0
M  V30 25 O -4.748161 2.634039 -0.426286 0
M  V30 26 N -6.069474 -0.143772 1.278207 0
M  V30 27 S -5.883564 -0.812771 2.859442 0
M  V30 28 C -5.719023 0.569058 3.974681 0
M  V30 29 O -7.020157 -1.687755 3.234203 0
M  V30 30 O -4.611808 -1.599068 2.972045 0
M  V30 31 C -3.299317 0.727745 -2.617707 0
M  V30 32 N -1.995286 0.514428 -2.851474 0
M  V30 33 N 2.399085 -0.275732 -1.097515 0
M  V30 34 C 3.216953 -0.935342 -0.266837 0
M  V30 35 N 4.466568 -0.603600 0.171191 0
M  V30 36 C 5.312833 0.528414 -0.092864 0
M  V30 37 C 6.689819 0.087286 -0.539894 0
M  V30 38 C 6.300600 -0.566352 -1.878092 0
M  V30 39 C 5.340764 0.474362 -2.458001 0
M  V30 40 C 4.885466 1.332118 -1.307796 0
M  V30 41 H 8.810105 -2.318322 2.175815 0
M  V30 42 H 7.759214 -2.442012 3.624162 0
M  V30 43 H 8.371896 -3.970497 2.913453 0
M  V30 44 H 7.704738 -4.693374 0.840930 0
M  V30 45 H 5.935568 -4.750005 1.052187 0
M  V30 46 H 6.716470 -3.736345 -0.276833 0
M  V30 47 H 3.745671 -3.488726 1.603526 0
M  V30 48 H 1.245110 -3.571389 0.366424 0
M  V30 49 H 0.562604 0.068578 -3.200093 0
M  V30 50 H -0.994959 -0.718250 0.093704 0
M  V30 51 H -3.310075 -0.371230 0.605616 0
M  V30 52 H -6.912723 -0.346308 -1.573353 0
M  V30 53 H -5.462164 -1.364877 -1.773234 0
M  V30 54 H -5.494609 -2.006111 0.591323 0
M  V30 55 H -7.913006 -2.034865 -0.627950 0
M  V30 56 H -7.874322 -2.324471 1.142010 0
M  V30 57 H -9.155590 -0.307507 1.288320 0
M  V30 58 H -8.591350 0.180642 -0.412832 0
M  V30 59 H -7.566288 1.019129 2.195162 0
M  V30 60 H -7.019519 2.833448 0.978921 0
M  V30 61 H -7.739848 1.935032 -0.476095 0
M  V30 62 H -6.391802 0.425048 4.847541 0
M  V30 63 H -5.992526 1.540653 3.484466 0
M  V30 64 H -4.689017 0.684097 4.348046 0
M  V30 65 H -4.030572 1.127105 -3.303083 0
M  V30 66 H 5.379904 1.205330 0.796855 0
M  V30 67 H 7.203481 -0.610917 0.100274 0
M  V30 68 H 7.304723 0.975548 -0.813861 0
M  V30 69 H 7.158334 -0.773578 -2.517157 0
M  V30 70 H 5.751581 -1.490298 -1.604700 0
M  V30 71 H 4.489325 -0.054343 -2.885922 0
M  V30 72 H 5.900484 1.062398 -3.219350 0
M  V30 73 H 5.524821 2.268266 -1.256100 0
M  V30 74 H 3.816030 1.593629 -1.317541 0
M  V30 END ATOM
M  V30 BEGIN BOND
M  V30 1 1 1 2
M  V30 2 1 2 3
M  V30 3 1 2 4
M  V30 4 2 4 5
M  V30 5 1 4 6
M  V30 6 2 6 7
M  V30 7 1 7 8
M  V30 8 2 8 9
M  V30 9 1 9 10
M  V30 10 2 10 11
M  V30 11 1 11 12
M  V30 12 1 12 13
M  V30 13 2 13 14
M  V30 14 1 14 15
M  V30 15 2 15 16
M  V30 16 1 16 17
M  V30 17 1 17 18
M  V30 18 1 18 19
M  V30 19 1 19 20
M  V30 20 1 20 21
M  V30 21 1 21 22
M  V30 22 1 22 23
M  V30 23 1 23 24
M  V30 24 2 24 25
M  V30 25 1 22 26
M  V30 26 1 26 27
M  V30 27 1 27 28
M  V30 28 2 27 29
M  V30 29 2 27 30
M  V30 30 1 16 31
M  V30 31 2 31 32
M  V30 32 1 11 33
M  V30 33 2 33 34
M  V30 34 1 34 35
M  V30 35 1 35 36
M  V30 36 1 36 37
M  V30 37 1 37 38
M  V30 38 1 38 39
M  V30 39 1 39 40
M  V30 40 1 35 6
M  V30 41 1 40 36
M  V30 42 1 34 8
M  V30 43 1 32 13
M  V30 44 1 24 17
M  V30 45 1 26 19
M  V30 46 1 1 41
M  V30 47 1 1 42
M  V30 48 1 1 43
M  V30 49 1 3 44
M  V30 50 1 3 45
M  V30 51 1 3 46
M  V30 52 1 7 47
M  V30 53 1 9 48
M  V30 54 1 12 49
M  V30 55 1 14 50
M  V30 56 1 15 51
M  V30 57 1 18 52
M  V30 58 1 18 53
M  V30 59 1 19 54 CFG=1
M  V30 60 1 20 55
M  V30 61 1 20 56
M  V30 62 1 21 57
M  V30 63 1 21 58
M  V30 64 1 22 59 CFG=1
M  V30 65 1 23 60
M  V30 66 1 23 61
M  V30 67 1 28 62
M  V30 68 1 28 63
M  V30 69 1 28 64
M  V30 70 1 31 65
M  V30 71 1 36 66
M  V30 72 1 37 67
M  V30 73 1 37 68
M  V30 74 1 38 69
M  V30 75 1 38 70
M  V30 76 1 39 71
M  V30 77 1 39 72
M  V30 78 1 40 73
M  V30 79 1 40 74
M  V30 END BOND
M  V30 END CTAB
M  END
>  <Dataset>  (637) 
ChEMBL_Kinases

>  <Ligand_Instance>  (637) 
nan

>  <PDB_ID>  (637) 
nan

>  <Standardized_SMILES>  (637) 
CN(C)C(=O)c1cc2cnc(Nc3ccc(N4C[C@@H]5CC[C@H](CC4=O)N5S(C)(=O)=O)cn3)nc2n1C1CCCC1

>  <Name>  (637) 
nan

>  <Pocket>  (637) 
nan

>  <ATP_Site>  (637) 
nan

>  <Peripheral>  (637) 
nan

>  <Num_H_Atoms_ProtBoundConf>  (637) 
nan

>  <Num_Resolved_Atoms>  (637) 
nan

>  <Num_Not_Resolved_Atoms>  (637) 
nan

$$$$
CHEMBL3691672
     RDKit          3D

  0  0  0  0  0  0  0  0  0  0999 V3000
M  V30 BEGIN CTAB
M  V30 COUNTS 65 70 0 0 0
M  V30 BEGIN ATOM
M  V30 1 C 5.900216 0.759075 5.132988 0
M  V30 2 N 5.589327 -0.523962 4.527931 0
M  V30 3 C 6.176463 -1.586784 5.316547 0
M  V30 4 C 4.851318 -0.849172 3.363072 0
M  V30 5 O 4.706885 -2.073166 3.022310 0
M  V30 6 C 4.144730 -0.081031 2.353206 0
M  V30 7 C 4.740683 0.632414 1.321112 0
M  V30 8 C 3.764343 1.240565 0.538287 0
M  V30 9 C 3.802668 2.033878 -0.573308 0
M  V30 10 N 2.605217 2.451077 -1.079693 0
M  V30 11 C 1.441323 2.095758 -0.510231 0
M  V30 12 N 0.200076 2.551894 -1.084506 0
M  V30 13 C -0.795061 1.589749 -1.402915 0
M  V30 14 C -2.005099 1.945840 -1.954799 0
M  V30 15 C -3.004919 1.057662 -2.288954 0
M  V30 16 C -2.746946 -0.296739 -2.039802 0
M  V30 17 N -3.597819 -1.435536 -2.283974 0
M  V30 18 C -4.414406 -1.695240 -1.117176 0
M  V30 19 C -5.613784 -2.583468 -1.479443 0 CFG=1
M  V30 20 C -6.429159 -1.976127 -2.571839 0
M  V30 21 C -6.199035 -2.864697 -3.749807 0
M  V30 22 C -5.183154 -3.887082 -3.333117 0 CFG=1
M  V30 23 C -3.782964 -3.538845 -3.778935 0
M  V30 24 C -3.509593 -2.099672 -3.559321 0
M  V30 25 O -3.167378 -1.260703 -4.440567 0
M  V30 26 N -5.202531 -3.891592 -1.884227 0
M  V30 27 C -1.530833 -0.642971 -1.485210 0
M  V30 28 N -0.578713 0.265692 -1.173834 0
M  V30 29 N 1.457764 1.312303 0.582508 0
M  V30 30 C 2.587163 0.863778 1.139081 0
M  V30 31 N 2.805594 0.088837 2.205286 0
M  V30 32 C 1.888505 -0.514855 3.110233 0
M  V30 33 C 0.442924 -0.104468 3.016924 0
M  V30 34 C 0.753444 1.028943 3.960979 0
M  V30 35 C 1.883415 0.142887 4.494218 0
M  V30 36 H 5.729522 1.532581 4.328228 0
M  V30 37 H 5.149876 0.908850 5.933874 0
M  V30 38 H 6.940097 0.817567 5.507886 0
M  V30 39 H 5.681312 -1.559397 6.313762 0
M  V30 40 H 5.897906 -2.548290 4.838516 0
M  V30 41 H 7.281506 -1.504947 5.404796 0
M  V30 42 H 5.805827 0.701460 1.160001 0
M  V30 43 H 4.726719 2.324357 -1.038379 0
M  V30 44 H -0.009775 3.552810 -1.284299 0
M  V30 45 H -2.247588 2.978094 -2.163919 0
M  V30 46 H -3.972144 1.225233 -2.712336 0
M  V30 47 H -3.868247 -2.256567 -0.329585 0
M  V30 48 H -4.837231 -0.780389 -0.692255 0
M  V30 49 H -6.237031 -2.625520 -0.555805 0
M  V30 50 H -6.109595 -0.931139 -2.744391 0
M  V30 51 H -7.520809 -1.950247 -2.325234 0
M  V30 52 H -7.166253 -3.346687 -4.053069 0
M  V30 53 H -5.828986 -2.315765 -4.654515 0
M  V30 54 H -5.422715 -4.883555 -3.768932 0
M  V30 55 H -3.637355 -3.788578 -4.859790 0
M  V30 56 H -3.078223 -4.143744 -3.183116 0
M  V30 57 H -5.886838 -4.628286 -1.571598 0
M  V30 58 H -1.201870 -1.657561 -1.232639 0
M  V30 59 H 1.961897 -1.606983 3.110377 0
M  V30 60 H 0.025058 0.129060 2.045951 0
M  V30 61 H -0.220559 -0.832284 3.533231 0
M  V30 62 H -0.005505 1.204252 4.757010 0
M  V30 63 H 1.094622 1.968612 3.519609 0
M  V30 64 H 2.738337 0.785333 4.726560 0
M  V30 65 H 1.556317 -0.530317 5.301828 0
M  V30 END ATOM
M  V30 BEGIN BOND
M  V30 1 1 1 2
M  V30 2 1 2 3
M  V30 3 1 2 4
M  V30 4 2 4 5
M  V30 5 1 4 6
M  V30 6 2 6 7
M  V30 7 1 7 8
M  V30 8 2 8 9
M  V30 9 1 9 10
M  V30 10 2 10 11
M  V30 11 1 11 12
M  V30 12 1 12 13
M  V30 13 2 13 14
M  V30 14 1 14 15
M  V30 15 2 15 16
M  V30 16 1 16 17
M  V30 17 1 17 18
M  V30 18 1 18 19
M  V30 19 1 19 20
M  V30 20 1 20 21
M  V30 21 1 21 22
M  V30 22 1 22 23
M  V30 23 1 23 24
M  V30 24 2 24 25
M  V30 25 1 22 26
M  V30 26 1 16 27
M  V30 27 2 27 28
M  V30 28 1 11 29
M  V30 29 2 29 30
M  V30 30 1 30 31
M  V30 31 1 31 32
M  V30 32 1 32 33
M  V30 33 1 33 34
M  V30 34 1 34 35
M  V30 35 1 31 6
M  V30 36 1 35 32
M  V30 37 1 30 8
M  V30 38 1 28 13
M  V30 39 1 24 17
M  V30 40 1 26 19
M  V30 41 1 1 36
M  V30 42 1 1 37
M  V30 43 1 1 38
M  V30 44 1 3 39
M  V30 45 1 3 40
M  V30 46 1 3 41
M  V30 47 1 7 42
M  V30 48 1 9 43
M  V30 49 1 12 44
M  V30 50 1 14 45
M  V30 51 1 15 46
M  V30 52 1 18 47
M  V30 53 1 18 48
M  V30 54 1 19 49 CFG=1
M  V30 55 1 20 50
M  V30 56 1 20 51
M  V30 57 1 21 52
M  V30 58 1 21 53
M  V30 59 1 22 54 CFG=3
M  V30 60 1 23 55
M  V30 61 1 23 56
M  V30 62 1 26 57
M  V30 63 1 27 58
M  V30 64 1 32 59
M  V30 65 1 33 60
M  V30 66 1 33 61
M  V30 67 1 34 62
M  V30 68 1 34 63
M  V30 69 1 35 64
M  V30 70 1 35 65
M  V30 END BOND
M  V30 END CTAB
M  END
>  <Dataset>  (638) 
ChEMBL_Kinases

>  <Ligand_Instance>  (638) 
nan

>  <PDB_ID>  (638) 
nan

>  <Standardized_SMILES>  (638) 
CN(C)C(=O)c1cc2cnc(Nc3ccc(N4C[C@H]5CC[C@@H](CC4=O)N5)cn3)nc2n1C1CCC1

>  <Name>  (638) 
nan

>  <Pocket>  (638) 
nan

>  <ATP_Site>  (638) 
nan

>  <Peripheral>  (638) 
nan

>  <Num_H_Atoms_ProtBoundConf>  (638) 
nan

>  <Num_Resolved_Atoms>  (638) 
nan

>  <Num_Not_Resolved_Atoms>  (638) 
nan

$$$$
CHEMBL3691671
     RDKit          3D

  0  0  0  0  0  0  0  0  0  0999 V3000
M  V30 BEGIN CTAB
M  V30 COUNTS 65 70 0 0 0
M  V30 BEGIN ATOM
M  V30 1 C 1.260630 -3.859963 4.063197 0
M  V30 2 N 2.703975 -4.058868 3.865509 0
M  V30 3 C 3.300908 -5.323580 4.259146 0
M  V30 4 C 3.613039 -3.090740 3.300950 0
M  V30 5 O 4.860501 -3.309108 3.148930 0
M  V30 6 C 3.156917 -1.766840 2.855801 0
M  V30 7 C 3.708235 -0.635387 3.464900 0
M  V30 8 C 3.080906 0.422684 2.832104 0
M  V30 9 C 3.172562 1.785561 2.963815 0
M  V30 10 N 2.438030 2.615709 2.212382 0
M  V30 11 C 1.568563 2.175243 1.286049 0
M  V30 12 N 0.818703 3.103598 0.520550 0
M  V30 13 C -0.137656 2.839414 -0.489729 0
M  V30 14 C -0.536599 1.600506 -0.934406 0
M  V30 15 C -1.467557 1.350381 -1.918297 0
M  V30 16 C -2.059519 2.440722 -2.518602 0
M  V30 17 N -3.026290 2.221222 -3.538829 0
M  V30 18 C -2.658659 2.117296 -4.933355 0
M  V30 19 C -3.363119 1.032474 -5.659637 0 CFG=2
M  V30 20 C -4.275047 1.526245 -6.760435 0
M  V30 21 C -5.576266 1.713833 -6.013137 0
M  V30 22 C -5.476272 0.812690 -4.805639 0 CFG=2
M  V30 23 C -5.613367 1.608818 -3.544025 0
M  V30 24 C -4.339860 2.121545 -3.031361 0
M  V30 25 O -4.495982 2.575490 -1.846896 0
M  V30 26 N -4.179800 0.209106 -4.794719 0
M  V30 27 C -1.666689 3.687253 -2.079997 0
M  V30 28 N -0.751141 3.856371 -1.113894 0
M  V30 29 N 1.498062 0.842472 1.177459 0
M  V30 30 C 2.196494 -0.050844 1.889430 0
M  V30 31 N 2.266527 -1.396640 1.928338 0
M  V30 32 C 1.521196 -2.315378 1.119792 0
M  V30 33 C 1.618469 -1.889662 -0.349539 0
M  V30 34 C 1.994612 -3.299320 -0.760204 0
M  V30 35 C 2.173345 -3.599726 0.728823 0
M  V30 36 H 1.028224 -2.782504 4.008875 0
M  V30 37 H 0.697302 -4.453272 3.301425 0
M  V30 38 H 0.985908 -4.262879 5.043470 0
M  V30 39 H 4.042429 -5.684767 3.518408 0
M  V30 40 H 3.713675 -5.180292 5.271841 0
M  V30 41 H 2.500578 -6.076206 4.327554 0
M  V30 42 H 4.452378 -0.544385 4.250078 0
M  V30 43 H 3.839795 2.237239 3.677404 0
M  V30 44 H 0.993663 4.117481 0.728490 0
M  V30 45 H -0.101841 0.718642 -0.494751 0
M  V30 46 H -1.731574 0.351075 -2.216119 0
M  V30 47 H -1.579733 2.048750 -5.086258 0
M  V30 48 H -2.971220 3.086025 -5.416476 0
M  V30 49 H -2.614621 0.352523 -6.112208 0
M  V30 50 H -3.913468 2.449502 -7.229715 0
M  V30 51 H -4.418563 0.751570 -7.527082 0
M  V30 52 H -6.463718 1.426596 -6.601281 0
M  V30 53 H -5.672642 2.779554 -5.765364 0
M  V30 54 H -6.234865 0.013992 -4.851740 0
M  V30 55 H -6.178849 0.988836 -2.798198 0
M  V30 56 H -6.287034 2.474187 -3.746940 0
M  V30 57 H -4.155848 -0.797665 -5.041730 0
M  V30 58 H -2.114314 4.561728 -2.532743 0
M  V30 59 H 0.440857 -2.414733 1.402046 0
M  V30 60 H 0.675994 -1.529608 -0.793753 0
M  V30 61 H 2.445069 -1.203899 -0.574261 0
M  V30 62 H 2.925165 -3.378387 -1.359677 0
M  V30 63 H 1.130540 -3.788191 -1.239903 0
M  V30 64 H 1.571924 -4.526010 0.947607 0
M  V30 65 H 3.255265 -3.690615 0.940964 0
M  V30 END ATOM
M  V30 BEGIN BOND
M  V30 1 1 1 2
M  V30 2 1 2 3
M  V30 3 1 2 4
M  V30 4 2 4 5
M  V30 5 1 4 6
M  V30 6 2 6 7
M  V30 7 1 7 8
M  V30 8 2 8 9
M  V30 9 1 9 10
M  V30 10 2 10 11
M  V30 11 1 11 12
M  V30 12 1 12 13
M  V30 13 2 13 14
M  V30 14 1 14 15
M  V30 15 2 15 16
M  V30 16 1 16 17
M  V30 17 1 17 18
M  V30 18 1 18 19
M  V30 19 1 19 20
M  V30 20 1 20 21
M  V30 21 1 21 22
M  V30 22 1 22 23
M  V30 23 1 23 24
M  V30 24 2 24 25
M  V30 25 1 22 26
M  V30 26 1 16 27
M  V30 27 2 27 28
M  V30 28 1 11 29
M  V30 29 2 29 30
M  V30 30 1 30 31
M  V30 31 1 31 32
M  V30 32 1 32 33
M  V30 33 1 33 34
M  V30 34 1 34 35
M  V30 35 1 31 6
M  V30 36 1 35 32
M  V30 37 1 30 8
M  V30 38 1 28 13
M  V30 39 1 24 17
M  V30 40 1 26 19
M  V30 41 1 1 36
M  V30 42 1 1 37
M  V30 43 1 1 38
M  V30 44 1 3 39
M  V30 45 1 3 40
M  V30 46 1 3 41
M  V30 47 1 7 42
M  V30 48 1 9 43
M  V30 49 1 12 44
M  V30 50 1 14 45
M  V30 51 1 15 46
M  V30 52 1 18 47
M  V30 53 1 18 48
M  V30 54 1 19 49 CFG=3
M  V30 55 1 20 50
M  V30 56 1 20 51
M  V30 57 1 21 52
M  V30 58 1 21 53
M  V30 59 1 22 54 CFG=3
M  V30 60 1 23 55
M  V30 61 1 23 56
M  V30 62 1 26 57
M  V30 63 1 27 58
M  V30 64 1 32 59
M  V30 65 1 33 60
M  V30 66 1 33 61
M  V30 67 1 34 62
M  V30 68 1 34 63
M  V30 69 1 35 64
M  V30 70 1 35 65
M  V30 END BOND
M  V30 END CTAB
M  END
>  <Dataset>  (639) 
ChEMBL_Kinases

>  <Ligand_Instance>  (639) 
nan

>  <PDB_ID>  (639) 
nan

>  <Standardized_SMILES>  (639) 
CN(C)C(=O)c1cc2cnc(Nc3ccc(N4C[C@@H]5CC[C@H](CC4=O)N5)cn3)nc2n1C1CCC1

>  <Name>  (639) 
nan

>  <Pocket>  (639) 
nan

>  <ATP_Site>  (639) 
nan

>  <Peripheral>  (639) 
nan

>  <Num_H_Atoms_ProtBoundConf>  (639) 
nan

>  <Num_Resolved_Atoms>  (639) 
nan

>  <Num_Not_Resolved_Atoms>  (639) 
nan

$$$$
CHEMBL3691670
     RDKit          3D

  0  0  0  0  0  0  0  0  0  0999 V3000
M  V30 BEGIN CTAB
M  V30 COUNTS 65 70 0 0 0
M  V30 BEGIN ATOM
M  V30 1 C 3.544552 -1.569010 3.124194 0
M  V30 2 N 4.507688 -0.703668 3.811888 0
M  V30 3 C 4.999789 -1.480514 4.960486 0
M  V30 4 C 4.938280 0.635312 3.492415 0
M  V30 5 O 5.791069 1.142171 4.277254 0
M  V30 6 C 4.238932 1.073965 2.280590 0
M  V30 7 C 4.853257 1.212333 1.038878 0
M  V30 8 C 3.859923 1.628520 0.174019 0
M  V30 9 C 3.882304 1.917917 -1.170914 0
M  V30 10 N 2.732812 2.299819 -1.749479 0
M  V30 11 C 1.585857 2.402702 -1.054046 0
M  V30 12 N 0.273084 2.754784 -1.485042 0
M  V30 13 C -0.563295 1.581708 -1.555456 0
M  V30 14 C -1.872516 1.641190 -1.969612 0
M  V30 15 C -2.764259 0.602710 -2.053841 0
M  V30 16 C -2.291884 -0.639417 -1.680728 0
M  V30 17 N -2.960357 -1.894611 -1.655045 0
M  V30 18 C -3.640084 -2.222322 -0.421699 0
M  V30 19 C -4.744046 -3.228920 -0.599238 0
M  V30 20 C -5.761869 -2.848376 -1.608899 0
M  V30 21 C -5.587520 -3.799874 -2.739267 0
M  V30 22 C -4.433524 -4.693204 -2.338397 0
M  V30 23 C -3.152245 -4.184392 -2.949913 0
M  V30 24 C -2.939024 -2.743302 -2.792327 0
M  V30 25 O -2.686381 -2.121897 -3.880733 0
M  V30 26 N -4.315249 -4.551399 -0.905795 0
M  V30 27 C -0.982562 -0.747713 -1.258650 0
M  V30 28 N -0.175394 0.322134 -1.206531 0
M  V30 29 N 1.591134 2.112382 0.269226 0
M  V30 30 C 2.692377 1.722609 0.928290 0
M  V30 31 N 2.928377 1.381099 2.223887 0
M  V30 32 C 1.911455 1.382310 3.232490 0
M  V30 33 C 0.579599 0.806464 2.802625 0
M  V30 34 C -0.093660 2.087139 3.208523 0
M  V30 35 C 1.264422 2.681484 3.582842 0
M  V30 36 H 3.938707 -2.564000 2.901045 0
M  V30 37 H 2.659640 -1.662852 3.779310 0
M  V30 38 H 3.202958 -1.090870 2.179042 0
M  V30 39 H 5.794737 -0.958843 5.512947 0
M  V30 40 H 4.139404 -1.650242 5.629058 0
M  V30 41 H 5.372506 -2.476730 4.635104 0
M  V30 42 H 5.889918 1.031560 0.807339 0
M  V30 43 H 4.768893 1.851640 -1.764400 0
M  V30 44 H -0.175711 3.633687 -1.745320 0
M  V30 45 H -2.250470 2.625590 -2.266687 0
M  V30 46 H -3.778929 0.613005 -2.364540 0
M  V30 47 H -2.968850 -2.592908 0.374917 0
M  V30 48 H -4.113988 -1.310467 -0.019196 0
M  V30 49 H -5.248630 -3.285065 0.406635 0
M  V30 50 H -6.804258 -2.901562 -1.181465 0
M  V30 51 H -5.624448 -1.783640 -1.903780 0
M  V30 52 H -6.514442 -4.408441 -2.924141 0
M  V30 53 H -5.349593 -3.317758 -3.694953 0
M  V30 54 H -4.598681 -5.714378 -2.693601 0
M  V30 55 H -3.182194 -4.455267 -4.026073 0
M  V30 56 H -2.325781 -4.786920 -2.501255 0
M  V30 57 H -4.765254 -5.304643 -0.367552 0
M  V30 58 H -0.389857 -1.589399 -0.922170 0
M  V30 59 H 2.260398 0.858824 4.165567 0
M  V30 60 H 0.540584 0.543181 1.733362 0
M  V30 61 H 0.218639 -0.042732 3.453944 0
M  V30 62 H -0.817569 2.016423 4.047695 0
M  V30 63 H -0.573656 2.660045 2.394833 0
M  V30 64 H 1.558358 3.557310 2.967130 0
M  V30 65 H 1.245462 2.937517 4.660002 0
M  V30 END ATOM
M  V30 BEGIN BOND
M  V30 1 1 1 2
M  V30 2 1 2 3
M  V30 3 1 2 4
M  V30 4 2 4 5
M  V30 5 1 4 6
M  V30 6 2 6 7
M  V30 7 1 7 8
M  V30 8 2 8 9
M  V30 9 1 9 10
M  V30 10 2 10 11
M  V30 11 1 11 12
M  V30 12 1 12 13
M  V30 13 2 13 14
M  V30 14 1 14 15
M  V30 15 2 15 16
M  V30 16 1 16 17
M  V30 17 1 17 18
M  V30 18 1 18 19
M  V30 19 1 19 20
M  V30 20 1 20 21
M  V30 21 1 21 22
M  V30 22 1 22 23
M  V30 23 1 23 24
M  V30 24 2 24 25
M  V30 25 1 22 26
M  V30 26 1 16 27
M  V30 27 2 27 28
M  V30 28 1 11 29
M  V30 29 2 29 30
M  V30 30 1 30 31
M  V30 31 1 31 32
M  V30 32 1 32 33
M  V30 33 1 33 34
M  V30 34 1 34 35
M  V30 35 1 31 6
M  V30 36 1 35 32
M  V30 37 1 30 8
M  V30 38 1 28 13
M  V30 39 1 24 17
M  V30 40 1 26 19
M  V30 41 1 1 36
M  V30 42 1 1 37
M  V30 43 1 1 38
M  V30 44 1 3 39
M  V30 45 1 3 40
M  V30 46 1 3 41
M  V30 47 1 7 42
M  V30 48 1 9 43
M  V30 49 1 12 44
M  V30 50 1 14 45
M  V30 51 1 15 46
M  V30 52 1 18 47
M  V30 53 1 18 48
M  V30 54 1 19 49
M  V30 55 1 20 50
M  V30 56 1 20 51
M  V30 57 1 21 52
M  V30 58 1 21 53
M  V30 59 1 22 54
M  V30 60 1 23 55
M  V30 61 1 23 56
M  V30 62 1 26 57
M  V30 63 1 27 58
M  V30 64 1 32 59
M  V30 65 1 33 60
M  V30 66 1 33 61
M  V30 67 1 34 62
M  V30 68 1 34 63
M  V30 69 1 35 64
M  V30 70 1 35 65
M  V30 END BOND
M  V30 END CTAB
M  END
>  <Dataset>  (640) 
ChEMBL_Kinases

>  <Ligand_Instance>  (640) 
nan

>  <PDB_ID>  (640) 
nan

>  <Standardized_SMILES>  (640) 
CN(C)C(=O)c1cc2cnc(Nc3ccc(N4CC5CCC(CC4=O)N5)cn3)nc2n1C1CCC1

>  <Name>  (640) 
nan

>  <Pocket>  (640) 
nan

>  <ATP_Site>  (640) 
nan

>  <Peripheral>  (640) 
nan

>  <Num_H_Atoms_ProtBoundConf>  (640) 
nan

>  <Num_Resolved_Atoms>  (640) 
nan

>  <Num_Not_Resolved_Atoms>  (640) 
nan

$$$$
CHEMBL3691668
     RDKit          3D

  0  0  0  0  0  0  0  0  0  0999 V3000
M  V30 BEGIN CTAB
M  V30 COUNTS 71 76 0 0 0
M  V30 BEGIN ATOM
M  V30 1 C 5.949605 2.447925 4.540406 0
M  V30 2 N 4.848027 1.974162 3.745988 0
M  V30 3 C 3.837766 1.139168 4.374645 0
M  V30 4 C 4.802048 2.353297 2.361153 0
M  V30 5 O 5.817687 3.060624 2.177437 0
M  V30 6 C 3.695497 1.887199 1.528925 0
M  V30 7 C 3.931320 0.781908 0.737991 0
M  V30 8 C 2.790743 0.501644 0.038251 0
M  V30 9 C 2.379432 -0.445992 -0.893187 0
M  V30 10 N 1.126883 -0.413170 -1.386843 0
M  V30 11 C 0.236710 0.538548 -0.992277 0
M  V30 12 N -1.044908 0.452417 -1.597763 0
M  V30 13 C -1.781139 -0.754138 -1.448397 0
M  V30 14 C -3.030520 -0.898959 -2.004331 0
M  V30 15 C -3.713719 -2.090944 -1.842853 0
M  V30 16 C -3.242913 -3.185326 -1.152873 0
M  V30 17 N -3.964288 -4.396113 -1.039503 0
M  V30 18 C -5.151298 -4.671191 -1.808135 0
M  V30 19 C -4.863211 -5.898111 -2.662683 0 CFG=2
M  V30 20 C -5.814167 -6.997244 -2.310027 0
M  V30 21 C -4.951898 -7.986056 -1.564680 0
M  V30 22 C -3.570289 -7.421580 -1.485329 0 CFG=2
M  V30 23 C -3.236958 -6.820375 -0.140919 0
M  V30 24 C -3.402525 -5.343433 -0.120426 0
M  V30 25 O -2.915549 -4.913216 0.981341 0
M  V30 26 N -3.523698 -6.379330 -2.501328 0
M  V30 27 C -1.995484 -2.949995 -0.636359 0
M  V30 28 N -1.296126 -1.808818 -0.767975 0
M  V30 29 N 0.653881 1.454960 -0.083283 0
M  V30 30 C 1.881722 1.458113 0.428649 0
M  V30 31 N 2.428535 2.293906 1.328443 0
M  V30 32 C 1.899802 3.448413 2.032661 0
M  V30 33 C 2.691357 4.700388 1.766903 0
M  V30 34 C 1.986364 5.712203 0.912222 0
M  V30 35 C 1.134012 4.944896 -0.081516 0
M  V30 36 C -0.034643 4.409455 0.714037 0
M  V30 37 C 0.420749 3.607334 1.880506 0
M  V30 38 H 5.664157 2.888989 5.510565 0
M  V30 39 H 6.585677 1.555491 4.804539 0
M  V30 40 H 6.566324 3.194049 4.006158 0
M  V30 41 H 3.343016 0.461224 3.635976 0
M  V30 42 H 4.385887 0.468559 5.078898 0
M  V30 43 H 3.054080 1.741790 4.867295 0
M  V30 44 H 4.812477 0.148294 0.593453 0
M  V30 45 H 3.116759 -1.191191 -1.184486 0
M  V30 46 H -1.458028 1.234306 -2.138742 0
M  V30 47 H -3.404619 -0.048825 -2.548326 0
M  V30 48 H -4.666846 -2.069182 -2.320740 0
M  V30 49 H -5.984784 -4.902596 -1.129959 0
M  V30 50 H -5.481769 -3.819307 -2.432959 0
M  V30 51 H -4.953429 -5.564494 -3.727765 0
M  V30 52 H -6.706754 -6.673221 -1.737706 0
M  V30 53 H -6.205873 -7.406423 -3.278715 0
M  V30 54 H -5.354356 -8.248466 -0.568386 0
M  V30 55 H -4.933164 -8.908276 -2.188040 0
M  V30 56 H -2.839386 -8.230546 -1.697783 0
M  V30 57 H -3.928806 -7.203557 0.656684 0
M  V30 58 H -2.200914 -7.059471 0.178406 0
M  V30 59 H -3.271122 -6.895052 -3.390811 0
M  V30 60 H -1.443228 -3.674442 -0.078045 0
M  V30 61 H 2.080050 3.207532 3.121423 0
M  V30 62 H 3.647469 4.451301 1.223426 0
M  V30 63 H 3.002122 5.221960 2.691018 0
M  V30 64 H 1.317578 6.336609 1.554712 0
M  V30 65 H 2.724619 6.351520 0.385334 0
M  V30 66 H 0.796678 5.626783 -0.885817 0
M  V30 67 H 1.745642 4.174712 -0.565157 0
M  V30 68 H -0.613399 5.331073 1.022541 0
M  V30 69 H -0.765988 3.868788 0.054439 0
M  V30 70 H 0.046937 4.120685 2.803915 0
M  V30 71 H -0.018538 2.589387 1.925380 0
M  V30 END ATOM
M  V30 BEGIN BOND
M  V30 1 1 1 2
M  V30 2 1 2 3
M  V30 3 1 2 4
M  V30 4 2 4 5
M  V30 5 1 4 6
M  V30 6 2 6 7
M  V30 7 1 7 8
M  V30 8 2 8 9
M  V30 9 1 9 10
M  V30 10 2 10 11
M  V30 11 1 11 12
M  V30 12 1 12 13
M  V30 13 2 13 14
M  V30 14 1 14 15
M  V30 15 2 15 16
M  V30 16 1 16 17
M  V30 17 1 17 18
M  V30 18 1 18 19
M  V30 19 1 19 20
M  V30 20 1 20 21
M  V30 21 1 21 22
M  V30 22 1 22 23
M  V30 23 1 23 24
M  V30 24 2 24 25
M  V30 25 1 22 26
M  V30 26 1 16 27
M  V30 27 2 27 28
M  V30 28 1 11 29
M  V30 29 2 29 30
M  V30 30 1 30 31
M  V30 31 1 31 32
M  V30 32 1 32 33
M  V30 33 1 33 34
M  V30 34 1 34 35
M  V30 35 1 35 36
M  V30 36 1 36 37
M  V30 37 1 31 6
M  V30 38 1 37 32
M  V30 39 1 30 8
M  V30 40 1 28 13
M  V30 41 1 24 17
M  V30 42 1 26 19
M  V30 43 1 1 38
M  V30 44 1 1 39
M  V30 45 1 1 40
M  V30 46 1 3 41
M  V30 47 1 3 42
M  V30 48 1 3 43
M  V30 49 1 7 44
M  V30 50 1 9 45
M  V30 51 1 12 46
M  V30 52 1 14 47
M  V30 53 1 15 48
M  V30 54 1 18 49
M  V30 55 1 18 50
M  V30 56 1 19 51 CFG=3
M  V30 57 1 20 52
M  V30 58 1 20 53
M  V30 59 1 21 54
M  V30 60 1 21 55
M  V30 61 1 22 56 CFG=3
M  V30 62 1 23 57
M  V30 63 1 23 58
M  V30 64 1 26 59
M  V30 65 1 27 60
M  V30 66 1 32 61
M  V30 67 1 33 62
M  V30 68 1 33 63
M  V30 69 1 34 64
M  V30 70 1 34 65
M  V30 71 1 35 66
M  V30 72 1 35 67
M  V30 73 1 36 68
M  V30 74 1 36 69
M  V30 75 1 37 70
M  V30 76 1 37 71
M  V30 END BOND
M  V30 END CTAB
M  END
>  <Dataset>  (641) 
ChEMBL_Kinases

>  <Ligand_Instance>  (641) 
nan

>  <PDB_ID>  (641) 
nan

>  <Standardized_SMILES>  (641) 
CN(C)C(=O)c1cc2cnc(Nc3ccc(N4C[C@@H]5CC[C@H](CC4=O)N5)cn3)nc2n1C1CCCCC1

>  <Name>  (641) 
nan

>  <Pocket>  (641) 
nan

>  <ATP_Site>  (641) 
nan

>  <Peripheral>  (641) 
nan

>  <Num_H_Atoms_ProtBoundConf>  (641) 
nan

>  <Num_Resolved_Atoms>  (641) 
nan

>  <Num_Not_Resolved_Atoms>  (641) 
nan

$$$$
CHEMBL3691667
     RDKit          3D

  0  0  0  0  0  0  0  0  0  0999 V3000
M  V30 BEGIN CTAB
M  V30 COUNTS 71 76 0 0 0
M  V30 BEGIN ATOM
M  V30 1 C 5.558373 1.875483 5.069796 0
M  V30 2 N 4.689457 1.507028 3.951751 0
M  V30 3 C 4.052933 0.187675 4.055922 0
M  V30 4 C 4.522995 2.418424 2.873562 0
M  V30 5 O 5.232619 3.399606 3.185792 0
M  V30 6 C 3.634682 1.959531 1.804242 0
M  V30 7 C 4.233763 1.161990 0.843955 0
M  V30 8 C 3.259152 0.823513 -0.074113 0
M  V30 9 C 3.232966 0.067636 -1.227690 0
M  V30 10 N 2.042816 -0.030564 -1.867523 0
M  V30 11 C 0.934599 0.582552 -1.398501 0
M  V30 12 N -0.158012 0.291459 -2.293138 0
M  V30 13 C -1.009635 -0.856866 -2.121593 0
M  V30 14 C -2.053767 -1.129440 -3.002502 0
M  V30 15 C -2.855725 -2.236884 -2.819084 0
M  V30 16 C -2.642692 -3.097951 -1.761236 0
M  V30 17 N -3.375328 -4.283217 -1.449929 0
M  V30 18 C -4.564761 -4.385040 -0.634107 0
M  V30 19 C -5.507116 -5.454923 -1.121439 0
M  V30 20 C -5.805759 -5.430954 -2.572415 0
M  V30 21 C -4.853674 -6.388899 -3.187086 0
M  V30 22 C -4.357957 -7.220465 -2.053675 0
M  V30 23 C -2.910585 -6.837912 -1.814840 0
M  V30 24 C -2.706509 -5.377080 -2.110433 0
M  V30 25 O -1.868956 -5.147958 -3.021212 0
M  V30 26 N -5.078530 -6.793206 -0.865131 0
M  V30 27 C -1.588201 -2.805549 -0.887043 0
M  V30 28 N -0.801399 -1.705547 -1.080341 0
M  V30 29 N 0.976740 1.315968 -0.272380 0
M  V30 30 C 2.117082 1.447045 0.396828 0
M  V30 31 N 2.340866 2.122975 1.514575 0
M  V30 32 C 1.482688 2.920566 2.374404 0
M  V30 33 C 1.957967 4.319304 2.502812 0
M  V30 34 C 1.143896 5.382450 1.854215 0
M  V30 35 C -0.340129 5.128784 1.831055 0
M  V30 36 C -0.483422 3.781053 1.100529 0
M  V30 37 C 0.041049 2.766504 2.057239 0
M  V30 38 H 4.916805 1.994584 5.956599 0
M  V30 39 H 6.284706 1.060435 5.291169 0
M  V30 40 H 6.099173 2.809996 4.908432 0
M  V30 41 H 4.785566 -0.520815 3.580107 0
M  V30 42 H 3.871529 -0.070464 5.107902 0
M  V30 43 H 3.132917 0.244639 3.434605 0
M  V30 44 H 5.247195 0.785098 0.693625 0
M  V30 45 H 4.148462 -0.404858 -1.562758 0
M  V30 46 H -0.368460 0.912087 -3.102456 0
M  V30 47 H -2.240848 -0.472368 -3.835800 0
M  V30 48 H -3.665668 -2.490315 -3.462488 0
M  V30 49 H -4.236722 -4.681459 0.386973 0
M  V30 50 H -5.114886 -3.442216 -0.548628 0
M  V30 51 H -6.455591 -5.301595 -0.562324 0
M  V30 52 H -6.846363 -5.808238 -2.718941 0
M  V30 53 H -5.796021 -4.422443 -3.027418 0
M  V30 54 H -5.399201 -6.997973 -3.961772 0
M  V30 55 H -4.047095 -5.875431 -3.747647 0
M  V30 56 H -4.382138 -8.297150 -2.228195 0
M  V30 57 H -2.625296 -7.030978 -0.779366 0
M  V30 58 H -2.283939 -7.446646 -2.475909 0
M  V30 59 H -4.499581 -6.895222 -0.007230 0
M  V30 60 H -1.326335 -3.408110 -0.023111 0
M  V30 61 H 1.621349 2.438731 3.398617 0
M  V30 62 H 2.966336 4.354431 1.981051 0
M  V30 63 H 2.222421 4.562351 3.558073 0
M  V30 64 H 1.277485 6.322545 2.454311 0
M  V30 65 H 1.507172 5.616775 0.825496 0
M  V30 66 H -0.706061 4.963192 2.861504 0
M  V30 67 H -0.829364 5.932746 1.284520 0
M  V30 68 H -1.525945 3.603985 0.844877 0
M  V30 69 H 0.136377 3.925084 0.180372 0
M  V30 70 H -0.541455 2.912288 3.014420 0
M  V30 71 H -0.181733 1.720792 1.769723 0
M  V30 END ATOM
M  V30 BEGIN BOND
M  V30 1 1 1 2
M  V30 2 1 2 3
M  V30 3 1 2 4
M  V30 4 2 4 5
M  V30 5 1 4 6
M  V30 6 2 6 7
M  V30 7 1 7 8
M  V30 8 2 8 9
M  V30 9 1 9 10
M  V30 10 2 10 11
M  V30 11 1 11 12
M  V30 12 1 12 13
M  V30 13 2 13 14
M  V30 14 1 14 15
M  V30 15 2 15 16
M  V30 16 1 16 17
M  V30 17 1 17 18
M  V30 18 1 18 19
M  V30 19 1 19 20
M  V30 20 1 20 21
M  V30 21 1 21 22
M  V30 22 1 22 23
M  V30 23 1 23 24
M  V30 24 2 24 25
M  V30 25 1 22 26
M  V30 26 1 16 27
M  V30 27 2 27 28
M  V30 28 1 11 29
M  V30 29 2 29 30
M  V30 30 1 30 31
M  V30 31 1 31 32
M  V30 32 1 32 33
M  V30 33 1 33 34
M  V30 34 1 34 35
M  V30 35 1 35 36
M  V30 36 1 36 37
M  V30 37 1 31 6
M  V30 38 1 37 32
M  V30 39 1 30 8
M  V30 40 1 28 13
M  V30 41 1 24 17
M  V30 42 1 26 19
M  V30 43 1 1 38
M  V30 44 1 1 39
M  V30 45 1 1 40
M  V30 46 1 3 41
M  V30 47 1 3 42
M  V30 48 1 3 43
M  V30 49 1 7 44
M  V30 50 1 9 45
M  V30 51 1 12 46
M  V30 52 1 14 47
M  V30 53 1 15 48
M  V30 54 1 18 49
M  V30 55 1 18 50
M  V30 56 1 19 51
M  V30 57 1 20 52
M  V30 58 1 20 53
M  V30 59 1 21 54
M  V30 60 1 21 55
M  V30 61 1 22 56
M  V30 62 1 23 57
M  V30 63 1 23 58
M  V30 64 1 26 59
M  V30 65 1 27 60
M  V30 66 1 32 61
M  V30 67 1 33 62
M  V30 68 1 33 63
M  V30 69 1 34 64
M  V30 70 1 34 65
M  V30 71 1 35 66
M  V30 72 1 35 67
M  V30 73 1 36 68
M  V30 74 1 36 69
M  V30 75 1 37 70
M  V30 76 1 37 71
M  V30 END BOND
M  V30 END CTAB
M  END
>  <Dataset>  (642) 
ChEMBL_Kinases

>  <Ligand_Instance>  (642) 
nan

>  <PDB_ID>  (642) 
nan

>  <Standardized_SMILES>  (642) 
CN(C)C(=O)c1cc2cnc(Nc3ccc(N4CC5CCC(CC4=O)N5)cn3)nc2n1C1CCCCC1

>  <Name>  (642) 
nan

>  <Pocket>  (642) 
nan

>  <ATP_Site>  (642) 
nan

>  <Peripheral>  (642) 
nan

>  <Num_H_Atoms_ProtBoundConf>  (642) 
nan

>  <Num_Resolved_Atoms>  (642) 
nan

>  <Num_Not_Resolved_Atoms>  (642) 
nan

$$$$
CHEMBL3691666
     RDKit          3D

  0  0  0  0  0  0  0  0  0  0999 V3000
M  V30 BEGIN CTAB
M  V30 COUNTS 65 70 0 0 0
M  V30 BEGIN ATOM
M  V30 1 C 4.238776 -0.051231 3.099751 0
M  V30 2 N 5.197874 1.040004 2.913843 0
M  V30 3 C 6.298873 1.092379 3.881858 0
M  V30 4 C 5.188510 2.059357 1.895966 0
M  V30 5 O 5.998885 3.015903 1.708013 0
M  V30 6 C 4.040714 1.865701 1.012186 0
M  V30 7 C 4.104221 1.242066 -0.215515 0
M  V30 8 C 2.805594 1.250095 -0.736403 0
M  V30 9 C 2.252251 0.779368 -1.906941 0
M  V30 10 N 0.910484 0.979261 -2.054708 0
M  V30 11 C 0.153387 1.597102 -1.124893 0
M  V30 12 N -1.169095 1.605257 -1.646336 0
M  V30 13 C -2.002748 0.466831 -1.453710 0
M  V30 14 C -3.292061 0.364386 -1.946013 0
M  V30 15 C -4.013540 -0.786642 -1.709845 0
M  V30 16 C -3.556505 -1.882320 -1.005470 0
M  V30 17 N -4.296544 -3.074615 -0.809731 0
M  V30 18 C -5.472814 -3.395350 -1.569327 0
M  V30 19 C -5.415542 -4.750975 -2.243447 0 CFG=1
M  V30 20 C -4.159297 -4.839490 -3.090028 0
M  V30 21 C -3.166865 -5.400549 -2.100053 0
M  V30 22 C -3.981777 -6.108440 -1.030231 0 CFG=1
M  V30 23 C -3.672237 -5.446619 0.306805 0
M  V30 24 C -3.798186 -3.992121 0.174227 0
M  V30 25 O -3.329764 -3.457408 1.238469 0
M  V30 26 N -5.375908 -5.814002 -1.290721 0
M  V30 27 C -2.271395 -1.699367 -0.551526 0
M  V30 28 N -1.540053 -0.593805 -0.762298 0
M  V30 29 N 0.721230 2.057756 0.030314 0
M  V30 30 C 2.061487 1.879984 0.222091 0
M  V30 31 N 2.776279 2.263802 1.288180 0
M  V30 32 C 2.391823 2.939723 2.477092 0
M  V30 33 C 1.537447 2.576622 3.478445 0
M  V30 34 C 1.323709 3.414843 4.554598 0
M  V30 35 C 1.957279 4.641440 4.662374 0
M  V30 36 C 2.826418 5.022526 3.652995 0
M  V30 37 C 3.023232 4.174944 2.595081 0
M  V30 38 H 3.808556 -0.342241 2.105040 0
M  V30 39 H 4.784566 -0.947031 3.478715 0
M  V30 40 H 3.388779 0.230671 3.728517 0
M  V30 41 H 7.282987 1.160715 3.340036 0
M  V30 42 H 6.127823 2.005342 4.487201 0
M  V30 43 H 6.313246 0.184114 4.536077 0
M  V30 44 H 4.997975 0.820108 -0.697406 0
M  V30 45 H 2.922840 0.298287 -2.599860 0
M  V30 46 H -1.581954 2.398161 -2.167308 0
M  V30 47 H -3.677065 1.208972 -2.499894 0
M  V30 48 H -5.011952 -0.787391 -2.120076 0
M  V30 49 H -6.422655 -3.268834 -1.042431 0
M  V30 50 H -5.511761 -2.666484 -2.433338 0
M  V30 51 H -6.330779 -4.864652 -2.839217 0
M  V30 52 H -4.263334 -5.449792 -3.988145 0
M  V30 53 H -3.890480 -3.807877 -3.405457 0
M  V30 54 H -2.419932 -6.031039 -2.580680 0
M  V30 55 H -2.600433 -4.537913 -1.668247 0
M  V30 56 H -3.719548 -7.163727 -1.015129 0
M  V30 57 H -4.375884 -5.842190 1.071230 0
M  V30 58 H -2.655430 -5.794834 0.604911 0
M  V30 59 H -5.914211 -5.530105 -0.443547 0
M  V30 60 H -1.737371 -2.445312 0.010239 0
M  V30 61 H 1.089957 1.602959 3.312265 0
M  V30 62 H 0.627166 3.055436 5.313724 0
M  V30 63 H 1.775446 5.289300 5.515676 0
M  V30 64 H 3.286169 5.980755 3.784704 0
M  V30 65 H 3.732073 4.600384 1.872096 0
M  V30 END ATOM
M  V30 BEGIN BOND
M  V30 1 1 1 2
M  V30 2 1 2 3
M  V30 3 1 2 4
M  V30 4 2 4 5
M  V30 5 1 4 6
M  V30 6 2 6 7
M  V30 7 1 7 8
M  V30 8 2 8 9
M  V30 9 1 9 10
M  V30 10 2 10 11
M  V30 11 1 11 12
M  V30 12 1 12 13
M  V30 13 2 13 14
M  V30 14 1 14 15
M  V30 15 2 15 16
M  V30 16 1 16 17
M  V30 17 1 17 18
M  V30 18 1 18 19
M  V30 19 1 19 20
M  V30 20 1 20 21
M  V30 21 1 21 22
M  V30 22 1 22 23
M  V30 23 1 23 24
M  V30 24 2 24 25
M  V30 25 1 22 26
M  V30 26 1 16 27
M  V30 27 2 27 28
M  V30 28 1 11 29
M  V30 29 2 29 30
M  V30 30 1 30 31
M  V30 31 1 31 32
M  V30 32 2 32 33
M  V30 33 1 33 34
M  V30 34 2 34 35
M  V30 35 1 35 36
M  V30 36 2 36 37
M  V30 37 1 31 6
M  V30 38 1 37 32
M  V30 39 1 30 8
M  V30 40 1 28 13
M  V30 41 1 24 17
M  V30 42 1 26 19
M  V30 43 1 1 38
M  V30 44 1 1 39
M  V30 45 1 1 40
M  V30 46 1 3 41
M  V30 47 1 3 42
M  V30 48 1 3 43
M  V30 49 1 7 44
M  V30 50 1 9 45
M  V30 51 1 12 46
M  V30 52 1 14 47
M  V30 53 1 15 48
M  V30 54 1 18 49
M  V30 55 1 18 50
M  V30 56 1 19 51 CFG=3
M  V30 57 1 20 52
M  V30 58 1 20 53
M  V30 59 1 21 54
M  V30 60 1 21 55
M  V30 61 1 22 56 CFG=1
M  V30 62 1 23 57
M  V30 63 1 23 58
M  V30 64 1 26 59
M  V30 65 1 27 60
M  V30 66 1 33 61
M  V30 67 1 34 62
M  V30 68 1 35 63
M  V30 69 1 36 64
M  V30 70 1 37 65
M  V30 END BOND
M  V30 END CTAB
M  END
>  <Dataset>  (643) 
ChEMBL_Kinases

>  <Ligand_Instance>  (643) 
nan

>  <PDB_ID>  (643) 
nan

>  <Standardized_SMILES>  (643) 
CN(C)C(=O)c1cc2cnc(Nc3ccc(N4C[C@H]5CC[C@@H](CC4=O)N5)cn3)nc2n1-c1ccccc1

>  <Name>  (643) 
nan

>  <Pocket>  (643) 
nan

>  <ATP_Site>  (643) 
nan

>  <Peripheral>  (643) 
nan

>  <Num_H_Atoms_ProtBoundConf>  (643) 
nan

>  <Num_Resolved_Atoms>  (643) 
nan

>  <Num_Not_Resolved_Atoms>  (643) 
nan

$$$$
CHEMBL3691665
     RDKit          3D

  0  0  0  0  0  0  0  0  0  0999 V3000
M  V30 BEGIN CTAB
M  V30 COUNTS 65 70 0 0 0
M  V30 BEGIN ATOM
M  V30 1 C 3.631480 0.050306 3.386825 0
M  V30 2 N 4.864343 0.811349 3.260296 0
M  V30 3 C 5.553133 0.884614 4.538805 0
M  V30 4 C 5.301665 1.391959 2.037635 0
M  V30 5 O 6.398896 2.007451 2.155486 0
M  V30 6 C 4.442340 1.192390 0.877857 0
M  V30 7 C 4.828349 0.490176 -0.243902 0
M  V30 8 C 3.719712 0.539988 -1.101635 0
M  V30 9 C 3.599952 -0.020288 -2.355925 0
M  V30 10 N 2.412287 0.171081 -2.975919 0
M  V30 11 C 1.429918 0.884820 -2.346882 0
M  V30 12 N 0.159389 1.049786 -3.026746 0
M  V30 13 C -0.852361 0.115844 -2.588380 0
M  V30 14 C -2.117018 0.096351 -3.131814 0
M  V30 15 C -3.099069 -0.765781 -2.723169 0
M  V30 16 C -2.807148 -1.658905 -1.717562 0
M  V30 17 N -3.583652 -2.674584 -1.056461 0
M  V30 18 C -3.465568 -3.978982 -1.694876 0
M  V30 19 C -4.453441 -4.970753 -1.159112 0 CFG=2
M  V30 20 C -5.886937 -4.538135 -1.388525 0
M  V30 21 C -6.419727 -4.156978 -0.041962 0
M  V30 22 C -5.252877 -4.316071 0.896931 0 CFG=2
M  V30 23 C -4.611697 -3.022956 1.259674 0
M  V30 24 C -4.293772 -2.168419 0.078822 0
M  V30 25 O -4.602988 -0.959625 -0.040689 0
M  V30 26 N -4.306718 -5.199536 0.263152 0
M  V30 27 C -1.541138 -1.647495 -1.166597 0
M  V30 28 N -0.610141 -0.782848 -1.599928 0
M  V30 29 N 1.582945 1.427413 -1.101803 0
M  V30 30 C 2.760062 1.264366 -0.431946 0
M  V30 31 N 3.188173 1.668615 0.777259 0
M  V30 32 C 2.450625 2.432828 1.726937 0
M  V30 33 C 1.153095 2.106797 2.147012 0
M  V30 34 C 0.506095 2.901195 3.070478 0
M  V30 35 C 1.108273 4.039103 3.611691 0
M  V30 36 C 2.401976 4.325306 3.163730 0
M  V30 37 C 3.087071 3.550661 2.235457 0
M  V30 38 H 3.235968 -0.290000 2.395636 0
M  V30 39 H 3.852142 -0.908168 3.937467 0
M  V30 40 H 2.864572 0.606828 3.946988 0
M  V30 41 H 6.612579 1.198268 4.440874 0
M  V30 42 H 5.063256 1.645947 5.169092 0
M  V30 43 H 5.542132 -0.101722 5.066067 0
M  V30 44 H 5.811824 0.013607 -0.377150 0
M  V30 45 H 4.433110 -0.577149 -2.787536 0
M  V30 46 H -0.130213 1.724452 -3.765937 0
M  V30 47 H -2.386439 0.772071 -3.912941 0
M  V30 48 H -4.103531 -0.875778 -3.062343 0
M  V30 49 H -3.647171 -3.860491 -2.773245 0
M  V30 50 H -2.452349 -4.420305 -1.504902 0
M  V30 51 H -4.250973 -5.927883 -1.671177 0
M  V30 52 H -6.439244 -5.397070 -1.840639 0
M  V30 53 H -5.956177 -3.722816 -2.110991 0
M  V30 54 H -6.825823 -3.112128 -0.027347 0
M  V30 55 H -7.264575 -4.824132 0.200409 0
M  V30 56 H -5.661203 -4.755866 1.827941 0
M  V30 57 H -3.729045 -3.199501 1.876838 0
M  V30 58 H -5.346620 -2.403002 1.855702 0
M  V30 59 H -3.334256 -5.022896 0.613854 0
M  V30 60 H -1.114728 -2.260763 -0.373929 0
M  V30 61 H 0.744348 1.223326 1.695455 0
M  V30 62 H -0.490221 2.616868 3.367396 0
M  V30 63 H 0.622094 4.668975 4.331047 0
M  V30 64 H 2.913091 5.193331 3.548249 0
M  V30 65 H 4.080868 3.847147 1.945701 0
M  V30 END ATOM
M  V30 BEGIN BOND
M  V30 1 1 1 2
M  V30 2 1 2 3
M  V30 3 1 2 4
M  V30 4 2 4 5
M  V30 5 1 4 6
M  V30 6 2 6 7
M  V30 7 1 7 8
M  V30 8 2 8 9
M  V30 9 1 9 10
M  V30 10 2 10 11
M  V30 11 1 11 12
M  V30 12 1 12 13
M  V30 13 2 13 14
M  V30 14 1 14 15
M  V30 15 2 15 16
M  V30 16 1 16 17
M  V30 17 1 17 18
M  V30 18 1 18 19
M  V30 19 1 19 20
M  V30 20 1 20 21
M  V30 21 1 21 22
M  V30 22 1 22 23
M  V30 23 1 23 24
M  V30 24 2 24 25
M  V30 25 1 22 26
M  V30 26 1 16 27
M  V30 27 2 27 28
M  V30 28 1 11 29
M  V30 29 2 29 30
M  V30 30 1 30 31
M  V30 31 1 31 32
M  V30 32 2 32 33
M  V30 33 1 33 34
M  V30 34 2 34 35
M  V30 35 1 35 36
M  V30 36 2 36 37
M  V30 37 1 31 6
M  V30 38 1 37 32
M  V30 39 1 30 8
M  V30 40 1 28 13
M  V30 41 1 24 17
M  V30 42 1 26 19
M  V30 43 1 1 38
M  V30 44 1 1 39
M  V30 45 1 1 40
M  V30 46 1 3 41
M  V30 47 1 3 42
M  V30 48 1 3 43
M  V30 49 1 7 44
M  V30 50 1 9 45
M  V30 51 1 12 46
M  V30 52 1 14 47
M  V30 53 1 15 48
M  V30 54 1 18 49
M  V30 55 1 18 50
M  V30 56 1 19 51 CFG=3
M  V30 57 1 20 52
M  V30 58 1 20 53
M  V30 59 1 21 54
M  V30 60 1 21 55
M  V30 61 1 22 56 CFG=1
M  V30 62 1 23 57
M  V30 63 1 23 58
M  V30 64 1 26 59
M  V30 65 1 27 60
M  V30 66 1 33 61
M  V30 67 1 34 62
M  V30 68 1 35 63
M  V30 69 1 36 64
M  V30 70 1 37 65
M  V30 END BOND
M  V30 END CTAB
M  END
>  <Dataset>  (644) 
ChEMBL_Kinases

>  <Ligand_Instance>  (644) 
nan

>  <PDB_ID>  (644) 
nan

>  <Standardized_SMILES>  (644) 
CN(C)C(=O)c1cc2cnc(Nc3ccc(N4C[C@@H]5CC[C@H](CC4=O)N5)cn3)nc2n1-c1ccccc1

>  <Name>  (644) 
nan

>  <Pocket>  (644) 
nan

>  <ATP_Site>  (644) 
nan

>  <Peripheral>  (644) 
nan

>  <Num_H_Atoms_ProtBoundConf>  (644) 
nan

>  <Num_Resolved_Atoms>  (644) 
nan

>  <Num_Not_Resolved_Atoms>  (644) 
nan

$$$$
CHEMBL3691664
     RDKit          3D

  0  0  0  0  0  0  0  0  0  0999 V3000
M  V30 BEGIN CTAB
M  V30 COUNTS 65 70 0 0 0
M  V30 BEGIN ATOM
M  V30 1 C 3.879273 0.509737 3.397094 0
M  V30 2 N 4.966102 1.472625 3.168044 0
M  V30 3 C 5.953474 1.502412 4.234533 0
M  V30 4 C 5.049480 2.321251 1.999956 0
M  V30 5 O 6.079293 3.082646 1.984213 0
M  V30 6 C 3.893443 2.089922 1.095772 0
M  V30 7 C 3.980127 1.401208 -0.089184 0
M  V30 8 C 2.664152 1.401136 -0.564218 0
M  V30 9 C 2.170933 0.826744 -1.725348 0
M  V30 10 N 0.826076 0.963383 -1.937191 0
M  V30 11 C 0.057509 1.620095 -1.055508 0
M  V30 12 N -1.301452 1.607493 -1.493953 0
M  V30 13 C -1.999076 0.364271 -1.335337 0
M  V30 14 C -3.313529 0.158227 -1.683522 0
M  V30 15 C -3.949656 -1.056422 -1.548534 0
M  V30 16 C -3.292217 -2.187718 -1.041539 0
M  V30 17 N -3.918762 -3.450837 -0.928641 0
M  V30 18 C -5.188520 -3.722053 -1.520185 0
M  V30 19 C -5.361749 -5.088802 -2.105547 0
M  V30 20 C -4.510615 -5.366691 -3.319130 0
M  V30 21 C -3.173400 -5.662932 -2.685281 0
M  V30 22 C -3.587430 -6.454312 -1.458917 0
M  V30 23 C -2.894634 -5.868479 -0.248084 0
M  V30 24 C -3.197129 -4.441332 -0.214221 0
M  V30 25 O -2.559585 -4.065210 0.832674 0
M  V30 26 N -5.009909 -6.182338 -1.249411 0
M  V30 27 C -1.990115 -1.907779 -0.715381 0
M  V30 28 N -1.362019 -0.733273 -0.839044 0
M  V30 29 N 0.571189 2.174968 0.076672 0
M  V30 30 C 1.903579 2.067813 0.335345 0
M  V30 31 N 2.643233 2.504880 1.370192 0
M  V30 32 C 2.247607 3.259212 2.499995 0
M  V30 33 C 1.256465 3.078653 3.431279 0
M  V30 34 C 1.078353 3.988027 4.449778 0
M  V30 35 C 1.877968 5.102372 4.579254 0
M  V30 36 C 2.897133 5.344248 3.676752 0
M  V30 37 C 3.047547 4.404980 2.656990 0
M  V30 38 H 3.439123 0.206582 2.398793 0
M  V30 39 H 4.281119 -0.403946 3.834072 0
M  V30 40 H 3.098254 0.907115 4.057776 0
M  V30 41 H 6.983385 1.348801 3.901122 0
M  V30 42 H 5.848741 2.538006 4.673344 0
M  V30 43 H 5.697368 0.827984 5.075876 0
M  V30 44 H 4.880287 0.977292 -0.515641 0
M  V30 45 H 2.859886 0.313083 -2.397369 0
M  V30 46 H -1.884420 2.368167 -1.928114 0
M  V30 47 H -3.880550 0.995387 -2.082897 0
M  V30 48 H -4.979266 -1.127556 -1.845119 0
M  V30 49 H -5.452683 -2.995083 -2.324884 0
M  V30 50 H -5.983070 -3.609681 -0.751454 0
M  V30 51 H -6.419925 -5.148692 -2.459941 0
M  V30 52 H -4.879823 -6.325670 -3.756303 0
M  V30 53 H -4.510930 -4.598334 -4.080593 0
M  V30 54 H -2.574547 -6.249258 -3.402761 0
M  V30 55 H -2.623811 -4.751542 -2.471514 0
M  V30 56 H -3.364832 -7.514881 -1.621078 0
M  V30 57 H -3.327991 -6.350462 0.657440 0
M  V30 58 H -1.829919 -6.082479 -0.356544 0
M  V30 59 H -5.232159 -5.994306 -0.264747 0
M  V30 60 H -1.319318 -2.645680 -0.323488 0
M  V30 61 H 0.690944 2.178226 3.237151 0
M  V30 62 H 0.262801 3.775126 5.153566 0
M  V30 63 H 1.724632 5.811957 5.390766 0
M  V30 64 H 3.511567 6.209760 3.787042 0
M  V30 65 H 3.870932 4.674155 1.989922 0
M  V30 END ATOM
M  V30 BEGIN BOND
M  V30 1 1 1 2
M  V30 2 1 2 3
M  V30 3 1 2 4
M  V30 4 2 4 5
M  V30 5 1 4 6
M  V30 6 2 6 7
M  V30 7 1 7 8
M  V30 8 2 8 9
M  V30 9 1 9 10
M  V30 10 2 10 11
M  V30 11 1 11 12
M  V30 12 1 12 13
M  V30 13 2 13 14
M  V30 14 1 14 15
M  V30 15 2 15 16
M  V30 16 1 16 17
M  V30 17 1 17 18
M  V30 18 1 18 19
M  V30 19 1 19 20
M  V30 20 1 20 21
M  V30 21 1 21 22
M  V30 22 1 22 23
M  V30 23 1 23 24
M  V30 24 2 24 25
M  V30 25 1 22 26
M  V30 26 1 16 27
M  V30 27 2 27 28
M  V30 28 1 11 29
M  V30 29 2 29 30
M  V30 30 1 30 31
M  V30 31 1 31 32
M  V30 32 2 32 33
M  V30 33 1 33 34
M  V30 34 2 34 35
M  V30 35 1 35 36
M  V30 36 2 36 37
M  V30 37 1 31 6
M  V30 38 1 37 32
M  V30 39 1 30 8
M  V30 40 1 28 13
M  V30 41 1 24 17
M  V30 42 1 26 19
M  V30 43 1 1 38
M  V30 44 1 1 39
M  V30 45 1 1 40
M  V30 46 1 3 41
M  V30 47 1 3 42
M  V30 48 1 3 43
M  V30 49 1 7 44
M  V30 50 1 9 45
M  V30 51 1 12 46
M  V30 52 1 14 47
M  V30 53 1 15 48
M  V30 54 1 18 49
M  V30 55 1 18 50
M  V30 56 1 19 51
M  V30 57 1 20 52
M  V30 58 1 20 53
M  V30 59 1 21 54
M  V30 60 1 21 55
M  V30 61 1 22 56
M  V30 62 1 23 57
M  V30 63 1 23 58
M  V30 64 1 26 59
M  V30 65 1 27 60
M  V30 66 1 33 61
M  V30 67 1 34 62
M  V30 68 1 35 63
M  V30 69 1 36 64
M  V30 70 1 37 65
M  V30 END BOND
M  V30 END CTAB
M  END
>  <Dataset>  (645) 
ChEMBL_Kinases

>  <Ligand_Instance>  (645) 
nan

>  <PDB_ID>  (645) 
nan

>  <Standardized_SMILES>  (645) 
CN(C)C(=O)c1cc2cnc(Nc3ccc(N4CC5CCC(CC4=O)N5)cn3)nc2n1-c1ccccc1

>  <Name>  (645) 
nan

>  <Pocket>  (645) 
nan

>  <ATP_Site>  (645) 
nan

>  <Peripheral>  (645) 
nan

>  <Num_H_Atoms_ProtBoundConf>  (645) 
nan

>  <Num_Resolved_Atoms>  (645) 
nan

>  <Num_Not_Resolved_Atoms>  (645) 
nan

$$$$
CHEMBL3691663
     RDKit          3D

  0  0  0  0  0  0  0  0  0  0999 V3000
M  V30 BEGIN CTAB
M  V30 COUNTS 75 80 0 0 0
M  V30 BEGIN ATOM
M  V30 1 C 2.184608 -6.209313 3.411772 0
M  V30 2 N 1.653908 -4.926283 2.948490 0
M  V30 3 C 0.296021 -4.810530 2.444274 0
M  V30 4 C 2.618458 -3.853414 3.058836 0
M  V30 5 O 3.674856 -4.341894 3.532049 0
M  V30 6 C 2.092082 -2.573850 2.604357 0
M  V30 7 C 0.951770 -2.023976 3.211672 0
M  V30 8 C 0.743436 -0.838829 2.526974 0
M  V30 9 C -0.257813 0.069370 2.728292 0
M  V30 10 N -0.238482 1.153829 1.896726 0
M  V30 11 C 0.719901 1.307686 0.935821 0
M  V30 12 N 0.474769 2.518124 0.182842 0
M  V30 13 C -0.904664 2.720448 -0.194245 0
M  V30 14 C -1.389302 3.809339 -0.877809 0
M  V30 15 C -2.702365 3.967784 -1.242092 0
M  V30 16 C -3.608209 2.981611 -0.912288 0
M  V30 17 N -5.008369 2.814264 -1.117621 0
M  V30 18 C -5.495859 2.204422 -2.335456 0
M  V30 19 C -6.807287 1.518841 -2.185393 0
M  V30 20 C -6.800481 0.365508 -1.248388 0
M  V30 21 C -7.961419 0.649699 -0.326191 0
M  V30 22 C -8.039282 2.160661 -0.363499 0
M  V30 23 C -7.045486 2.723263 0.591759 0
M  V30 24 C -5.822594 3.290778 -0.026849 0
M  V30 25 O -5.403342 4.388436 0.482786 0
M  V30 26 N -7.780881 2.465688 -1.735908 0
M  V30 27 C -3.127329 1.873397 -0.219658 0
M  V30 28 N -1.827996 1.785574 0.105495 0
M  V30 29 N 1.707330 0.415537 0.736939 0
M  V30 30 C 1.715094 -0.677245 1.549137 0
M  V30 31 N 2.508350 -1.746265 1.631747 0
M  V30 32 C 3.660352 -2.070170 0.865805 0
M  V30 33 C 3.837795 -3.304535 0.272148 0
M  V30 34 C 4.992555 -3.579324 -0.448807 0
M  V30 35 C 5.964492 -2.580254 -0.557228 0
M  V30 36 C 7.246898 -2.771531 -1.284329 0
M  V30 37 C 7.099791 -2.388406 -2.737419 0
M  V30 38 C 7.622269 -4.234895 -1.223679 0
M  V30 39 C 8.290762 -1.965921 -0.640183 0
M  V30 40 N 9.111789 -1.321278 -0.113934 0
M  V30 41 C 5.782645 -1.340892 0.039345 0
M  V30 42 C 4.621028 -1.079258 0.758652 0
M  V30 43 H 2.879580 -6.097026 4.265122 0
M  V30 44 H 2.761612 -6.691261 2.571172 0
M  V30 45 H 1.372887 -6.878749 3.772673 0
M  V30 46 H 0.005741 -5.853403 2.136610 0
M  V30 47 H -0.425926 -4.487187 3.218808 0
M  V30 48 H 0.303008 -4.124591 1.571999 0
M  V30 49 H 0.356126 -2.399756 4.025320 0
M  V30 50 H -1.013188 -0.047022 3.481780 0
M  V30 51 H 1.189213 3.204951 -0.086119 0
M  V30 52 H -0.699713 4.581988 -1.140270 0
M  V30 53 H -3.159377 4.761991 -1.762736 0
M  V30 54 H -4.711721 1.476258 -2.644966 0
M  V30 55 H -5.579656 2.917611 -3.183470 0
M  V30 56 H -7.118459 1.164305 -3.183382 0
M  V30 57 H -5.835619 0.358971 -0.704290 0
M  V30 58 H -6.992646 -0.595271 -1.766916 0
M  V30 59 H -7.700905 0.282162 0.691728 0
M  V30 60 H -8.869970 0.174064 -0.736909 0
M  V30 61 H -9.087479 2.471955 -0.114095 0
M  V30 62 H -6.793615 1.952552 1.381558 0
M  V30 63 H -7.546483 3.539853 1.169921 0
M  V30 64 H -7.419954 3.459583 -1.796785 0
M  V30 65 H -3.669807 0.985708 0.134708 0
M  V30 66 H 3.071755 -4.066567 0.365311 0
M  V30 67 H 5.178534 -4.527026 -0.933050 0
M  V30 68 H 8.058997 -2.028361 -3.175302 0
M  V30 69 H 6.656712 -3.212542 -3.351156 0
M  V30 70 H 6.380852 -1.539201 -2.837582 0
M  V30 71 H 7.067839 -4.750074 -2.036488 0
M  V30 72 H 8.696397 -4.307193 -1.520716 0
M  V30 73 H 7.440979 -4.678523 -0.221504 0
M  V30 74 H 6.531239 -0.553041 -0.037302 0
M  V30 75 H 4.479367 -0.122466 1.222236 0
M  V30 END ATOM
M  V30 BEGIN BOND
M  V30 1 1 1 2
M  V30 2 1 2 3
M  V30 3 1 2 4
M  V30 4 2 4 5
M  V30 5 1 4 6
M  V30 6 2 6 7
M  V30 7 1 7 8
M  V30 8 2 8 9
M  V30 9 1 9 10
M  V30 10 2 10 11
M  V30 11 1 11 12
M  V30 12 1 12 13
M  V30 13 2 13 14
M  V30 14 1 14 15
M  V30 15 2 15 16
M  V30 16 1 16 17
M  V30 17 1 17 18
M  V30 18 1 18 19
M  V30 19 1 19 20
M  V30 20 1 20 21
M  V30 21 1 21 22
M  V30 22 1 22 23
M  V30 23 1 23 24
M  V30 24 2 24 25
M  V30 25 1 22 26
M  V30 26 1 16 27
M  V30 27 2 27 28
M  V30 28 1 11 29
M  V30 29 2 29 30
M  V30 30 1 30 31
M  V30 31 1 31 32
M  V30 32 2 32 33
M  V30 33 1 33 34
M  V30 34 2 34 35
M  V30 35 1 35 36
M  V30 36 1 36 37
M  V30 37 1 36 38
M  V30 38 1 36 39
M  V30 39 3 39 40
M  V30 40 1 35 41
M  V30 41 2 41 42
M  V30 42 1 31 6
M  V30 43 1 42 32
M  V30 44 1 30 8
M  V30 45 1 28 13
M  V30 46 1 24 17
M  V30 47 1 26 19
M  V30 48 1 1 43
M  V30 49 1 1 44
M  V30 50 1 1 45
M  V30 51 1 3 46
M  V30 52 1 3 47
M  V30 53 1 3 48
M  V30 54 1 7 49
M  V30 55 1 9 50
M  V30 56 1 12 51
M  V30 57 1 14 52
M  V30 58 1 15 53
M  V30 59 1 18 54
M  V30 60 1 18 55
M  V30 61 1 19 56
M  V30 62 1 20 57
M  V30 63 1 20 58
M  V30 64 1 21 59
M  V30 65 1 21 60
M  V30 66 1 22 61
M  V30 67 1 23 62
M  V30 68 1 23 63
M  V30 69 1 26 64
M  V30 70 1 27 65
M  V30 71 1 33 66
M  V30 72 1 34 67
M  V30 73 1 37 68
M  V30 74 1 37 69
M  V30 75 1 37 70
M  V30 76 1 38 71
M  V30 77 1 38 72
M  V30 78 1 38 73
M  V30 79 1 41 74
M  V30 80 1 42 75
M  V30 END BOND
M  V30 END CTAB
M  END
>  <Dataset>  (646) 
ChEMBL_Kinases

>  <Ligand_Instance>  (646) 
nan

>  <PDB_ID>  (646) 
nan

>  <Standardized_SMILES>  (646) 
CN(C)C(=O)c1cc2cnc(Nc3ccc(N4CC5CCC(CC4=O)N5)cn3)nc2n1-c1ccc(C(C)(C)C#N)cc1

>  <Name>  (646) 
nan

>  <Pocket>  (646) 
nan

>  <ATP_Site>  (646) 
nan

>  <Peripheral>  (646) 
nan

>  <Num_H_Atoms_ProtBoundConf>  (646) 
nan

>  <Num_Resolved_Atoms>  (646) 
nan

>  <Num_Not_Resolved_Atoms>  (646) 
nan

$$$$
CHEMBL369254
     RDKit          3D

  0  0  0  0  0  0  0  0  0  0999 V3000
M  V30 BEGIN CTAB
M  V30 COUNTS 46 50 0 0 0
M  V30 BEGIN ATOM
M  V30 1 N 1.274762 -7.755719 -3.217237 0
M  V30 2 C 2.477485 -7.408754 -2.591306 0
M  V30 3 O 3.438347 -8.193886 -2.499338 0
M  V30 4 C 2.615291 -6.058767 -2.016269 0
M  V30 5 C 3.776157 -5.661677 -1.388396 0
M  V30 6 C 3.953254 -4.401798 -0.831890 0
M  V30 7 C 2.891860 -3.500927 -0.920412 0
M  V30 8 N 2.750488 -2.233602 -0.491454 0
M  V30 9 C 1.524433 -1.783933 -0.820734 0
M  V30 10 C 1.022401 -0.443536 -0.511427 0
M  V30 11 C 1.857622 0.425483 0.164308 0
M  V30 12 C 1.404512 1.701245 0.468780 0
M  V30 13 C 0.111747 2.083034 0.086116 0
M  V30 14 O -0.437814 3.344076 0.345438 0
M  V30 15 C -1.151448 3.584005 1.534140 0
M  V30 16 C -1.676747 4.836724 1.752964 0
M  V30 17 C -2.370735 5.051494 2.920248 0
M  V30 18 C -2.528098 4.037061 3.833182 0
M  V30 19 C -3.223017 4.260901 4.996655 0
M  V30 20 C -3.404028 3.255747 5.948147 0
M  V30 21 C -2.851852 2.023014 5.666861 0
M  V30 22 C -2.145369 1.738591 4.518692 0
M  V30 23 C -2.006102 2.784684 3.620325 0
M  V30 24 C -1.306974 2.546583 2.457653 0
M  V30 25 C -0.688928 1.175348 -0.590323 0
M  V30 26 C -0.256378 -0.098784 -0.902586 0
M  V30 27 N 0.902620 -2.779803 -1.457905 0
M  V30 28 C 1.707895 -3.863581 -1.544511 0
M  V30 29 C 1.582175 -5.144293 -2.087984 0
M  V30 30 H 0.700581 -8.368800 -2.571579 0
M  V30 31 H 0.642839 -7.703705 -4.040689 0
M  V30 32 H 4.551877 -6.413824 -1.359719 0
M  V30 33 H 4.877342 -4.163239 -0.361879 0
M  V30 34 H 3.495802 -1.714820 0.013015 0
M  V30 35 H 2.863147 0.199224 0.489108 0
M  V30 36 H 1.990085 2.459862 0.999900 0
M  V30 37 H -1.578648 5.664486 1.064712 0
M  V30 38 H -2.793484 6.051680 3.101234 0
M  V30 39 H -3.655445 5.234668 5.211839 0
M  V30 40 H -3.952887 3.406229 6.883125 0
M  V30 41 H -2.973711 1.215321 6.387292 0
M  V30 42 H -1.709967 0.778875 4.289395 0
M  V30 43 H -0.883981 1.586043 2.252070 0
M  V30 44 H -1.705326 1.419957 -0.912523 0
M  V30 45 H -0.864257 -0.818734 -1.427988 0
M  V30 46 H 0.640770 -5.398621 -2.571150 0
M  V30 END ATOM
M  V30 BEGIN BOND
M  V30 1 1 1 2
M  V30 2 2 2 3
M  V30 3 1 2 4
M  V30 4 2 4 5
M  V30 5 1 5 6
M  V30 6 2 6 7
M  V30 7 1 7 8
M  V30 8 1 8 9
M  V30 9 1 9 10
M  V30 10 2 10 11
M  V30 11 1 11 12
M  V30 12 2 12 13
M  V30 13 1 13 14
M  V30 14 1 14 15
M  V30 15 2 15 16
M  V30 16 1 16 17
M  V30 17 2 17 18
M  V30 18 1 18 19
M  V30 19 2 19 20
M  V30 20 1 20 21
M  V30 21 2 21 22
M  V30 22 1 22 23
M  V30 23 2 23 24
M  V30 24 1 13 25
M  V30 25 2 25 26
M  V30 26 2 9 27
M  V30 27 1 27 28
M  V30 28 2 28 29
M  V30 29 1 29 4
M  V30 30 1 28 7
M  V30 31 1 26 10
M  V30 32 1 24 15
M  V30 33 1 23 18
M  V30 34 1 1 30
M  V30 35 1 1 31
M  V30 36 1 5 32
M  V30 37 1 6 33
M  V30 38 1 8 34
M  V30 39 1 11 35
M  V30 40 1 12 36
M  V30 41 1 16 37
M  V30 42 1 17 38
M  V30 43 1 19 39
M  V30 44 1 20 40
M  V30 45 1 21 41
M  V30 46 1 22 42
M  V30 47 1 24 43
M  V30 48 1 25 44
M  V30 49 1 26 45
M  V30 50 1 29 46
M  V30 END BOND
M  V30 END CTAB
M  END
>  <Dataset>  (647) 
ChEMBL_Kinases

>  <Ligand_Instance>  (647) 
nan

>  <PDB_ID>  (647) 
nan

>  <Standardized_SMILES>  (647) 
NC(=O)c1ccc2[nH]c(-c3ccc(Oc4ccc5ccccc5c4)cc3)nc2c1

>  <Name>  (647) 
nan

>  <Pocket>  (647) 
nan

>  <ATP_Site>  (647) 
nan

>  <Peripheral>  (647) 
nan

>  <Num_H_Atoms_ProtBoundConf>  (647) 
nan

>  <Num_Resolved_Atoms>  (647) 
nan

>  <Num_Not_Resolved_Atoms>  (647) 
nan

$$$$
CHEMBL3691645
     RDKit          3D

  0  0  0  0  0  0  0  0  0  0999 V3000
M  V30 BEGIN CTAB
M  V30 COUNTS 72 77 0 0 0
M  V30 BEGIN ATOM
M  V30 1 C 5.303640 -2.917126 5.141424 0
M  V30 2 N 4.314572 -1.887249 4.979843 0
M  V30 3 C 4.402461 -0.832168 5.941207 0
M  V30 4 C 5.136693 0.386012 5.485216 0
M  V30 5 C 6.047337 0.023055 4.336710 0
M  V30 6 C 5.179744 -0.423503 3.202927 0
M  V30 7 C 4.157032 -1.466345 3.620794 0
M  V30 8 C 4.404602 0.779280 2.703938 0
M  V30 9 N 4.137873 0.482693 1.286316 0
M  V30 10 C 3.089029 1.175081 0.622665 0
M  V30 11 C 1.873279 0.491462 0.753152 0
M  V30 12 C 0.693269 0.984261 0.179938 0
M  V30 13 C 0.820884 2.173450 -0.510204 0
M  V30 14 N -0.328348 2.745860 -1.124270 0
M  V30 15 C -1.599000 2.112554 -1.034650 0
M  V30 16 N -2.371288 2.465145 0.007836 0
M  V30 17 C -3.583570 1.896577 0.140899 0
M  V30 18 C -3.980208 0.967586 -0.810879 0
M  V30 19 C -5.159408 0.275934 -0.868198 0
M  V30 20 C -5.097317 -0.536524 -2.003130 0
M  V30 21 C -6.172905 -1.399396 -2.367875 0
M  V30 22 O -6.818162 -1.247323 -3.462107 0
M  V30 23 N -6.574031 -2.471433 -1.522787 0
M  V30 24 C -5.899256 -2.711201 -0.271214 0
M  V30 25 C -7.667615 -3.365484 -1.873564 0
M  V30 26 N -3.910255 -0.316682 -2.583766 0
M  V30 27 C -3.423077 -0.925518 -3.758370 0
M  V30 28 C -1.953389 -1.250547 -3.578455 0
M  V30 29 C -1.851870 -2.708812 -3.947410 0
M  V30 30 C -2.935995 -2.847661 -4.985993 0
M  V30 31 C -4.091595 -2.072355 -4.328274 0
M  V30 32 C -3.210840 0.595438 -1.877255 0
M  V30 33 N -2.013323 1.208372 -1.939961 0
M  V30 34 N 2.000265 2.840232 -0.639022 0
M  V30 35 C 3.129287 2.360518 -0.085438 0
M  V30 36 C 5.101583 -0.520108 0.938047 0
M  V30 37 O 5.055626 -0.911478 -0.270180 0
M  V30 38 O 5.894028 -0.841803 2.053850 0
M  V30 39 H 5.740116 -2.926494 6.164787 0
M  V30 40 H 6.075172 -2.947722 4.352483 0
M  V30 41 H 4.756546 -3.901432 5.059322 0
M  V30 42 H 3.338823 -0.527516 6.165124 0
M  V30 43 H 4.831084 -1.268685 6.880570 0
M  V30 44 H 5.720347 0.847399 6.307919 0
M  V30 45 H 4.422625 1.134120 5.096797 0
M  V30 46 H 6.835305 -0.688843 4.624980 0
M  V30 47 H 6.543101 0.979701 4.017466 0
M  V30 48 H 4.274724 -2.355436 2.974938 0
M  V30 49 H 3.101942 -1.102849 3.490023 0
M  V30 50 H 5.016116 1.712269 2.698122 0
M  V30 51 H 3.494280 0.980219 3.274880 0
M  V30 52 H 1.726040 -0.451821 1.289335 0
M  V30 53 H -0.249199 0.463796 0.275050 0
M  V30 54 H -0.289149 3.632195 -1.653253 0
M  V30 55 H -4.205128 2.188806 0.991508 0
M  V30 56 H -5.994508 0.349328 -0.153345 0
M  V30 57 H -4.803606 -2.618158 -0.314543 0
M  V30 58 H -6.292671 -2.008245 0.516555 0
M  V30 59 H -6.110675 -3.727596 0.119671 0
M  V30 60 H -7.999392 -3.094427 -2.911976 0
M  V30 61 H -8.506112 -3.261897 -1.165832 0
M  V30 62 H -7.330868 -4.433870 -1.885597 0
M  V30 63 H -3.447234 -0.112813 -4.548625 0
M  V30 64 H -1.292396 -0.714660 -4.302106 0
M  V30 65 H -1.587329 -1.048609 -2.551456 0
M  V30 66 H -0.842066 -2.928727 -4.392372 0
M  V30 67 H -2.063452 -3.302848 -3.039625 0
M  V30 68 H -3.208133 -3.904429 -5.141433 0
M  V30 69 H -2.643328 -2.330983 -5.898605 0
M  V30 70 H -4.760361 -1.835162 -5.182204 0
M  V30 71 H -4.585314 -2.822302 -3.718936 0
M  V30 72 H 4.117220 2.798768 -0.120747 0
M  V30 END ATOM
M  V30 BEGIN BOND
M  V30 1 1 1 2
M  V30 2 1 2 3
M  V30 3 1 3 4
M  V30 4 1 4 5
M  V30 5 1 5 6
M  V30 6 1 6 7
M  V30 7 1 6 8
M  V30 8 1 8 9
M  V30 9 1 9 10
M  V30 10 2 10 11
M  V30 11 1 11 12
M  V30 12 2 12 13
M  V30 13 1 13 14
M  V30 14 1 14 15
M  V30 15 2 15 16
M  V30 16 1 16 17
M  V30 17 2 17 18
M  V30 18 1 18 19
M  V30 19 2 19 20
M  V30 20 1 20 21
M  V30 21 2 21 22
M  V30 22 1 21 23
M  V30 23 1 23 24
M  V30 24 1 23 25
M  V30 25 1 20 26
M  V30 26 1 26 27
M  V30 27 1 27 28
M  V30 28 1 28 29
M  V30 29 1 29 30
M  V30 30 1 30 31
M  V30 31 1 26 32
M  V30 32 2 32 33
M  V30 33 1 13 34
M  V30 34 2 34 35
M  V30 35 1 9 36
M  V30 36 2 36 37
M  V30 37 1 36 38
M  V30 38 1 7 2
M  V30 39 1 35 10
M  V30 40 1 38 6
M  V30 41 1 33 15
M  V30 42 1 32 18
M  V30 43 1 31 27
M  V30 44 1 1 39
M  V30 45 1 1 40
M  V30 46 1 1 41
M  V30 47 1 3 42
M  V30 48 1 3 43
M  V30 49 1 4 44
M  V30 50 1 4 45
M  V30 51 1 5 46
M  V30 52 1 5 47
M  V30 53 1 7 48
M  V30 54 1 7 49
M  V30 55 1 8 50
M  V30 56 1 8 51
M  V30 57 1 11 52
M  V30 58 1 12 53
M  V30 59 1 14 54
M  V30 60 1 17 55
M  V30 61 1 19 56
M  V30 62 1 24 57
M  V30 63 1 24 58
M  V30 64 1 24 59
M  V30 65 1 25 60
M  V30 66 1 25 61
M  V30 67 1 25 62
M  V30 68 1 27 63
M  V30 69 1 28 64
M  V30 70 1 28 65
M  V30 71 1 29 66
M  V30 72 1 29 67
M  V30 73 1 30 68
M  V30 74 1 30 69
M  V30 75 1 31 70
M  V30 76 1 31 71
M  V30 77 1 35 72
M  V30 END BOND
M  V30 END CTAB
M  END
>  <Dataset>  (648) 
ChEMBL_Kinases

>  <Ligand_Instance>  (648) 
nan

>  <PDB_ID>  (648) 
nan

>  <Standardized_SMILES>  (648) 
CN1CCCC2(C1)CN(c1ccc(Nc3ncc4cc(C(=O)N(C)C)n(C5CCCC5)c4n3)nc1)C(=O)O2

>  <Name>  (648) 
nan

>  <Pocket>  (648) 
nan

>  <ATP_Site>  (648) 
nan

>  <Peripheral>  (648) 
nan

>  <Num_H_Atoms_ProtBoundConf>  (648) 
nan

>  <Num_Resolved_Atoms>  (648) 
nan

>  <Num_Not_Resolved_Atoms>  (648) 
nan

$$$$
CHEMBL3691646
     RDKit          3D

  0  0  0  0  0  0  0  0  0  0999 V3000
M  V30 BEGIN CTAB
M  V30 COUNTS 69 74 0 0 0
M  V30 BEGIN ATOM
M  V30 1 C 4.767790 0.254773 -0.415040 0
M  V30 2 N 5.386530 1.538748 -0.080292 0
M  V30 3 C 6.823171 1.348449 0.153990 0
M  V30 4 C 4.744193 2.821654 0.019976 0
M  V30 5 O 5.516351 3.793697 0.329795 0
M  V30 6 C 3.318722 2.725045 -0.262164 0
M  V30 7 C 2.805998 2.857184 -1.536196 0
M  V30 8 C 1.432437 2.690890 -1.325243 0
M  V30 9 C 0.450024 2.733168 -2.305435 0
M  V30 10 N -0.826415 2.550797 -1.923842 0
M  V30 11 C -1.101046 2.334499 -0.606413 0
M  V30 12 N -2.428571 2.124926 -0.077669 0
M  V30 13 C -2.940706 0.785694 -0.001479 0
M  V30 14 C -4.198251 0.497330 0.491643 0
M  V30 15 C -4.695123 -0.792625 0.566523 0
M  V30 16 C -3.896302 -1.840076 0.127760 0
M  V30 17 N -4.296072 -3.214664 0.154443 0
M  V30 18 C -4.973196 -4.188448 -0.709518 0
M  V30 19 C -4.240486 -5.454392 -0.347111 0 CFG=2
M  V30 20 C -2.960256 -5.593592 -1.109285 0
M  V30 21 C -2.213052 -6.803675 -0.604285 0
M  V30 22 C -3.088405 -8.029417 -0.490456 0
M  V30 23 N -4.359891 -7.773736 0.118065 0
M  V30 24 C -5.062737 -6.691602 -0.561175 0
M  V30 25 O -4.045283 -5.329021 1.049720 0
M  V30 26 C -3.995300 -3.970279 1.335337 0
M  V30 27 O -3.709229 -3.607632 2.523515 0
M  V30 28 C -2.642807 -1.521705 -0.360671 0
M  V30 29 N -2.169456 -0.252880 -0.427939 0
M  V30 30 N -0.118788 2.305885 0.279144 0
M  V30 31 C 1.188911 2.474506 0.015372 0
M  V30 32 N 2.383134 2.499644 0.664545 0
M  V30 33 C 2.333117 2.293468 2.066554 0
M  V30 34 C 1.289405 3.204550 2.685534 0
M  V30 35 C 2.040458 4.245468 3.500573 0
M  V30 36 C 3.502332 4.098341 3.127669 0
M  V30 37 C 3.547753 2.596078 2.853850 0
M  V30 38 H 3.743391 0.439523 -0.832434 0
M  V30 39 H 5.334265 -0.281794 -1.199464 0
M  V30 40 H 4.735745 -0.407754 0.459013 0
M  V30 41 H 6.913613 0.963875 1.192103 0
M  V30 42 H 7.292357 2.360695 0.079657 0
M  V30 43 H 7.271837 0.688777 -0.587521 0
M  V30 44 H 3.359937 3.042543 -2.444787 0
M  V30 45 H 0.692700 2.906026 -3.341186 0
M  V30 46 H -3.055223 2.890029 0.259593 0
M  V30 47 H -4.838684 1.316372 0.841401 0
M  V30 48 H -5.656982 -1.042611 0.941050 0
M  V30 49 H -6.029947 -4.331466 -0.400649 0
M  V30 50 H -4.826442 -4.013452 -1.772056 0
M  V30 51 H -2.291692 -4.731845 -1.016058 0
M  V30 52 H -3.218133 -5.789493 -2.163641 0
M  V30 53 H -1.744632 -6.514348 0.346254 0
M  V30 54 H -1.397311 -7.050374 -1.315489 0
M  V30 55 H -2.531597 -8.743298 0.170267 0
M  V30 56 H -3.260070 -8.443661 -1.502932 0
M  V30 57 H -4.217076 -7.488916 1.108444 0
M  V30 58 H -6.022232 -6.552126 -0.030578 0
M  V30 59 H -5.192244 -6.961015 -1.630987 0
M  V30 60 H -2.004005 -2.324299 -0.708409 0
M  V30 61 H 2.027797 1.237954 2.275722 0
M  V30 62 H 0.650815 2.666755 3.395517 0
M  V30 63 H 0.710692 3.781819 1.942365 0
M  V30 64 H 1.755261 5.282925 3.254776 0
M  V30 65 H 1.940909 4.084381 4.584640 0
M  V30 66 H 3.739346 4.678007 2.221715 0
M  V30 67 H 4.131014 4.380055 3.990381 0
M  V30 68 H 3.512748 2.073956 3.842975 0
M  V30 69 H 4.513729 2.365931 2.424849 0
M  V30 END ATOM
M  V30 BEGIN BOND
M  V30 1 1 1 2
M  V30 2 1 2 3
M  V30 3 1 2 4
M  V30 4 2 4 5
M  V30 5 1 4 6
M  V30 6 2 6 7
M  V30 7 1 7 8
M  V30 8 2 8 9
M  V30 9 1 9 10
M  V30 10 2 10 11
M  V30 11 1 11 12
M  V30 12 1 12 13
M  V30 13 2 13 14
M  V30 14 1 14 15
M  V30 15 2 15 16
M  V30 16 1 16 17
M  V30 17 1 17 18
M  V30 18 1 18 19
M  V30 19 1 19 20
M  V30 20 1 20 21
M  V30 21 1 21 22
M  V30 22 1 22 23
M  V30 23 1 23 24
M  V30 24 1 19 25 CFG=1
M  V30 25 1 25 26
M  V30 26 2 26 27
M  V30 27 1 16 28
M  V30 28 2 28 29
M  V30 29 1 11 30
M  V30 30 2 30 31
M  V30 31 1 31 32
M  V30 32 1 32 33
M  V30 33 1 33 34
M  V30 34 1 34 35
M  V30 35 1 35 36
M  V30 36 1 36 37
M  V30 37 1 32 6
M  V30 38 1 37 33
M  V30 39 1 31 8
M  V30 40 1 29 13
M  V30 41 1 26 17
M  V30 42 1 24 19
M  V30 43 1 1 38
M  V30 44 1 1 39
M  V30 45 1 1 40
M  V30 46 1 3 41
M  V30 47 1 3 42
M  V30 48 1 3 43
M  V30 49 1 7 44
M  V30 50 1 9 45
M  V30 51 1 12 46
M  V30 52 1 14 47
M  V30 53 1 15 48
M  V30 54 1 18 49
M  V30 55 1 18 50
M  V30 56 1 20 51
M  V30 57 1 20 52
M  V30 58 1 21 53
M  V30 59 1 21 54
M  V30 60 1 22 55
M  V30 61 1 22 56
M  V30 62 1 23 57
M  V30 63 1 24 58
M  V30 64 1 24 59
M  V30 65 1 28 60
M  V30 66 1 33 61
M  V30 67 1 34 62
M  V30 68 1 34 63
M  V30 69 1 35 64
M  V30 70 1 35 65
M  V30 71 1 36 66
M  V30 72 1 36 67
M  V30 73 1 37 68
M  V30 74 1 37 69
M  V30 END BOND
M  V30 END CTAB
M  END
>  <Dataset>  (649) 
ChEMBL_Kinases

>  <Ligand_Instance>  (649) 
nan

>  <PDB_ID>  (649) 
nan

>  <Standardized_SMILES>  (649) 
CN(C)C(=O)c1cc2cnc(Nc3ccc(N4C[C@@]5(CCCNC5)OC4=O)cn3)nc2n1C1CCCC1

>  <Name>  (649) 
nan

>  <Pocket>  (649) 
nan

>  <ATP_Site>  (649) 
nan

>  <Peripheral>  (649) 
nan

>  <Num_H_Atoms_ProtBoundConf>  (649) 
nan

>  <Num_Resolved_Atoms>  (649) 
nan

>  <Num_Not_Resolved_Atoms>  (649) 
nan

$$$$
CHEMBL3691647
     RDKit          3D

  0  0  0  0  0  0  0  0  0  0999 V3000
M  V30 BEGIN CTAB
M  V30 COUNTS 69 74 0 0 0
M  V30 BEGIN ATOM
M  V30 1 C 5.237843 -0.605154 2.028732 0
M  V30 2 N 6.018267 0.632686 1.877995 0
M  V30 3 C 7.344396 0.706371 2.494782 0
M  V30 4 C 5.525368 1.774340 1.145352 0
M  V30 5 O 6.261196 2.816753 1.057392 0
M  V30 6 C 4.227620 1.699843 0.540885 0
M  V30 7 C 4.118179 1.249051 -0.779053 0
M  V30 8 C 2.747009 1.292893 -1.057876 0
M  V30 9 C 2.130315 0.934118 -2.261455 0
M  V30 10 N 0.779514 1.050690 -2.323415 0
M  V30 11 C 0.123806 1.499130 -1.235650 0
M  V30 12 N -1.287821 1.596008 -1.370166 0
M  V30 13 C -2.097994 0.484376 -1.013800 0
M  V30 14 C -1.505739 -0.672409 -0.537499 0
M  V30 15 C -2.302154 -1.756874 -0.191360 0
M  V30 16 C -3.674509 -1.655831 -0.331156 0
M  V30 17 N -4.630126 -2.680704 -0.019033 0
M  V30 18 C -4.999245 -3.631249 -1.075083 0
M  V30 19 C -5.810293 -4.610742 -0.288076 0 CFG=1
M  V30 20 C -6.799774 -5.371834 -1.112880 0
M  V30 21 C -6.044832 -6.011759 -2.245129 0
M  V30 22 C -4.698798 -6.519767 -1.936326 0
M  V30 23 N -4.121294 -6.239281 -0.690344 0
M  V30 24 C -4.894841 -5.635428 0.324918 0
M  V30 25 O -6.415844 -3.768615 0.660301 0
M  V30 26 C -5.354641 -3.002843 1.185415 0
M  V30 27 O -4.855170 -2.535921 2.260643 0
M  V30 28 C -4.224077 -0.478889 -0.811854 0
M  V30 29 N -3.452471 0.584841 -1.152024 0
M  V30 30 N 0.765700 1.824550 -0.119972 0
M  V30 31 C 2.095803 1.753760 0.066291 0
M  V30 32 N 3.010485 1.996305 1.028355 0
M  V30 33 C 2.656123 2.482246 2.315868 0
M  V30 34 C 1.606577 3.585753 2.237503 0
M  V30 35 C 2.323382 4.894524 2.521949 0
M  V30 36 C 3.806121 4.505191 2.484264 0
M  V30 37 C 3.712088 3.135005 3.120751 0
M  V30 38 H 4.518320 -0.709639 1.208964 0
M  V30 39 H 5.905733 -1.492174 1.996919 0
M  V30 40 H 4.762504 -0.638614 3.047040 0
M  V30 41 H 7.390029 1.669319 3.068113 0
M  V30 42 H 8.103763 0.661577 1.691205 0
M  V30 43 H 7.459287 -0.142200 3.200047 0
M  V30 44 H 4.897238 0.926991 -1.470394 0
M  V30 45 H 2.684620 0.580266 -3.109222 0
M  V30 46 H -1.718660 2.474107 -1.726332 0
M  V30 47 H -0.436877 -0.770862 -0.421071 0
M  V30 48 H -1.942262 -2.700061 0.188079 0
M  V30 49 H -4.060495 -4.128985 -1.394078 0
M  V30 50 H -5.518921 -3.143254 -1.907158 0
M  V30 51 H -7.570071 -4.684610 -1.509294 0
M  V30 52 H -7.311228 -6.093292 -0.470445 0
M  V30 53 H -6.074374 -5.293939 -3.099716 0
M  V30 54 H -6.707006 -6.854554 -2.601079 0
M  V30 55 H -4.653373 -7.636033 -2.089598 0
M  V30 56 H -4.007173 -6.132872 -2.744085 0
M  V30 57 H -3.100475 -6.031803 -0.679384 0
M  V30 58 H -5.552284 -6.425450 0.792374 0
M  V30 59 H -4.233671 -5.226639 1.100113 0
M  V30 60 H -5.307164 -0.352260 -0.939936 0
M  V30 61 H 2.232396 1.596133 2.878344 0
M  V30 62 H 0.808863 3.368979 2.973647 0
M  V30 63 H 1.148703 3.702202 1.259032 0
M  V30 64 H 2.091644 5.680832 1.804768 0
M  V30 65 H 2.094643 5.148033 3.578208 0
M  V30 66 H 4.044164 4.387164 1.421323 0
M  V30 67 H 4.417218 5.211863 3.043687 0
M  V30 68 H 3.274484 3.302120 4.147637 0
M  V30 69 H 4.649094 2.620744 3.267372 0
M  V30 END ATOM
M  V30 BEGIN BOND
M  V30 1 1 1 2
M  V30 2 1 2 3
M  V30 3 1 2 4
M  V30 4 2 4 5
M  V30 5 1 4 6
M  V30 6 2 6 7
M  V30 7 1 7 8
M  V30 8 2 8 9
M  V30 9 1 9 10
M  V30 10 2 10 11
M  V30 11 1 11 12
M  V30 12 1 12 13
M  V30 13 2 13 14
M  V30 14 1 14 15
M  V30 15 2 15 16
M  V30 16 1 16 17
M  V30 17 1 17 18
M  V30 18 1 18 19
M  V30 19 1 19 20
M  V30 20 1 20 21
M  V30 21 1 21 22
M  V30 22 1 22 23
M  V30 23 1 23 24
M  V30 24 1 19 25 CFG=1
M  V30 25 1 25 26
M  V30 26 2 26 27
M  V30 27 1 16 28
M  V30 28 2 28 29
M  V30 29 1 11 30
M  V30 30 2 30 31
M  V30 31 1 31 32
M  V30 32 1 32 33
M  V30 33 1 33 34
M  V30 34 1 34 35
M  V30 35 1 35 36
M  V30 36 1 36 37
M  V30 37 1 32 6
M  V30 38 1 37 33
M  V30 39 1 31 8
M  V30 40 1 29 13
M  V30 41 1 26 17
M  V30 42 1 24 19
M  V30 43 1 1 38
M  V30 44 1 1 39
M  V30 45 1 1 40
M  V30 46 1 3 41
M  V30 47 1 3 42
M  V30 48 1 3 43
M  V30 49 1 7 44
M  V30 50 1 9 45
M  V30 51 1 12 46
M  V30 52 1 14 47
M  V30 53 1 15 48
M  V30 54 1 18 49
M  V30 55 1 18 50
M  V30 56 1 20 51
M  V30 57 1 20 52
M  V30 58 1 21 53
M  V30 59 1 21 54
M  V30 60 1 22 55
M  V30 61 1 22 56
M  V30 62 1 23 57
M  V30 63 1 24 58
M  V30 64 1 24 59
M  V30 65 1 28 60
M  V30 66 1 33 61
M  V30 67 1 34 62
M  V30 68 1 34 63
M  V30 69 1 35 64
M  V30 70 1 35 65
M  V30 71 1 36 66
M  V30 72 1 36 67
M  V30 73 1 37 68
M  V30 74 1 37 69
M  V30 END BOND
M  V30 END CTAB
M  END
>  <Dataset>  (650) 
ChEMBL_Kinases

>  <Ligand_Instance>  (650) 
nan

>  <PDB_ID>  (650) 
nan

>  <Standardized_SMILES>  (650) 
CN(C)C(=O)c1cc2cnc(Nc3ccc(N4C[C@]5(CCCNC5)OC4=O)cn3)nc2n1C1CCCC1

>  <Name>  (650) 
nan

>  <Pocket>  (650) 
nan

>  <ATP_Site>  (650) 
nan

>  <Peripheral>  (650) 
nan

>  <Num_H_Atoms_ProtBoundConf>  (650) 
nan

>  <Num_Resolved_Atoms>  (650) 
nan

>  <Num_Not_Resolved_Atoms>  (650) 
nan

$$$$
CHEMBL3691649
     RDKit          3D

  0  0  0  0  0  0  0  0  0  0999 V3000
M  V30 BEGIN CTAB
M  V30 COUNTS 66 71 0 0 0
M  V30 BEGIN ATOM
M  V30 1 C 4.050606 -2.416161 -4.337974 0
M  V30 2 N 3.376207 -1.303118 -3.693683 0
M  V30 3 C 1.942157 -1.212572 -3.923034 0
M  V30 4 C 4.206032 -0.445422 -2.918962 0
M  V30 5 O 5.419909 -0.769672 -2.905734 0
M  V30 6 C 3.445546 0.633830 -2.306208 0
M  V30 7 C 3.336952 1.949260 -2.684802 0
M  V30 8 C 2.506102 2.560378 -1.771479 0
M  V30 9 C 1.997723 3.825022 -1.575273 0
M  V30 10 N 1.176381 4.171944 -0.569593 0
M  V30 11 C 0.817552 3.217062 0.318876 0
M  V30 12 N -0.001458 3.076317 1.501623 0
M  V30 13 C -1.215789 2.324562 1.295861 0
M  V30 14 C -1.535354 1.853119 0.025535 0
M  V30 15 C -2.683532 1.092774 -0.146415 0
M  V30 16 C -3.511722 0.794231 0.913666 0
M  V30 17 N -4.634035 0.007064 0.537743 0
M  V30 18 C -4.828708 -1.334499 1.101290 0
M  V30 19 C -5.421062 -2.232974 0.002081 0
M  V30 20 C -4.561243 -2.222293 -1.217864 0
M  V30 21 C -5.141953 -1.189240 -2.131396 0
M  V30 22 C -6.191500 -0.528157 -1.255150 0
M  V30 23 C -5.592518 0.547661 -0.396878 0
M  V30 24 N -6.665987 -1.618438 -0.419241 0
M  V30 25 C -3.142520 1.288658 2.139945 0
M  V30 26 N -2.044107 2.027822 2.350368 0
M  V30 27 N 1.313266 1.985320 0.125389 0
M  V30 28 C 2.136000 1.598969 -0.866613 0
M  V30 29 N 2.718966 0.400376 -1.198251 0
M  V30 30 C 2.439711 -0.751836 -0.346379 0
M  V30 31 C 2.387044 -0.305814 1.098281 0
M  V30 32 C 2.839272 -1.489295 1.908351 0
M  V30 33 C 3.238766 -2.568179 0.918061 0
M  V30 34 C 3.496196 -1.797407 -0.383198 0
M  V30 35 H 3.663453 -2.647311 -5.350369 0
M  V30 36 H 3.810158 -3.330332 -3.735577 0
M  V30 37 H 5.150939 -2.276178 -4.403052 0
M  V30 38 H 1.664521 -1.535928 -4.932973 0
M  V30 39 H 1.415302 -1.922157 -3.217217 0
M  V30 40 H 1.568161 -0.175943 -3.713579 0
M  V30 41 H 3.802420 2.433864 -3.527844 0
M  V30 42 H 2.256214 4.612700 -2.256035 0
M  V30 43 H 0.166761 3.439335 2.456997 0
M  V30 44 H -0.894646 2.078137 -0.833337 0
M  V30 45 H -2.859129 0.764126 -1.160411 0
M  V30 46 H -3.884268 -1.778063 1.446751 0
M  V30 47 H -5.588398 -1.270174 1.899390 0
M  V30 48 H -5.566117 -3.230208 0.439761 0
M  V30 49 H -4.434371 -3.210192 -1.696432 0
M  V30 50 H -3.540474 -1.876184 -0.909279 0
M  V30 51 H -4.445141 -0.428874 -2.484681 0
M  V30 52 H -5.606723 -1.705568 -2.994445 0
M  V30 53 H -7.048470 -0.146153 -1.849890 0
M  V30 54 H -5.096166 1.341726 -1.031385 0
M  V30 55 H -6.443350 1.053253 0.136899 0
M  V30 56 H -7.178532 -2.311370 -0.994998 0
M  V30 57 H -3.830829 1.026511 2.930295 0
M  V30 58 H 1.473761 -1.184317 -0.697011 0
M  V30 59 H 3.044632 0.585250 1.192317 0
M  V30 60 H 1.323119 -0.020083 1.368292 0
M  V30 61 H 3.781864 -1.240070 2.480522 0
M  V30 62 H 2.058002 -1.864935 2.591869 0
M  V30 63 H 2.357184 -3.205313 0.687274 0
M  V30 64 H 4.094004 -3.151087 1.248780 0
M  V30 65 H 3.330311 -2.508921 -1.235033 0
M  V30 66 H 4.520163 -1.437088 -0.356634 0
M  V30 END ATOM
M  V30 BEGIN BOND
M  V30 1 1 1 2
M  V30 2 1 2 3
M  V30 3 1 2 4
M  V30 4 2 4 5
M  V30 5 1 4 6
M  V30 6 2 6 7
M  V30 7 1 7 8
M  V30 8 2 8 9
M  V30 9 1 9 10
M  V30 10 2 10 11
M  V30 11 1 11 12
M  V30 12 1 12 13
M  V30 13 2 13 14
M  V30 14 1 14 15
M  V30 15 2 15 16
M  V30 16 1 16 17
M  V30 17 1 17 18
M  V30 18 1 18 19
M  V30 19 1 19 20
M  V30 20 1 20 21
M  V30 21 1 21 22
M  V30 22 1 22 23
M  V30 23 1 22 24
M  V30 24 1 16 25
M  V30 25 2 25 26
M  V30 26 1 11 27
M  V30 27 2 27 28
M  V30 28 1 28 29
M  V30 29 1 29 30
M  V30 30 1 30 31
M  V30 31 1 31 32
M  V30 32 1 32 33
M  V30 33 1 33 34
M  V30 34 1 29 6
M  V30 35 1 34 30
M  V30 36 1 28 8
M  V30 37 1 26 13
M  V30 38 1 23 17
M  V30 39 1 24 19
M  V30 40 1 1 35
M  V30 41 1 1 36
M  V30 42 1 1 37
M  V30 43 1 3 38
M  V30 44 1 3 39
M  V30 45 1 3 40
M  V30 46 1 7 41
M  V30 47 1 9 42
M  V30 48 1 12 43
M  V30 49 1 14 44
M  V30 50 1 15 45
M  V30 51 1 18 46
M  V30 52 1 18 47
M  V30 53 1 19 48
M  V30 54 1 20 49
M  V30 55 1 20 50
M  V30 56 1 21 51
M  V30 57 1 21 52
M  V30 58 1 22 53
M  V30 59 1 23 54
M  V30 60 1 23 55
M  V30 61 1 24 56
M  V30 62 1 25 57
M  V30 63 1 30 58
M  V30 64 1 31 59
M  V30 65 1 31 60
M  V30 66 1 32 61
M  V30 67 1 32 62
M  V30 68 1 33 63
M  V30 69 1 33 64
M  V30 70 1 34 65
M  V30 71 1 34 66
M  V30 END BOND
M  V30 END CTAB
M  END
>  <Dataset>  (651) 
ChEMBL_Kinases

>  <Ligand_Instance>  (651) 
nan

>  <PDB_ID>  (651) 
nan

>  <Standardized_SMILES>  (651) 
CN(C)C(=O)c1cc2cnc(Nc3ccc(N4CC5CCC(C4)N5)cn3)nc2n1C1CCCC1

>  <Name>  (651) 
nan

>  <Pocket>  (651) 
nan

>  <ATP_Site>  (651) 
nan

>  <Peripheral>  (651) 
nan

>  <Num_H_Atoms_ProtBoundConf>  (651) 
nan

>  <Num_Resolved_Atoms>  (651) 
nan

>  <Num_Not_Resolved_Atoms>  (651) 
nan

$$$$
CHEMBL3691650
     RDKit          3D

  0  0  0  0  0  0  0  0  0  0999 V3000
M  V30 BEGIN CTAB
M  V30 COUNTS 68 73 0 0 0
M  V30 BEGIN ATOM
M  V30 1 C 5.535282 -1.054877 2.904988 0
M  V30 2 N 6.319857 -0.181681 2.033257 0
M  V30 3 C 7.647711 -0.662787 1.829841 0
M  V30 4 C 5.744249 1.014730 1.476996 0
M  V30 5 O 6.581572 1.629990 0.754644 0
M  V30 6 C 4.366590 1.363502 1.782543 0
M  V30 7 C 4.191451 2.476505 2.610025 0
M  V30 8 C 2.832890 2.654985 2.792583 0
M  V30 9 C 2.067512 3.565530 3.490745 0
M  V30 10 N 0.729287 3.448624 3.453843 0
M  V30 11 C 0.131858 2.469303 2.754725 0
M  V30 12 N -1.295554 2.353832 2.711943 0
M  V30 13 C -2.025557 1.343445 2.042544 0
M  V30 14 C -3.415728 1.319021 2.040908 0
M  V30 15 C -4.090836 0.313661 1.384463 0
M  V30 16 C -3.458336 -0.706350 0.704824 0
M  V30 17 N -4.129406 -1.753361 0.019763 0
M  V30 18 C -3.440684 -2.822547 -0.678585 0
M  V30 19 C -4.514537 -3.808550 -1.087154 0
M  V30 20 C -5.723515 -2.898819 -1.185558 0
M  V30 21 C -5.757078 -2.170327 -2.525553 0
M  V30 22 C -6.186438 -3.334582 -3.420715 0
M  V30 23 C -7.066322 -4.136220 -2.512989 0
M  V30 24 N -6.975240 -3.577948 -1.179181 0
M  V30 25 C -5.537388 -1.916401 -0.085984 0
M  V30 26 O -6.453971 -1.391335 0.558255 0
M  V30 27 C -2.083175 -0.616986 0.749653 0
M  V30 28 N -1.388089 0.353693 1.382981 0
M  V30 29 N 0.900766 1.599878 2.086518 0
M  V30 30 C 2.252017 1.639212 2.065577 0
M  V30 31 N 3.163609 0.855499 1.452860 0
M  V30 32 C 2.988466 -0.296308 0.602655 0
M  V30 33 C 1.705012 -0.371874 -0.107117 0
M  V30 34 C 1.910938 -0.756134 -1.539601 0
M  V30 35 C 3.401314 -0.868117 -1.721697 0
M  V30 36 C 4.031177 -0.278764 -0.491081 0
M  V30 37 H 6.148938 -1.135312 3.836571 0
M  V30 38 H 5.410795 -2.061382 2.475248 0
M  V30 39 H 4.540732 -0.623162 3.103422 0
M  V30 40 H 8.296560 0.063661 1.288691 0
M  V30 41 H 8.109016 -0.980998 2.794791 0
M  V30 42 H 7.604343 -1.564355 1.173584 0
M  V30 43 H 4.891611 3.164292 3.091690 0
M  V30 44 H 2.518421 4.363338 4.061758 0
M  V30 45 H -1.856345 3.090095 3.228709 0
M  V30 46 H -3.927782 2.116453 2.571163 0
M  V30 47 H -5.168490 0.342271 1.413911 0
M  V30 48 H -2.869611 -2.447511 -1.540901 0
M  V30 49 H -2.741996 -3.316195 0.013145 0
M  V30 50 H -4.318702 -4.325333 -2.025122 0
M  V30 51 H -4.717390 -4.559860 -0.297065 0
M  V30 52 H -6.556976 -1.426283 -2.461392 0
M  V30 53 H -4.780176 -1.758530 -2.803346 0
M  V30 54 H -6.684793 -2.932756 -4.323815 0
M  V30 55 H -5.282819 -3.860035 -3.759265 0
M  V30 56 H -8.118448 -4.172556 -2.879952 0
M  V30 57 H -6.670776 -5.184185 -2.529949 0
M  V30 58 H -6.998405 -4.419174 -0.527000 0
M  V30 59 H -1.459727 -1.347593 0.262600 0
M  V30 60 H 3.134078 -1.194453 1.248752 0
M  V30 61 H 1.090557 -1.201397 0.357686 0
M  V30 62 H 1.043868 0.513171 0.009961 0
M  V30 63 H 1.418113 -1.727613 -1.805000 0
M  V30 64 H 1.466796 -0.026464 -2.252976 0
M  V30 65 H 3.688232 -0.233772 -2.587810 0
M  V30 66 H 3.732134 -1.901246 -1.892694 0
M  V30 67 H 4.854289 -0.969255 -0.192451 0
M  V30 68 H 4.427026 0.737831 -0.670093 0
M  V30 END ATOM
M  V30 BEGIN BOND
M  V30 1 1 1 2
M  V30 2 1 2 3
M  V30 3 1 2 4
M  V30 4 2 4 5
M  V30 5 1 4 6
M  V30 6 2 6 7
M  V30 7 1 7 8
M  V30 8 2 8 9
M  V30 9 1 9 10
M  V30 10 2 10 11
M  V30 11 1 11 12
M  V30 12 1 12 13
M  V30 13 2 13 14
M  V30 14 1 14 15
M  V30 15 2 15 16
M  V30 16 1 16 17
M  V30 17 1 17 18
M  V30 18 1 18 19
M  V30 19 1 19 20
M  V30 20 1 20 21
M  V30 21 1 21 22
M  V30 22 1 22 23
M  V30 23 1 23 24
M  V30 24 1 20 25
M  V30 25 2 25 26
M  V30 26 1 16 27
M  V30 27 2 27 28
M  V30 28 1 11 29
M  V30 29 2 29 30
M  V30 30 1 30 31
M  V30 31 1 31 32
M  V30 32 1 32 33
M  V30 33 1 33 34
M  V30 34 1 34 35
M  V30 35 1 35 36
M  V30 36 1 31 6
M  V30 37 1 36 32
M  V30 38 1 30 8
M  V30 39 1 28 13
M  V30 40 1 25 17
M  V30 41 1 24 20
M  V30 42 1 1 37
M  V30 43 1 1 38
M  V30 44 1 1 39
M  V30 45 1 3 40
M  V30 46 1 3 41
M  V30 47 1 3 42
M  V30 48 1 7 43
M  V30 49 1 9 44
M  V30 50 1 12 45
M  V30 51 1 14 46
M  V30 52 1 15 47
M  V30 53 1 18 48
M  V30 54 1 18 49
M  V30 55 1 19 50
M  V30 56 1 19 51
M  V30 57 1 21 52
M  V30 58 1 21 53
M  V30 59 1 22 54
M  V30 60 1 22 55
M  V30 61 1 23 56
M  V30 62 1 23 57
M  V30 63 1 24 58
M  V30 64 1 27 59
M  V30 65 1 32 60
M  V30 66 1 33 61
M  V30 67 1 33 62
M  V30 68 1 34 63
M  V30 69 1 34 64
M  V30 70 1 35 65
M  V30 71 1 35 66
M  V30 72 1 36 67
M  V30 73 1 36 68
M  V30 END BOND
M  V30 END CTAB
M  END
>  <Dataset>  (652) 
ChEMBL_Kinases

>  <Ligand_Instance>  (652) 
nan

>  <PDB_ID>  (652) 
nan

>  <Standardized_SMILES>  (652) 
CN(C)C(=O)c1cc2cnc(Nc3ccc(N4CCC5(CCCN5)C4=O)cn3)nc2n1C1CCCC1

>  <Name>  (652) 
nan

>  <Pocket>  (652) 
nan

>  <ATP_Site>  (652) 
nan

>  <Peripheral>  (652) 
nan

>  <Num_H_Atoms_ProtBoundConf>  (652) 
nan

>  <Num_Resolved_Atoms>  (652) 
nan

>  <Num_Not_Resolved_Atoms>  (652) 
nan

$$$$
CHEMBL3691651
     RDKit          3D

  0  0  0  0  0  0  0  0  0  0999 V3000
M  V30 BEGIN CTAB
M  V30 COUNTS 83 88 0 0 0
M  V30 BEGIN ATOM
M  V30 1 C 5.345926 -4.330515 4.317958 0
M  V30 2 N 4.883864 -3.561355 3.165841 0
M  V30 3 C 3.584929 -3.968756 2.655000 0
M  V30 4 C 5.709194 -2.516171 2.652982 0
M  V30 5 O 6.702807 -2.565723 3.423242 0
M  V30 6 C 5.184082 -1.795516 1.507072 0
M  V30 7 C 5.135784 -2.291217 0.214224 0
M  V30 8 C 4.576105 -1.283842 -0.512095 0
M  V30 9 C 4.273753 -1.189413 -1.856804 0
M  V30 10 N 3.709527 -0.070284 -2.372752 0
M  V30 11 C 3.438363 0.966930 -1.561786 0
M  V30 12 N 2.856964 2.231141 -1.848657 0
M  V30 13 C 1.418346 2.284222 -1.744453 0
M  V30 14 C 0.730376 1.124588 -1.387938 0
M  V30 15 C -0.665610 1.196142 -1.287175 0
M  V30 16 C -1.336937 2.379678 -1.533939 0
M  V30 17 N -2.742948 2.275427 -1.386260 0
M  V30 18 C -3.548326 2.453454 -0.165183 0
M  V30 19 C -4.552570 1.322385 -0.212833 0
M  V30 20 C -4.952529 1.327778 -1.681646 0
M  V30 21 C -6.201686 2.112981 -1.815849 0
M  V30 22 C -7.134673 1.283500 -2.626485 0
M  V30 23 C -6.375689 0.052477 -3.045977 0
M  V30 24 N -5.206718 0.019261 -2.186039 0
M  V30 25 C -4.580580 -1.229547 -2.027561 0
M  V30 26 O -5.264185 -2.024024 -2.728139 0
M  V30 27 O -3.467944 -1.619518 -1.299770 0
M  V30 28 C -3.012073 -2.951911 -1.293672 0
M  V30 29 C -1.787479 -3.028761 -0.406200 0
M  V30 30 C -2.598937 -3.401290 -2.687350 0
M  V30 31 C -4.027599 -3.910933 -0.744744 0
M  V30 32 C -3.766370 1.960355 -2.352470 0
M  V30 33 O -3.620614 2.211006 -3.595879 0
M  V30 34 C -0.603511 3.491039 -1.881874 0
M  V30 35 N 0.740301 3.449679 -1.986300 0
M  V30 36 N 3.736484 0.865418 -0.255575 0
M  V30 37 C 4.295953 -0.215339 0.315686 0
M  V30 38 N 4.678447 -0.540316 1.578309 0
M  V30 39 C 4.514181 0.372170 2.667097 0
M  V30 40 C 3.255352 1.209660 2.557610 0
M  V30 41 C 2.546556 1.098792 3.891402 0
M  V30 42 C 3.701433 0.809041 4.827188 0
M  V30 43 C 4.441371 -0.276980 4.027676 0
M  V30 44 H 5.921215 -3.708546 5.029069 0
M  V30 45 H 6.029245 -5.120066 3.938982 0
M  V30 46 H 4.512896 -4.776685 4.896764 0
M  V30 47 H 3.200812 -3.290312 1.873088 0
M  V30 48 H 3.700182 -5.000517 2.290176 0
M  V30 49 H 2.855584 -4.026263 3.497189 0
M  V30 50 H 5.473489 -3.259809 -0.123057 0
M  V30 51 H 4.462420 -1.982850 -2.570581 0
M  V30 52 H 3.348700 3.112996 -2.123858 0
M  V30 53 H 1.233130 0.185139 -1.189168 0
M  V30 54 H -1.151472 0.283248 -1.009826 0
M  V30 55 H -4.006722 3.440240 -0.248680 0
M  V30 56 H -2.882880 2.421844 0.714543 0
M  V30 57 H -5.382794 1.566509 0.454228 0
M  V30 58 H -4.054266 0.370403 0.041410 0
M  V30 59 H -6.632186 2.314246 -0.790271 0
M  V30 60 H -6.030039 3.106775 -2.295594 0
M  V30 61 H -8.033191 1.034559 -1.998950 0
M  V30 62 H -7.431020 1.865268 -3.533897 0
M  V30 63 H -7.024951 -0.836045 -2.950205 0
M  V30 64 H -5.989213 0.176411 -4.094105 0
M  V30 65 H -1.321068 -2.023352 -0.396015 0
M  V30 66 H -1.064325 -3.797652 -0.778997 0
M  V30 67 H -2.090847 -3.223891 0.656239 0
M  V30 68 H -2.172641 -4.409420 -2.666296 0
M  V30 69 H -3.404445 -3.247734 -3.433054 0
M  V30 70 H -1.764685 -2.723771 -3.037700 0
M  V30 71 H -5.028480 -3.830237 -1.172742 0
M  V30 72 H -3.649532 -4.929626 -0.926326 0
M  V30 73 H -4.154252 -3.767965 0.362099 0
M  V30 74 H -1.184806 4.385327 -2.064416 0
M  V30 75 H 5.378125 1.093015 2.736079 0
M  V30 76 H 3.489076 2.290625 2.406681 0
M  V30 77 H 2.541758 0.836290 1.796762 0
M  V30 78 H 1.889919 0.205688 3.848167 0
M  V30 79 H 2.012513 2.029987 4.157883 0
M  V30 80 H 3.354294 0.347910 5.778405 0
M  V30 81 H 4.323080 1.695038 4.958149 0
M  V30 82 H 3.777537 -1.145305 4.039165 0
M  V30 83 H 5.413170 -0.405855 4.522180 0
M  V30 END ATOM
M  V30 BEGIN BOND
M  V30 1 1 1 2
M  V30 2 1 2 3
M  V30 3 1 2 4
M  V30 4 2 4 5
M  V30 5 1 4 6
M  V30 6 2 6 7
M  V30 7 1 7 8
M  V30 8 2 8 9
M  V30 9 1 9 10
M  V30 10 2 10 11
M  V30 11 1 11 12
M  V30 12 1 12 13
M  V30 13 2 13 14
M  V30 14 1 14 15
M  V30 15 2 15 16
M  V30 16 1 16 17
M  V30 17 1 17 18
M  V30 18 1 18 19
M  V30 19 1 19 20
M  V30 20 1 20 21
M  V30 21 1 21 22
M  V30 22 1 22 23
M  V30 23 1 23 24
M  V30 24 1 24 25
M  V30 25 2 25 26
M  V30 26 1 25 27
M  V30 27 1 27 28
M  V30 28 1 28 29
M  V30 29 1 28 30
M  V30 30 1 28 31
M  V30 31 1 20 32
M  V30 32 2 32 33
M  V30 33 1 16 34
M  V30 34 2 34 35
M  V30 35 1 11 36
M  V30 36 2 36 37
M  V30 37 1 37 38
M  V30 38 1 38 39
M  V30 39 1 39 40
M  V30 40 1 40 41
M  V30 41 1 41 42
M  V30 42 1 42 43
M  V30 43 1 38 6
M  V30 44 1 43 39
M  V30 45 1 37 8
M  V30 46 1 35 13
M  V30 47 1 32 17
M  V30 48 1 24 20
M  V30 49 1 1 44
M  V30 50 1 1 45
M  V30 51 1 1 46
M  V30 52 1 3 47
M  V30 53 1 3 48
M  V30 54 1 3 49
M  V30 55 1 7 50
M  V30 56 1 9 51
M  V30 57 1 12 52
M  V30 58 1 14 53
M  V30 59 1 15 54
M  V30 60 1 18 55
M  V30 61 1 18 56
M  V30 62 1 19 57
M  V30 63 1 19 58
M  V30 64 1 21 59
M  V30 65 1 21 60
M  V30 66 1 22 61
M  V30 67 1 22 62
M  V30 68 1 23 63
M  V30 69 1 23 64
M  V30 70 1 29 65
M  V30 71 1 29 66
M  V30 72 1 29 67
M  V30 73 1 30 68
M  V30 74 1 30 69
M  V30 75 1 30 70
M  V30 76 1 31 71
M  V30 77 1 31 72
M  V30 78 1 31 73
M  V30 79 1 34 74
M  V30 80 1 39 75
M  V30 81 1 40 76
M  V30 82 1 40 77
M  V30 83 1 41 78
M  V30 84 1 41 79
M  V30 85 1 42 80
M  V30 86 1 42 81
M  V30 87 1 43 82
M  V30 88 1 43 83
M  V30 END BOND
M  V30 END CTAB
M  END
>  <Dataset>  (653) 
ChEMBL_Kinases

>  <Ligand_Instance>  (653) 
nan

>  <PDB_ID>  (653) 
nan

>  <Standardized_SMILES>  (653) 
CN(C)C(=O)c1cc2cnc(Nc3ccc(N4CCC5(CCCN5C(=O)OC(C)(C)C)C4=O)cn3)nc2n1C1CCCC1

>  <Name>  (653) 
nan

>  <Pocket>  (653) 
nan

>  <ATP_Site>  (653) 
nan

>  <Peripheral>  (653) 
nan

>  <Num_H_Atoms_ProtBoundConf>  (653) 
nan

>  <Num_Resolved_Atoms>  (653) 
nan

>  <Num_Not_Resolved_Atoms>  (653) 
nan

$$$$
CHEMBL3691652
     RDKit          3D

  0  0  0  0  0  0  0  0  0  0999 V3000
M  V30 BEGIN CTAB
M  V30 COUNTS 74 79 0 0 0
M  V30 BEGIN ATOM
M  V30 1 C 8.536532 -1.872552 2.327594 0
M  V30 2 N 7.191451 -1.471440 1.956035 0
M  V30 3 C 6.315921 -1.063191 3.031447 0
M  V30 4 C 6.762577 -1.484208 0.596173 0
M  V30 5 O 7.778872 -1.887642 0.021217 0
M  V30 6 C 5.396102 -1.063534 0.309049 0
M  V30 7 C 4.370354 -1.826680 0.842696 0
M  V30 8 C 3.186487 -1.207434 0.420655 0
M  V30 9 C 1.872060 -1.587485 0.696472 0
M  V30 10 N 0.913834 -0.782627 0.149040 0
M  V30 11 C 1.248736 0.287299 -0.594506 0
M  V30 12 N 0.214796 1.106342 -1.140385 0
M  V30 13 C -1.154553 0.841422 -0.864246 0
M  V30 14 C -2.188281 1.598621 -1.375969 0
M  V30 15 C -3.482330 1.256346 -1.029843 0
M  V30 16 C -3.839280 0.200577 -0.198617 0
M  V30 17 N -5.191942 -0.095732 0.107111 0
M  V30 18 C -6.235829 0.671685 -0.548285 0
M  V30 19 C -7.535506 -0.101653 -0.479011 0
M  V30 20 C -7.341837 -1.597373 -0.464849 0
M  V30 21 C -6.700870 -2.047530 0.849159 0
M  V30 22 C -6.218863 -3.427704 0.692861 0
M  V30 23 C -6.600965 -4.376480 1.796980 0
M  V30 24 N -7.862083 -4.064295 2.417562 0
M  V30 25 C -7.643793 -2.777136 3.060879 0
M  V30 26 C -7.637686 -1.757308 1.970750 0
M  V30 27 C -5.531008 -1.117633 1.021423 0
M  V30 28 O -4.838014 -1.292739 2.055502 0
M  V30 29 C -2.741416 -0.492762 0.259307 0
M  V30 30 N -1.470386 -0.187431 -0.057075 0
M  V30 31 N 2.530606 0.612845 -0.831829 0
M  V30 32 C 3.548030 -0.113188 -0.339250 0
M  V30 33 N 4.902028 -0.037818 -0.398578 0
M  V30 34 C 5.685437 0.934307 -1.064161 0
M  V30 35 C 4.875424 1.990927 -1.786147 0
M  V30 36 C 5.825460 2.564561 -2.828951 0
M  V30 37 C 6.805837 1.484958 -3.136487 0
M  V30 38 C 6.645758 0.395367 -2.093336 0
M  V30 39 H 8.582377 -2.337089 3.339469 0
M  V30 40 H 9.238869 -1.013981 2.291749 0
M  V30 41 H 8.864931 -2.668301 1.627311 0
M  V30 42 H 6.920395 -0.522286 3.767759 0
M  V30 43 H 5.576406 -0.373774 2.595221 0
M  V30 44 H 5.751308 -1.913300 3.465729 0
M  V30 45 H 4.395274 -2.717734 1.458578 0
M  V30 46 H 1.640458 -2.444547 1.291697 0
M  V30 47 H 0.450547 1.917984 -1.755774 0
M  V30 48 H -1.953933 2.427495 -2.025331 0
M  V30 49 H -4.224562 1.905272 -1.473496 0
M  V30 50 H -5.986324 0.957347 -1.591426 0
M  V30 51 H -6.378989 1.596327 0.059957 0
M  V30 52 H -8.179625 0.182341 0.353537 0
M  V30 53 H -8.090724 0.124062 -1.422337 0
M  V30 54 H -8.347769 -2.043625 -0.544872 0
M  V30 55 H -6.758661 -1.951860 -1.340537 0
M  V30 56 H -6.547992 -3.922660 -0.254234 0
M  V30 57 H -5.091869 -3.487959 0.637829 0
M  V30 58 H -5.819933 -4.334150 2.606864 0
M  V30 59 H -6.595225 -5.431634 1.455615 0
M  V30 60 H -8.542080 -3.898448 1.632883 0
M  V30 61 H -6.642100 -2.816693 3.540464 0
M  V30 62 H -8.448121 -2.524223 3.759206 0
M  V30 63 H -7.440805 -0.771813 2.443987 0
M  V30 64 H -8.692360 -1.691934 1.577411 0
M  V30 65 H -2.866955 -1.333137 0.904922 0
M  V30 66 H 6.315062 1.480088 -0.309579 0
M  V30 67 H 4.025558 1.611578 -2.350405 0
M  V30 68 H 4.589165 2.822505 -1.120708 0
M  V30 69 H 5.294565 2.831478 -3.764965 0
M  V30 70 H 6.298308 3.498430 -2.460870 0
M  V30 71 H 6.725127 1.086636 -4.169370 0
M  V30 72 H 7.821265 1.961877 -3.102937 0
M  V30 73 H 7.673419 0.268104 -1.653007 0
M  V30 74 H 6.289547 -0.499265 -2.629262 0
M  V30 END ATOM
M  V30 BEGIN BOND
M  V30 1 1 1 2
M  V30 2 1 2 3
M  V30 3 1 2 4
M  V30 4 2 4 5
M  V30 5 1 4 6
M  V30 6 2 6 7
M  V30 7 1 7 8
M  V30 8 2 8 9
M  V30 9 1 9 10
M  V30 10 2 10 11
M  V30 11 1 11 12
M  V30 12 1 12 13
M  V30 13 2 13 14
M  V30 14 1 14 15
M  V30 15 2 15 16
M  V30 16 1 16 17
M  V30 17 1 17 18
M  V30 18 1 18 19
M  V30 19 1 19 20
M  V30 20 1 20 21
M  V30 21 1 21 22
M  V30 22 1 22 23
M  V30 23 1 23 24
M  V30 24 1 24 25
M  V30 25 1 25 26
M  V30 26 1 21 27
M  V30 27 2 27 28
M  V30 28 1 16 29
M  V30 29 2 29 30
M  V30 30 1 11 31
M  V30 31 2 31 32
M  V30 32 1 32 33
M  V30 33 1 33 34
M  V30 34 1 34 35
M  V30 35 1 35 36
M  V30 36 1 36 37
M  V30 37 1 37 38
M  V30 38 1 33 6
M  V30 39 1 38 34
M  V30 40 1 32 8
M  V30 41 1 30 13
M  V30 42 1 27 17
M  V30 43 1 26 21
M  V30 44 1 1 39
M  V30 45 1 1 40
M  V30 46 1 1 41
M  V30 47 1 3 42
M  V30 48 1 3 43
M  V30 49 1 3 44
M  V30 50 1 7 45
M  V30 51 1 9 46
M  V30 52 1 12 47
M  V30 53 1 14 48
M  V30 54 1 15 49
M  V30 55 1 18 50
M  V30 56 1 18 51
M  V30 57 1 19 52
M  V30 58 1 19 53
M  V30 59 1 20 54
M  V30 60 1 20 55
M  V30 61 1 22 56
M  V30 62 1 22 57
M  V30 63 1 23 58
M  V30 64 1 23 59
M  V30 65 1 24 60
M  V30 66 1 25 61
M  V30 67 1 25 62
M  V30 68 1 26 63
M  V30 69 1 26 64
M  V30 70 1 29 65
M  V30 71 1 34 66
M  V30 72 1 35 67
M  V30 73 1 35 68
M  V30 74 1 36 69
M  V30 75 1 36 70
M  V30 76 1 37 71
M  V30 77 1 37 72
M  V30 78 1 38 73
M  V30 79 1 38 74
M  V30 END BOND
M  V30 END CTAB
M  END
>  <Dataset>  (654) 
ChEMBL_Kinases

>  <Ligand_Instance>  (654) 
nan

>  <PDB_ID>  (654) 
nan

>  <Standardized_SMILES>  (654) 
CN(C)C(=O)c1cc2cnc(Nc3ccc(N4CCCC5(CCNCC5)C4=O)cn3)nc2n1C1CCCC1

>  <Name>  (654) 
nan

>  <Pocket>  (654) 
nan

>  <ATP_Site>  (654) 
nan

>  <Peripheral>  (654) 
nan

>  <Num_H_Atoms_ProtBoundConf>  (654) 
nan

>  <Num_Resolved_Atoms>  (654) 
nan

>  <Num_Not_Resolved_Atoms>  (654) 
nan

$$$$
CHEMBL3691662
     RDKit          3D

  0  0  0  0  0  0  0  0  0  0999 V3000
M  V30 BEGIN CTAB
M  V30 COUNTS 68 73 0 0 0
M  V30 BEGIN ATOM
M  V30 1 C 4.408866 -1.196807 4.484559 0
M  V30 2 N 4.072419 0.009852 5.240399 0
M  V30 3 C 4.506930 -0.225251 6.610648 0
M  V30 4 C 3.442911 1.224708 4.830448 0
M  V30 5 O 3.287496 2.100445 5.720243 0
M  V30 6 C 3.078058 1.243482 3.407523 0
M  V30 7 C 3.907475 2.042440 2.617907 0
M  V30 8 C 3.442355 1.960830 1.319386 0
M  V30 9 C 3.839090 2.512274 0.128617 0
M  V30 10 N 3.153716 2.219683 -0.969997 0
M  V30 11 C 2.081077 1.407505 -0.993853 0
M  V30 12 N 1.486510 1.200207 -2.259486 0
M  V30 13 C 0.333130 0.467725 -2.633129 0
M  V30 14 C -0.513819 -0.202237 -1.765121 0
M  V30 15 C -1.623331 -0.931271 -2.123391 0
M  V30 16 C -1.907748 -0.993635 -3.460878 0
M  V30 17 N -3.039238 -1.746948 -3.848035 0
M  V30 18 C -4.047642 -2.367487 -3.026679 0
M  V30 19 C -4.034434 -3.877948 -3.171969 0
M  V30 20 C -5.228730 -4.379632 -3.927564 0
M  V30 21 C -4.922015 -4.145716 -5.402977 0
M  V30 22 C -3.493712 -3.649143 -5.322738 0
M  V30 23 C -3.517844 -2.143297 -5.172565 0
M  V30 24 N -2.955683 -4.202307 -4.092530 0
M  V30 25 N -1.100231 -0.350547 -4.303672 0
M  V30 26 N -0.038153 0.345376 -3.943869 0
M  V30 27 N 1.733154 0.894688 0.193754 0
M  V30 28 C 2.355899 1.129044 1.337892 0
M  V30 29 N 2.149373 0.707239 2.586784 0
M  V30 30 C 1.181248 -0.162860 3.184645 0
M  V30 31 C 0.696033 0.371405 4.519893 0
M  V30 32 C -0.785860 0.216933 4.724676 0
M  V30 33 C -1.584165 0.950269 3.665778 0
M  V30 34 C -0.807020 0.910501 2.343480 0
M  V30 35 C -0.054542 -0.386789 2.362940 0
M  V30 36 H 4.029040 -1.062069 3.469508 0
M  V30 37 H 3.887325 -2.051153 4.953832 0
M  V30 38 H 5.513866 -1.300283 4.466765 0
M  V30 39 H 4.305211 0.673295 7.255046 0
M  V30 40 H 3.833369 -1.023590 6.990672 0
M  V30 41 H 5.548709 -0.588793 6.685074 0
M  V30 42 H 4.788487 2.669565 2.832194 0
M  V30 43 H 4.691425 3.170890 0.067346 0
M  V30 44 H 1.942727 1.642052 -3.083945 0
M  V30 45 H -0.195141 -0.079250 -0.749672 0
M  V30 46 H -2.132907 -1.369484 -1.287026 0
M  V30 47 H -3.826335 -2.139111 -1.966768 0
M  V30 48 H -5.084069 -2.010719 -3.222223 0
M  V30 49 H -3.848143 -4.386846 -2.220943 0
M  V30 50 H -5.335822 -5.453515 -3.778523 0
M  V30 51 H -6.168020 -3.857005 -3.628463 0
M  V30 52 H -5.582853 -3.395854 -5.855743 0
M  V30 53 H -4.897921 -5.122175 -5.955739 0
M  V30 54 H -2.918939 -3.922735 -6.211704 0
M  V30 55 H -2.777684 -1.732072 -5.901002 0
M  V30 56 H -4.475604 -1.689287 -5.445378 0
M  V30 57 H -2.793387 -5.215351 -4.211482 0
M  V30 58 H 1.646934 -1.188675 3.299579 0
M  V30 59 H 0.885951 1.476647 4.575276 0
M  V30 60 H 1.207957 -0.203289 5.310021 0
M  V30 61 H -1.119192 -0.824828 4.890762 0
M  V30 62 H -1.007638 0.766593 5.678668 0
M  V30 63 H -2.486525 0.332205 3.486810 0
M  V30 64 H -1.889559 1.952686 3.956199 0
M  V30 65 H -1.457720 1.040035 1.481510 0
M  V30 66 H -0.072708 1.767163 2.440290 0
M  V30 67 H 0.128639 -0.860640 1.404948 0
M  V30 68 H -0.658268 -1.148003 2.947765 0
M  V30 END ATOM
M  V30 BEGIN BOND
M  V30 1 1 1 2
M  V30 2 1 2 3
M  V30 3 1 2 4
M  V30 4 2 4 5
M  V30 5 1 4 6
M  V30 6 2 6 7
M  V30 7 1 7 8
M  V30 8 2 8 9
M  V30 9 1 9 10
M  V30 10 2 10 11
M  V30 11 1 11 12
M  V30 12 1 12 13
M  V30 13 2 13 14
M  V30 14 1 14 15
M  V30 15 2 15 16
M  V30 16 1 16 17
M  V30 17 1 17 18
M  V30 18 1 18 19
M  V30 19 1 19 20
M  V30 20 1 20 21
M  V30 21 1 21 22
M  V30 22 1 22 23
M  V30 23 1 22 24
M  V30 24 1 16 25
M  V30 25 2 25 26
M  V30 26 1 11 27
M  V30 27 2 27 28
M  V30 28 1 28 29
M  V30 29 1 29 30
M  V30 30 1 30 31
M  V30 31 1 31 32
M  V30 32 1 32 33
M  V30 33 1 33 34
M  V30 34 1 34 35
M  V30 35 1 29 6
M  V30 36 1 35 30
M  V30 37 1 28 8
M  V30 38 1 26 13
M  V30 39 1 23 17
M  V30 40 1 24 19
M  V30 41 1 1 36
M  V30 42 1 1 37
M  V30 43 1 1 38
M  V30 44 1 3 39
M  V30 45 1 3 40
M  V30 46 1 3 41
M  V30 47 1 7 42
M  V30 48 1 9 43
M  V30 49 1 12 44
M  V30 50 1 14 45
M  V30 51 1 15 46
M  V30 52 1 18 47
M  V30 53 1 18 48
M  V30 54 1 19 49
M  V30 55 1 20 50
M  V30 56 1 20 51
M  V30 57 1 21 52
M  V30 58 1 21 53
M  V30 59 1 22 54
M  V30 60 1 23 55
M  V30 61 1 23 56
M  V30 62 1 24 57
M  V30 63 1 30 58
M  V30 64 1 31 59
M  V30 65 1 31 60
M  V30 66 1 32 61
M  V30 67 1 32 62
M  V30 68 1 33 63
M  V30 69 1 33 64
M  V30 70 1 34 65
M  V30 71 1 34 66
M  V30 72 1 35 67
M  V30 73 1 35 68
M  V30 END BOND
M  V30 END CTAB
M  END
>  <Dataset>  (655) 
ChEMBL_Kinases

>  <Ligand_Instance>  (655) 
nan

>  <PDB_ID>  (655) 
nan

>  <Standardized_SMILES>  (655) 
CN(C)C(=O)c1cc2cnc(Nc3ccc(N4CC5CCC(C4)N5)nn3)nc2n1C1CCCCC1

>  <Name>  (655) 
nan

>  <Pocket>  (655) 
nan

>  <ATP_Site>  (655) 
nan

>  <Peripheral>  (655) 
nan

>  <Num_H_Atoms_ProtBoundConf>  (655) 
nan

>  <Num_Resolved_Atoms>  (655) 
nan

>  <Num_Not_Resolved_Atoms>  (655) 
nan

$$$$
CHEMBL3691654
     RDKit          3D

  0  0  0  0  0  0  0  0  0  0999 V3000
M  V30 BEGIN CTAB
M  V30 COUNTS 69 74 0 0 0
M  V30 BEGIN ATOM
M  V30 1 C 5.743000 2.647750 4.505335 0
M  V30 2 N 5.561911 1.186929 4.509676 0
M  V30 3 C 6.165360 0.657357 5.725177 0
M  V30 4 C 4.961107 0.195709 3.649932 0
M  V30 5 O 4.949439 -1.055588 3.911140 0
M  V30 6 C 4.288328 0.395141 2.391259 0
M  V30 7 C 4.960755 1.011549 1.354725 0
M  V30 8 C 4.077460 1.062261 0.295266 0
M  V30 9 C 4.137468 1.540460 -0.990360 0
M  V30 10 N 3.058702 1.418481 -1.766942 0
M  V30 11 C 1.904991 0.871026 -1.421923 0
M  V30 12 N 0.879111 0.834973 -2.400075 0
M  V30 13 C -0.442330 0.344611 -2.278108 0
M  V30 14 C -1.011519 -0.190399 -1.145497 0
M  V30 15 C -2.300653 -0.668177 -1.070580 0
M  V30 16 C -3.117865 -0.629757 -2.179083 0
M  V30 17 N -4.462042 -1.087462 -2.249322 0
M  V30 18 C -5.353778 -1.065613 -3.370809 0
M  V30 19 C -5.702448 -2.466918 -3.782026 0
M  V30 20 N -6.234180 -3.281126 -2.716342 0
M  V30 21 C -5.933840 -4.678885 -3.063085 0
M  V30 22 C -4.446131 -4.847458 -2.779761 0
M  V30 23 C -4.255787 -3.954813 -1.580070 0
M  V30 24 C -5.496681 -3.131906 -1.482977 0
M  V30 25 C -5.205611 -1.685142 -1.161949 0
M  V30 26 C -2.538150 -0.091988 -3.306264 0
M  V30 27 N -1.275005 0.360704 -3.328598 0
M  V30 28 N 1.854747 0.412475 -0.181945 0
M  V30 29 C 2.885342 0.489538 0.670501 0
M  V30 30 N 3.036859 0.097108 1.931145 0
M  V30 31 C 2.198800 -0.555550 2.877005 0
M  V30 32 C 1.976140 0.303070 4.110459 0
M  V30 33 C 0.632788 0.970266 3.939284 0
M  V30 34 C 0.077711 0.453842 2.621849 0
M  V30 35 C 0.800752 -0.826135 2.445239 0
M  V30 36 H 6.852074 2.840781 4.571231 0
M  V30 37 H 5.285444 3.035912 5.434410 0
M  V30 38 H 5.393881 3.089913 3.574812 0
M  V30 39 H 5.712631 1.140559 6.607632 0
M  V30 40 H 6.162734 -0.450846 5.768666 0
M  V30 41 H 7.241840 0.990301 5.715220 0
M  V30 42 H 5.968309 1.401936 1.300661 0
M  V30 43 H 5.073016 2.004792 -1.326196 0
M  V30 44 H 1.110490 1.220201 -3.353198 0
M  V30 45 H -0.412373 -0.234830 -0.255021 0
M  V30 46 H -2.688008 -1.074735 -0.160789 0
M  V30 47 H -6.309664 -0.531514 -3.150159 0
M  V30 48 H -4.941426 -0.568062 -4.269190 0
M  V30 49 H -6.540901 -2.370691 -4.530399 0
M  V30 50 H -4.874038 -2.927984 -4.322110 0
M  V30 51 H -6.073250 -4.814355 -4.144587 0
M  V30 52 H -6.494001 -5.397937 -2.440318 0
M  V30 53 H -4.242841 -5.913664 -2.546747 0
M  V30 54 H -3.843123 -4.550280 -3.645603 0
M  V30 55 H -3.331242 -3.345936 -1.654073 0
M  V30 56 H -4.130119 -4.622986 -0.702506 0
M  V30 57 H -6.129131 -3.533373 -0.666360 0
M  V30 58 H -4.593057 -1.699284 -0.239533 0
M  V30 59 H -6.168270 -1.156642 -0.982545 0
M  V30 60 H -3.017792 0.023134 -4.268598 0
M  V30 61 H 2.649226 -1.543933 3.213684 0
M  V30 62 H 1.913663 -0.376038 4.987212 0
M  V30 63 H 2.743207 1.091784 4.234231 0
M  V30 64 H -0.087906 0.651573 4.723568 0
M  V30 65 H 0.714076 2.096255 3.920748 0
M  V30 66 H -1.028378 0.318231 2.678735 0
M  V30 67 H 0.245375 1.241988 1.893451 0
M  V30 68 H 0.360153 -1.550211 3.183294 0
M  V30 69 H 0.713488 -1.326169 1.472426 0
M  V30 END ATOM
M  V30 BEGIN BOND
M  V30 1 1 1 2
M  V30 2 1 2 3
M  V30 3 1 2 4
M  V30 4 2 4 5
M  V30 5 1 4 6
M  V30 6 2 6 7
M  V30 7 1 7 8
M  V30 8 2 8 9
M  V30 9 1 9 10
M  V30 10 2 10 11
M  V30 11 1 11 12
M  V30 12 1 12 13
M  V30 13 2 13 14
M  V30 14 1 14 15
M  V30 15 2 15 16
M  V30 16 1 16 17
M  V30 17 1 17 18
M  V30 18 1 18 19
M  V30 19 1 19 20
M  V30 20 1 20 21
M  V30 21 1 21 22
M  V30 22 1 22 23
M  V30 23 1 23 24
M  V30 24 1 24 25
M  V30 25 1 16 26
M  V30 26 2 26 27
M  V30 27 1 11 28
M  V30 28 2 28 29
M  V30 29 1 29 30
M  V30 30 1 30 31
M  V30 31 1 31 32
M  V30 32 1 32 33
M  V30 33 1 33 34
M  V30 34 1 34 35
M  V30 35 1 30 6
M  V30 36 1 35 31
M  V30 37 1 29 8
M  V30 38 1 27 13
M  V30 39 1 25 17
M  V30 40 1 24 20
M  V30 41 1 1 36
M  V30 42 1 1 37
M  V30 43 1 1 38
M  V30 44 1 3 39
M  V30 45 1 3 40
M  V30 46 1 3 41
M  V30 47 1 7 42
M  V30 48 1 9 43
M  V30 49 1 12 44
M  V30 50 1 14 45
M  V30 51 1 15 46
M  V30 52 1 18 47
M  V30 53 1 18 48
M  V30 54 1 19 49
M  V30 55 1 19 50
M  V30 56 1 21 51
M  V30 57 1 21 52
M  V30 58 1 22 53
M  V30 59 1 22 54
M  V30 60 1 23 55
M  V30 61 1 23 56
M  V30 62 1 24 57
M  V30 63 1 25 58
M  V30 64 1 25 59
M  V30 65 1 26 60
M  V30 66 1 31 61
M  V30 67 1 32 62
M  V30 68 1 32 63
M  V30 69 1 33 64
M  V30 70 1 33 65
M  V30 71 1 34 66
M  V30 72 1 34 67
M  V30 73 1 35 68
M  V30 74 1 35 69
M  V30 END BOND
M  V30 END CTAB
M  END
>  <Dataset>  (656) 
ChEMBL_Kinases

>  <Ligand_Instance>  (656) 
nan

>  <PDB_ID>  (656) 
nan

>  <Standardized_SMILES>  (656) 
CN(C)C(=O)c1cc2cnc(Nc3ccc(N4CCN5CCCC5C4)cn3)nc2n1C1CCCC1

>  <Name>  (656) 
nan

>  <Pocket>  (656) 
nan

>  <ATP_Site>  (656) 
nan

>  <Peripheral>  (656) 
nan

>  <Num_H_Atoms_ProtBoundConf>  (656) 
nan

>  <Num_Resolved_Atoms>  (656) 
nan

>  <Num_Not_Resolved_Atoms>  (656) 
nan

$$$$
CHEMBL3691655
     RDKit          3D

  0  0  0  0  0  0  0  0  0  0999 V3000
M  V30 BEGIN CTAB
M  V30 COUNTS 75 81 0 0 0
M  V30 BEGIN ATOM
M  V30 1 C 6.334792 0.785205 5.084767 0
M  V30 2 N 5.192320 1.038342 4.195471 0
M  V30 3 C 3.993364 0.317608 4.615758 0
M  V30 4 C 5.440048 1.929719 3.095185 0
M  V30 5 O 6.647780 2.267021 3.214753 0
M  V30 6 C 4.311691 2.198389 2.185686 0
M  V30 7 C 3.277339 2.873445 2.817695 0
M  V30 8 C 2.275957 3.082242 1.893452 0
M  V30 9 C 1.023485 3.652134 1.803186 0
M  V30 10 N 0.294128 3.673026 0.673335 0
M  V30 11 C 0.811884 3.106383 -0.436277 0
M  V30 12 N -0.000744 3.149948 -1.604244 0
M  V30 13 C -0.800633 1.969625 -1.810587 0
M  V30 14 C -0.752352 0.907327 -0.942275 0
M  V30 15 C -1.512914 -0.244139 -1.123006 0
M  V30 16 C -2.355097 -0.317635 -2.229352 0
M  V30 17 N -3.168187 -1.437719 -2.512484 0
M  V30 18 C -3.238903 -2.677013 -1.726361 0
M  V30 19 C -4.680650 -3.123289 -1.846666 0
M  V30 20 C -5.163717 -2.617464 -3.168291 0
M  V30 21 C -4.091794 -1.671131 -3.577630 0
M  V30 22 O -3.972808 -1.114917 -4.721608 0
M  V30 23 C -4.806260 -4.616944 -1.844035 0
M  V30 24 C -4.506276 -5.218689 -0.492513 0
M  V30 25 C -5.791903 -5.723490 0.121865 0
M  V30 26 C -6.436835 -4.450983 0.621637 0
M  V30 27 C -5.316174 -3.416934 0.561024 0
M  V30 28 C -5.447010 -2.545869 -0.664572 0
M  V30 29 N -4.093880 -4.193053 0.444937 0
M  V30 30 C -2.359549 0.778751 -3.062416 0
M  V30 31 N -1.612474 1.892843 -2.872287 0
M  V30 32 N 2.018639 2.542564 -0.399086 0
M  V30 33 C 2.780117 2.504312 0.724800 0
M  V30 34 N 4.001677 1.974649 0.904206 0
M  V30 35 C 4.919290 1.295632 0.078387 0
M  V30 36 C 4.130932 0.568566 -1.024651 0
M  V30 37 C 3.406814 -0.437665 -0.155251 0
M  V30 38 C 4.598631 -1.005717 0.628623 0
M  V30 39 C 5.620457 0.104910 0.615131 0
M  V30 40 H 5.998503 0.805642 6.147885 0
M  V30 41 H 7.107392 1.565091 4.987818 0
M  V30 42 H 6.662856 -0.236906 4.841277 0
M  V30 43 H 4.150097 -0.782533 4.653145 0
M  V30 44 H 3.715376 0.602391 5.667031 0
M  V30 45 H 3.136995 0.500744 3.942196 0
M  V30 46 H 3.066868 3.265017 3.824802 0
M  V30 47 H 0.646043 4.099416 2.733915 0
M  V30 48 H -0.055640 3.922176 -2.276528 0
M  V30 49 H -0.119107 0.917053 -0.075710 0
M  V30 50 H -1.465794 -1.072726 -0.432315 0
M  V30 51 H -2.981242 -2.410648 -0.686826 0
M  V30 52 H -2.519552 -3.437511 -2.113420 0
M  V30 53 H -6.138669 -2.101134 -3.095275 0
M  V30 54 H -5.216469 -3.416016 -3.943997 0
M  V30 55 H -4.082190 -5.058006 -2.576672 0
M  V30 56 H -5.837057 -4.886507 -2.174517 0
M  V30 57 H -3.758652 -6.036451 -0.572343 0
M  V30 58 H -5.598983 -6.449715 0.944284 0
M  V30 59 H -6.410288 -6.205256 -0.679324 0
M  V30 60 H -7.258375 -4.203187 -0.051568 0
M  V30 61 H -6.749383 -4.506096 1.688864 0
M  V30 62 H -5.276239 -2.777708 1.465893 0
M  V30 63 H -6.503005 -2.339544 -0.920681 0
M  V30 64 H -4.943791 -1.565483 -0.415906 0
M  V30 65 H -3.927109 -4.658430 1.364296 0
M  V30 66 H -2.969722 0.842786 -3.951561 0
M  V30 67 H 5.642635 1.930984 -0.467315 0
M  V30 68 H 3.513775 1.204271 -1.630874 0
M  V30 69 H 4.898054 0.012193 -1.618307 0
M  V30 70 H 2.768817 0.046996 0.589925 0
M  V30 71 H 2.897160 -1.225219 -0.738963 0
M  V30 72 H 4.909768 -1.911715 0.071365 0
M  V30 73 H 4.299343 -1.322978 1.644686 0
M  V30 74 H 6.233547 0.196631 1.491141 0
M  V30 75 H 6.348969 -0.188728 -0.201879 0
M  V30 END ATOM
M  V30 BEGIN BOND
M  V30 1 1 1 2
M  V30 2 1 2 3
M  V30 3 1 2 4
M  V30 4 2 4 5
M  V30 5 1 4 6
M  V30 6 2 6 7
M  V30 7 1 7 8
M  V30 8 2 8 9
M  V30 9 1 9 10
M  V30 10 2 10 11
M  V30 11 1 11 12
M  V30 12 1 12 13
M  V30 13 2 13 14
M  V30 14 1 14 15
M  V30 15 2 15 16
M  V30 16 1 16 17
M  V30 17 1 17 18
M  V30 18 1 18 19
M  V30 19 1 19 20
M  V30 20 1 20 21
M  V30 21 2 21 22
M  V30 22 1 19 23
M  V30 23 1 23 24
M  V30 24 1 24 25
M  V30 25 1 25 26
M  V30 26 1 26 27
M  V30 27 1 27 28
M  V30 28 1 27 29
M  V30 29 1 16 30
M  V30 30 2 30 31
M  V30 31 1 11 32
M  V30 32 2 32 33
M  V30 33 1 33 34
M  V30 34 1 34 35
M  V30 35 1 35 36
M  V30 36 1 36 37
M  V30 37 1 37 38
M  V30 38 1 38 39
M  V30 39 1 34 6
M  V30 40 1 39 35
M  V30 41 1 33 8
M  V30 42 1 31 13
M  V30 43 1 21 17
M  V30 44 1 29 24
M  V30 45 1 28 19
M  V30 46 1 1 40
M  V30 47 1 1 41
M  V30 48 1 1 42
M  V30 49 1 3 43
M  V30 50 1 3 44
M  V30 51 1 3 45
M  V30 52 1 7 46
M  V30 53 1 9 47
M  V30 54 1 12 48
M  V30 55 1 14 49
M  V30 56 1 15 50
M  V30 57 1 18 51
M  V30 58 1 18 52
M  V30 59 1 20 53
M  V30 60 1 20 54
M  V30 61 1 23 55
M  V30 62 1 23 56
M  V30 63 1 24 57
M  V30 64 1 25 58
M  V30 65 1 25 59
M  V30 66 1 26 60
M  V30 67 1 26 61
M  V30 68 1 27 62
M  V30 69 1 28 63
M  V30 70 1 28 64
M  V30 71 1 29 65
M  V30 72 1 30 66
M  V30 73 1 35 67
M  V30 74 1 36 68
M  V30 75 1 36 69
M  V30 76 1 37 70
M  V30 77 1 37 71
M  V30 78 1 38 72
M  V30 79 1 38 73
M  V30 80 1 39 74
M  V30 81 1 39 75
M  V30 END BOND
M  V30 END CTAB
M  END
>  <Dataset>  (657) 
ChEMBL_Kinases

>  <Ligand_Instance>  (657) 
nan

>  <PDB_ID>  (657) 
nan

>  <Standardized_SMILES>  (657) 
CN(C)C(=O)c1cc2cnc(Nc3ccc(N4CC5(CC4=O)CC4CCC(C5)N4)cn3)nc2n1C1CCCC1

>  <Name>  (657) 
nan

>  <Pocket>  (657) 
nan

>  <ATP_Site>  (657) 
nan

>  <Peripheral>  (657) 
nan

>  <Num_H_Atoms_ProtBoundConf>  (657) 
nan

>  <Num_Resolved_Atoms>  (657) 
nan

>  <Num_Not_Resolved_Atoms>  (657) 
nan

$$$$
CHEMBL3691656
     RDKit          3D

  0  0  0  0  0  0  0  0  0  0999 V3000
M  V30 BEGIN CTAB
M  V30 COUNTS 69 74 0 0 0
M  V30 BEGIN ATOM
M  V30 1 C 4.741956 -1.054831 0.885956 0
M  V30 2 N 5.591854 0.117908 1.103147 0
M  V30 3 C 6.889959 -0.340458 1.618877 0
M  V30 4 C 5.233646 1.493782 0.859672 0
M  V30 5 O 6.181212 2.305300 1.140949 0
M  V30 6 C 3.871663 1.630228 0.349015 0
M  V30 7 C 3.635259 1.554746 -1.027372 0
M  V30 8 C 2.251458 1.726174 -1.100700 0
M  V30 9 C 1.489638 1.733142 -2.254680 0
M  V30 10 N 0.156885 1.914470 -2.099404 0
M  V30 11 C -0.374876 2.078485 -0.861134 0
M  V30 12 N -1.782218 2.248548 -0.937732 0
M  V30 13 C -2.627463 1.114853 -0.785756 0
M  V30 14 C -3.998914 1.225582 -0.872772 0
M  V30 15 C -4.830524 0.133416 -0.717955 0
M  V30 16 C -4.272513 -1.104494 -0.468942 0
M  V30 17 N -4.886038 -2.374756 -0.276589 0
M  V30 18 C -5.267494 -3.529105 -1.109244 0
M  V30 19 C -4.965550 -4.676642 -0.162160 0
M  V30 20 C -5.575160 -5.919048 -0.748993 0
M  V30 21 C -4.546493 -6.785518 -1.439125 0
M  V30 22 N -3.502030 -6.046007 -2.059364 0
M  V30 23 C -2.823819 -5.084630 -1.257938 0
M  V30 24 C -3.508343 -4.913331 0.054726 0
M  V30 25 O -5.626675 -4.207506 1.000673 0
M  V30 26 C -5.312237 -2.830857 1.026964 0
M  V30 27 O -5.432978 -2.188289 2.127618 0
M  V30 28 C -2.878417 -1.213304 -0.381302 0
M  V30 29 N -2.107633 -0.103159 -0.542459 0
M  V30 30 N 0.401766 2.062935 0.209326 0
M  V30 31 C 1.741643 1.888894 0.163097 0
M  V30 32 N 2.747340 1.828308 1.051787 0
M  V30 33 C 2.525516 1.959660 2.446880 0
M  V30 34 C 1.623772 3.161788 2.728055 0
M  V30 35 C 2.520274 4.228110 3.339599 0
M  V30 36 C 3.937694 3.707380 3.054671 0
M  V30 37 C 3.697155 2.234170 3.308372 0
M  V30 38 H 3.944647 -0.722024 0.179499 0
M  V30 39 H 5.264496 -1.872195 0.388199 0
M  V30 40 H 4.322478 -1.443900 1.839675 0
M  V30 41 H 7.488374 0.530196 1.959161 0
M  V30 42 H 7.434353 -0.917445 0.848882 0
M  V30 43 H 6.724188 -0.999731 2.495732 0
M  V30 44 H 4.322205 1.405198 -1.826865 0
M  V30 45 H 1.941960 1.599286 -3.244096 0
M  V30 46 H -2.206913 3.186970 -1.103469 0
M  V30 47 H -4.491812 2.170885 -1.066444 0
M  V30 48 H -5.894871 0.094375 -0.763195 0
M  V30 49 H -4.663360 -3.536588 -2.022931 0
M  V30 50 H -6.342935 -3.573331 -1.310643 0
M  V30 51 H -6.398591 -5.710146 -1.446027 0
M  V30 52 H -5.979511 -6.507472 0.101937 0
M  V30 53 H -5.075809 -7.343304 -2.238225 0
M  V30 54 H -4.123588 -7.518906 -0.719198 0
M  V30 55 H -3.696282 -5.738347 -3.037983 0
M  V30 56 H -2.723496 -4.130061 -1.828074 0
M  V30 57 H -1.789182 -5.465729 -1.024920 0
M  V30 58 H -3.418048 -5.883520 0.595373 0
M  V30 59 H -3.030478 -4.163657 0.713811 0
M  V30 60 H -2.265227 -2.083842 -0.195248 0
M  V30 61 H 1.961115 1.037484 2.778741 0
M  V30 62 H 0.797695 2.867991 3.411827 0
M  V30 63 H 1.189264 3.604755 1.832886 0
M  V30 64 H 2.406513 5.214832 2.825935 0
M  V30 65 H 2.301468 4.262677 4.415387 0
M  V30 66 H 4.140972 3.924143 2.001594 0
M  V30 67 H 4.659534 4.148762 3.775112 0
M  V30 68 H 3.325590 2.184270 4.376167 0
M  V30 69 H 4.564775 1.596657 3.225963 0
M  V30 END ATOM
M  V30 BEGIN BOND
M  V30 1 1 1 2
M  V30 2 1 2 3
M  V30 3 1 2 4
M  V30 4 2 4 5
M  V30 5 1 4 6
M  V30 6 2 6 7
M  V30 7 1 7 8
M  V30 8 2 8 9
M  V30 9 1 9 10
M  V30 10 2 10 11
M  V30 11 1 11 12
M  V30 12 1 12 13
M  V30 13 2 13 14
M  V30 14 1 14 15
M  V30 15 2 15 16
M  V30 16 1 16 17
M  V30 17 1 17 18
M  V30 18 1 18 19
M  V30 19 1 19 20
M  V30 20 1 20 21
M  V30 21 1 21 22
M  V30 22 1 22 23
M  V30 23 1 23 24
M  V30 24 1 19 25
M  V30 25 1 25 26
M  V30 26 2 26 27
M  V30 27 1 16 28
M  V30 28 2 28 29
M  V30 29 1 11 30
M  V30 30 2 30 31
M  V30 31 1 31 32
M  V30 32 1 32 33
M  V30 33 1 33 34
M  V30 34 1 34 35
M  V30 35 1 35 36
M  V30 36 1 36 37
M  V30 37 1 32 6
M  V30 38 1 37 33
M  V30 39 1 31 8
M  V30 40 1 29 13
M  V30 41 1 26 17
M  V30 42 1 24 19
M  V30 43 1 1 38
M  V30 44 1 1 39
M  V30 45 1 1 40
M  V30 46 1 3 41
M  V30 47 1 3 42
M  V30 48 1 3 43
M  V30 49 1 7 44
M  V30 50 1 9 45
M  V30 51 1 12 46
M  V30 52 1 14 47
M  V30 53 1 15 48
M  V30 54 1 18 49
M  V30 55 1 18 50
M  V30 56 1 20 51
M  V30 57 1 20 52
M  V30 58 1 21 53
M  V30 59 1 21 54
M  V30 60 1 22 55
M  V30 61 1 23 56
M  V30 62 1 23 57
M  V30 63 1 24 58
M  V30 64 1 24 59
M  V30 65 1 28 60
M  V30 66 1 33 61
M  V30 67 1 34 62
M  V30 68 1 34 63
M  V30 69 1 35 64
M  V30 70 1 35 65
M  V30 71 1 36 66
M  V30 72 1 36 67
M  V30 73 1 37 68
M  V30 74 1 37 69
M  V30 END BOND
M  V30 END CTAB
M  END
>  <Dataset>  (658) 
ChEMBL_Kinases

>  <Ligand_Instance>  (658) 
nan

>  <PDB_ID>  (658) 
nan

>  <Standardized_SMILES>  (658) 
CN(C)C(=O)c1cc2cnc(Nc3ccc(N4CC5(CCNCC5)OC4=O)cn3)nc2n1C1CCCC1

>  <Name>  (658) 
nan

>  <Pocket>  (658) 
nan

>  <ATP_Site>  (658) 
nan

>  <Peripheral>  (658) 
nan

>  <Num_H_Atoms_ProtBoundConf>  (658) 
nan

>  <Num_Resolved_Atoms>  (658) 
nan

>  <Num_Not_Resolved_Atoms>  (658) 
nan

$$$$
CHEMBL3691657
     RDKit          3D

  0  0  0  0  0  0  0  0  0  0999 V3000
M  V30 BEGIN CTAB
M  V30 COUNTS 76 82 0 0 0
M  V30 BEGIN ATOM
M  V30 1 C 2.868295 5.229572 0.027772 0
M  V30 2 N 2.360483 6.159849 1.030038 0
M  V30 3 C 3.288291 7.262677 1.177224 0
M  V30 4 C 1.159545 6.060650 1.781993 0
M  V30 5 O 0.774858 6.912233 2.640819 0
M  V30 6 C 0.294928 4.904146 1.566114 0
M  V30 7 C 0.259798 4.053285 2.657515 0
M  V30 8 C -0.586330 3.002358 2.302086 0
M  V30 9 C -1.040785 1.851587 2.893383 0
M  V30 10 N -1.883843 1.056007 2.172284 0
M  V30 11 C -2.282559 1.350115 0.920831 0
M  V30 12 N -3.137964 0.289747 0.514086 0
M  V30 13 C -2.419971 -0.790152 -0.091568 0
M  V30 14 C -1.052753 -0.754353 -0.280045 0
M  V30 15 C -0.344382 -1.810378 -0.849087 0
M  V30 16 C -1.110760 -2.893144 -1.208814 0
M  V30 17 N -0.485526 -4.027273 -1.795849 0
M  V30 18 C -1.056974 -5.309946 -2.199517 0
M  V30 19 C -0.001941 -6.337210 -1.772632 0
M  V30 20 C 1.283631 -5.651357 -2.209078 0
M  V30 21 C 0.904198 -4.214313 -2.137748 0
M  V30 22 O 1.743868 -3.280049 -2.361507 0
M  V30 23 C -0.173846 -7.567932 -2.590053 0
M  V30 24 C 0.246116 -8.830707 -1.883218 0
M  V30 25 C 1.698081 -8.805308 -1.457953 0
M  V30 26 C 1.690027 -8.293475 -0.046584 0
M  V30 27 C 0.270341 -7.903677 0.166651 0
M  V30 28 C -0.083278 -6.511885 -0.295390 0
M  V30 29 N -0.470748 -8.886368 -0.622165 0
M  V30 30 C -2.485632 -2.975462 -1.040272 0
M  V30 31 N -3.105350 -1.911778 -0.481896 0
M  V30 32 N -1.840458 2.476635 0.337260 0
M  V30 33 C -0.995282 3.304791 1.020767 0
M  V30 34 N -0.465174 4.472982 0.546558 0
M  V30 35 C -0.619433 5.148015 -0.699105 0
M  V30 36 C -0.875395 6.617221 -0.468064 0
M  V30 37 C -2.081288 6.679095 0.481800 0
M  V30 38 C -3.255864 5.943326 -0.145982 0
M  V30 39 O -2.922810 4.689457 -0.589822 0
M  V30 40 C -1.836989 4.627671 -1.437923 0
M  V30 41 H 2.996550 5.756832 -0.961869 0
M  V30 42 H 2.241400 4.352999 -0.125492 0
M  V30 43 H 3.897446 4.847508 0.293889 0
M  V30 44 H 4.296767 6.826328 1.410517 0
M  V30 45 H 3.401479 7.875257 0.271046 0
M  V30 46 H 2.969890 7.913368 2.022530 0
M  V30 47 H 0.698302 4.013939 3.639837 0
M  V30 48 H -0.700008 1.639097 3.910211 0
M  V30 49 H -4.170888 0.237181 0.609187 0
M  V30 50 H -0.476509 0.119390 0.015853 0
M  V30 51 H 0.712628 -1.732374 -0.972295 0
M  V30 52 H -2.021413 -5.531377 -1.735595 0
M  V30 53 H -1.085459 -5.301322 -3.318173 0
M  V30 54 H 2.131560 -5.832597 -1.552057 0
M  V30 55 H 1.489018 -5.867707 -3.279458 0
M  V30 56 H -1.245094 -7.689306 -2.849214 0
M  V30 57 H 0.381012 -7.483414 -3.552741 0
M  V30 58 H 0.041121 -9.686473 -2.535393 0
M  V30 59 H 2.094881 -9.864571 -1.453239 0
M  V30 60 H 2.350069 -8.271507 -2.151545 0
M  V30 61 H 2.442762 -7.515952 0.168144 0
M  V30 62 H 1.909904 -9.132640 0.665685 0
M  V30 63 H -0.071613 -8.022219 1.215482 0
M  V30 64 H -1.155363 -6.369505 0.018062 0
M  V30 65 H 0.514458 -5.791525 0.270818 0
M  V30 66 H -0.467601 -9.812994 -0.176303 0
M  V30 67 H -3.072327 -3.836366 -1.329859 0
M  V30 68 H 0.269243 4.995984 -1.347418 0
M  V30 69 H -0.053586 7.145917 0.033376 0
M  V30 70 H -1.154984 7.135058 -1.422696 0
M  V30 71 H -2.419279 7.700219 0.674735 0
M  V30 72 H -1.797273 6.174318 1.415069 0
M  V30 73 H -3.773813 6.573695 -0.908828 0
M  V30 74 H -3.995186 5.801629 0.681616 0
M  V30 75 H -1.702493 3.583570 -1.777210 0
M  V30 76 H -2.047245 5.328066 -2.279493 0
M  V30 END ATOM
M  V30 BEGIN BOND
M  V30 1 1 1 2
M  V30 2 1 2 3
M  V30 3 1 2 4
M  V30 4 2 4 5
M  V30 5 1 4 6
M  V30 6 2 6 7
M  V30 7 1 7 8
M  V30 8 2 8 9
M  V30 9 1 9 10
M  V30 10 2 10 11
M  V30 11 1 11 12
M  V30 12 1 12 13
M  V30 13 2 13 14
M  V30 14 1 14 15
M  V30 15 2 15 16
M  V30 16 1 16 17
M  V30 17 1 17 18
M  V30 18 1 18 19
M  V30 19 1 19 20
M  V30 20 1 20 21
M  V30 21 2 21 22
M  V30 22 1 19 23
M  V30 23 1 23 24
M  V30 24 1 24 25
M  V30 25 1 25 26
M  V30 26 1 26 27
M  V30 27 1 27 28
M  V30 28 1 27 29
M  V30 29 1 16 30
M  V30 30 2 30 31
M  V30 31 1 11 32
M  V30 32 2 32 33
M  V30 33 1 33 34
M  V30 34 1 34 35
M  V30 35 1 35 36
M  V30 36 1 36 37
M  V30 37 1 37 38
M  V30 38 1 38 39
M  V30 39 1 39 40
M  V30 40 1 34 6
M  V30 41 1 40 35
M  V30 42 1 33 8
M  V30 43 1 31 13
M  V30 44 1 21 17
M  V30 45 1 29 24
M  V30 46 1 28 19
M  V30 47 1 1 41
M  V30 48 1 1 42
M  V30 49 1 1 43
M  V30 50 1 3 44
M  V30 51 1 3 45
M  V30 52 1 3 46
M  V30 53 1 7 47
M  V30 54 1 9 48
M  V30 55 1 12 49
M  V30 56 1 14 50
M  V30 57 1 15 51
M  V30 58 1 18 52
M  V30 59 1 18 53
M  V30 60 1 20 54
M  V30 61 1 20 55
M  V30 62 1 23 56
M  V30 63 1 23 57
M  V30 64 1 24 58
M  V30 65 1 25 59
M  V30 66 1 25 60
M  V30 67 1 26 61
M  V30 68 1 26 62
M  V30 69 1 27 63
M  V30 70 1 28 64
M  V30 71 1 28 65
M  V30 72 1 29 66
M  V30 73 1 30 67
M  V30 74 1 35 68
M  V30 75 1 36 69
M  V30 76 1 36 70
M  V30 77 1 37 71
M  V30 78 1 37 72
M  V30 79 1 38 73
M  V30 80 1 38 74
M  V30 81 1 40 75
M  V30 82 1 40 76
M  V30 END BOND
M  V30 END CTAB
M  END
>  <Dataset>  (659) 
ChEMBL_Kinases

>  <Ligand_Instance>  (659) 
nan

>  <PDB_ID>  (659) 
nan

>  <Standardized_SMILES>  (659) 
CN(C)C(=O)c1cc2cnc(Nc3ccc(N4CC5(CC4=O)CC4CCC(C5)N4)cn3)nc2n1C1CCCOC1

>  <Name>  (659) 
nan

>  <Pocket>  (659) 
nan

>  <ATP_Site>  (659) 
nan

>  <Peripheral>  (659) 
nan

>  <Num_H_Atoms_ProtBoundConf>  (659) 
nan

>  <Num_Resolved_Atoms>  (659) 
nan

>  <Num_Not_Resolved_Atoms>  (659) 
nan

$$$$
CHEMBL3691658
     RDKit          3D

  0  0  0  0  0  0  0  0  0  0999 V3000
M  V30 BEGIN CTAB
M  V30 COUNTS 69 74 0 0 0
M  V30 BEGIN ATOM
M  V30 1 C 5.523084 -0.396943 4.391567 0
M  V30 2 N 4.638972 0.084799 3.323499 0
M  V30 3 C 3.638432 -0.973259 3.173744 0
M  V30 4 C 4.780634 1.333171 2.617183 0
M  V30 5 O 5.780434 1.924700 3.077478 0
M  V30 6 C 3.728465 1.472372 1.625797 0
M  V30 7 C 4.102539 1.336149 0.286800 0
M  V30 8 C 2.924550 1.501927 -0.430238 0
M  V30 9 C 2.712692 1.461345 -1.796548 0
M  V30 10 N 1.424629 1.659069 -2.201225 0
M  V30 11 C 0.456329 1.875223 -1.315269 0
M  V30 12 N -0.923440 2.077906 -1.657915 0
M  V30 13 C -1.711915 0.883830 -1.680100 0
M  V30 14 C -3.056309 0.883091 -1.993025 0
M  V30 15 C -3.872745 -0.227018 -2.030634 0
M  V30 16 C -3.314091 -1.452189 -1.731318 0
M  V30 17 N -3.984486 -2.711847 -1.711093 0
M  V30 18 C -4.603932 -3.153888 -0.466723 0
M  V30 19 C -5.115458 -4.550975 -0.730129 0
M  V30 20 C -4.320664 -5.011761 -1.909820 0
M  V30 21 C -4.892447 -6.143021 -2.672711 0
M  V30 22 C -3.698752 -6.703806 -3.414840 0
M  V30 23 C -2.502853 -6.230133 -2.660080 0
M  V30 24 N -2.955504 -5.370070 -1.585974 0
M  V30 25 C -4.220478 -3.737028 -2.698288 0
M  V30 26 O -4.284532 -3.361877 -3.915677 0
M  V30 27 C -1.967837 -1.446596 -1.418416 0
M  V30 28 N -1.199124 -0.347221 -1.390736 0
M  V30 29 N 0.723357 1.903101 -0.005694 0
M  V30 30 C 1.946928 1.723863 0.514687 0
M  V30 31 N 2.419456 1.709723 1.767238 0
M  V30 32 C 1.667619 1.907886 2.961458 0
M  V30 33 C 2.296643 2.756268 4.012379 0
M  V30 34 C 1.804041 4.199958 3.923981 0
M  V30 35 C 1.609772 4.492686 2.443164 0
M  V30 36 O 0.552899 3.742618 1.912921 0
M  V30 37 C 0.327108 2.582807 2.629560 0
M  V30 38 H 4.990770 -0.603545 5.324259 0
M  V30 39 H 6.003986 -1.360787 4.079653 0
M  V30 40 H 6.339040 0.341035 4.576224 0
M  V30 41 H 4.166849 -1.863862 2.785357 0
M  V30 42 H 2.936102 -0.639418 2.369261 0
M  V30 43 H 3.048983 -1.145861 4.076516 0
M  V30 44 H 5.061886 1.141875 -0.174364 0
M  V30 45 H 3.512917 1.281063 -2.503208 0
M  V30 46 H -1.424293 2.958273 -1.889996 0
M  V30 47 H -3.533990 1.828378 -2.236945 0
M  V30 48 H -4.911110 -0.222819 -2.272243 0
M  V30 49 H -5.405706 -2.456851 -0.132737 0
M  V30 50 H -3.841419 -3.262030 0.341847 0
M  V30 51 H -4.990269 -5.205439 0.164294 0
M  V30 52 H -6.191310 -4.545166 -1.048985 0
M  V30 53 H -5.703549 -5.868886 -3.371580 0
M  V30 54 H -5.222537 -6.911611 -1.934400 0
M  V30 55 H -3.751259 -7.807068 -3.520220 0
M  V30 56 H -3.690605 -6.237449 -4.441544 0
M  V30 57 H -1.898661 -7.035345 -2.193118 0
M  V30 58 H -1.849250 -5.573521 -3.300892 0
M  V30 59 H -2.811468 -5.743954 -0.642333 0
M  V30 60 H -1.457395 -2.378775 -1.168673 0
M  V30 61 H 1.393950 0.903315 3.392578 0
M  V30 62 H 3.393486 2.822443 3.991871 0
M  V30 63 H 2.055258 2.336281 5.027401 0
M  V30 64 H 0.886264 4.369315 4.504872 0
M  V30 65 H 2.569723 4.904676 4.295680 0
M  V30 66 H 1.478559 5.577633 2.305618 0
M  V30 67 H 2.559199 4.165225 1.942375 0
M  V30 68 H -0.363902 1.936467 2.093397 0
M  V30 69 H -0.175432 2.795771 3.619359 0
M  V30 END ATOM
M  V30 BEGIN BOND
M  V30 1 1 1 2
M  V30 2 1 2 3
M  V30 3 1 2 4
M  V30 4 2 4 5
M  V30 5 1 4 6
M  V30 6 2 6 7
M  V30 7 1 7 8
M  V30 8 2 8 9
M  V30 9 1 9 10
M  V30 10 2 10 11
M  V30 11 1 11 12
M  V30 12 1 12 13
M  V30 13 2 13 14
M  V30 14 1 14 15
M  V30 15 2 15 16
M  V30 16 1 16 17
M  V30 17 1 17 18
M  V30 18 1 18 19
M  V30 19 1 19 20
M  V30 20 1 20 21
M  V30 21 1 21 22
M  V30 22 1 22 23
M  V30 23 1 23 24
M  V30 24 1 20 25
M  V30 25 2 25 26
M  V30 26 1 16 27
M  V30 27 2 27 28
M  V30 28 1 11 29
M  V30 29 2 29 30
M  V30 30 1 30 31
M  V30 31 1 31 32
M  V30 32 1 32 33
M  V30 33 1 33 34
M  V30 34 1 34 35
M  V30 35 1 35 36
M  V30 36 1 36 37
M  V30 37 1 31 6
M  V30 38 1 37 32
M  V30 39 1 30 8
M  V30 40 1 28 13
M  V30 41 1 25 17
M  V30 42 1 24 20
M  V30 43 1 1 38
M  V30 44 1 1 39
M  V30 45 1 1 40
M  V30 46 1 3 41
M  V30 47 1 3 42
M  V30 48 1 3 43
M  V30 49 1 7 44
M  V30 50 1 9 45
M  V30 51 1 12 46
M  V30 52 1 14 47
M  V30 53 1 15 48
M  V30 54 1 18 49
M  V30 55 1 18 50
M  V30 56 1 19 51
M  V30 57 1 19 52
M  V30 58 1 21 53
M  V30 59 1 21 54
M  V30 60 1 22 55
M  V30 61 1 22 56
M  V30 62 1 23 57
M  V30 63 1 23 58
M  V30 64 1 24 59
M  V30 65 1 27 60
M  V30 66 1 32 61
M  V30 67 1 33 62
M  V30 68 1 33 63
M  V30 69 1 34 64
M  V30 70 1 34 65
M  V30 71 1 35 66
M  V30 72 1 35 67
M  V30 73 1 37 68
M  V30 74 1 37 69
M  V30 END BOND
M  V30 END CTAB
M  END
>  <Dataset>  (660) 
ChEMBL_Kinases

>  <Ligand_Instance>  (660) 
nan

>  <PDB_ID>  (660) 
nan

>  <Standardized_SMILES>  (660) 
CN(C)C(=O)c1cc2cnc(Nc3ccc(N4CCC5(CCCN5)C4=O)cn3)nc2n1C1CCCOC1

>  <Name>  (660) 
nan

>  <Pocket>  (660) 
nan

>  <ATP_Site>  (660) 
nan

>  <Peripheral>  (660) 
nan

>  <Num_H_Atoms_ProtBoundConf>  (660) 
nan

>  <Num_Resolved_Atoms>  (660) 
nan

>  <Num_Not_Resolved_Atoms>  (660) 
nan

$$$$
CHEMBL3691659
     RDKit          3D

  0  0  0  0  0  0  0  0  0  0999 V3000
M  V30 BEGIN CTAB
M  V30 COUNTS 68 73 0 0 0
M  V30 BEGIN ATOM
M  V30 1 C 5.732447 -1.156359 2.878023 0
M  V30 2 N 6.358641 -0.578530 1.678085 0
M  V30 3 C 7.647295 -1.225735 1.451871 0
M  V30 4 C 5.852196 0.458638 0.806395 0
M  V30 5 O 6.613612 0.772434 -0.173127 0
M  V30 6 C 4.548122 0.906954 1.280295 0
M  V30 7 C 4.441880 1.966587 2.156414 0
M  V30 8 C 3.084237 2.086998 2.381923 0
M  V30 9 C 2.478319 3.016761 3.203710 0
M  V30 10 N 1.140559 2.967023 3.294150 0
M  V30 11 C 0.460049 2.038230 2.599379 0
M  V30 12 N -0.957261 2.017076 2.724310 0
M  V30 13 C -1.897765 1.141598 2.112507 0
M  V30 14 C -3.262790 1.184602 2.280778 0
M  V30 15 C -4.061193 0.277837 1.628893 0
M  V30 16 C -3.616596 -0.712314 0.788816 0
M  V30 17 N -4.396554 -1.666025 0.116423 0
M  V30 18 C -3.749223 -2.534831 -0.843731 0
M  V30 19 C -4.740555 -3.115841 -1.838456 0
M  V30 20 C -5.661084 -4.129140 -1.251118 0
M  V30 21 C -6.999022 -3.716007 -1.864262 0
M  V30 22 C -6.870233 -2.194227 -1.802814 0
M  V30 23 C -7.038750 -1.794890 -0.367058 0
M  V30 24 C -5.783321 -1.709662 0.406843 0
M  V30 25 O -6.037455 -1.664754 1.664331 0
M  V30 26 N -5.529824 -2.000262 -2.309099 0
M  V30 27 C -2.239791 -0.707970 0.657689 0
M  V30 28 N -1.438117 0.181562 1.295064 0
M  V30 29 N 1.111496 1.167125 1.820816 0
M  V30 30 C 2.444258 1.113132 1.645491 0
M  V30 31 N 3.358634 0.372025 0.953562 0
M  V30 32 C 2.874674 -0.681770 0.139075 0
M  V30 33 C 1.694360 -0.365675 -0.734807 0
M  V30 34 C 2.251624 0.318887 -1.937900 0
M  V30 35 C 3.740285 -0.016222 -1.926956 0
M  V30 36 C 3.874327 -1.131861 -0.895093 0
M  V30 37 H 5.406795 -2.195542 2.670526 0
M  V30 38 H 4.848926 -0.595050 3.201514 0
M  V30 39 H 6.446907 -1.092820 3.748183 0
M  V30 40 H 7.406548 -2.319344 1.305492 0
M  V30 41 H 8.230342 -1.171179 2.391513 0
M  V30 42 H 8.170518 -0.801201 0.573454 0
M  V30 43 H 5.245035 2.565947 2.570869 0
M  V30 44 H 3.034341 3.757071 3.755936 0
M  V30 45 H -1.431993 2.724352 3.342123 0
M  V30 46 H -3.657746 1.949051 2.934855 0
M  V30 47 H -5.118544 0.392439 1.813266 0
M  V30 48 H -3.240730 -3.397121 -0.349819 0
M  V30 49 H -2.973801 -1.943923 -1.378095 0
M  V30 50 H -4.135329 -3.596275 -2.636705 0
M  V30 51 H -5.684392 -4.195790 -0.162403 0
M  V30 52 H -5.482804 -5.164434 -1.665912 0
M  V30 53 H -7.851053 -4.088429 -1.285820 0
M  V30 54 H -6.990399 -4.004165 -2.933327 0
M  V30 55 H -7.614524 -1.710661 -2.472157 0
M  V30 56 H -7.542830 -0.788637 -0.300550 0
M  V30 57 H -7.727099 -2.498977 0.182886 0
M  V30 58 H -5.134365 -1.064888 -2.029189 0
M  V30 59 H -1.686107 -1.405470 0.047236 0
M  V30 60 H 2.544070 -1.550996 0.780806 0
M  V30 61 H 0.853617 0.123970 -0.268260 0
M  V30 62 H 1.298384 -1.367562 -1.079401 0
M  V30 63 H 1.850249 -0.145143 -2.883267 0
M  V30 64 H 2.037515 1.383052 -2.000778 0
M  V30 65 H 4.092336 -0.357899 -2.912851 0
M  V30 66 H 4.245331 0.868975 -1.548543 0
M  V30 67 H 4.884216 -1.296916 -0.553764 0
M  V30 68 H 3.431881 -2.078693 -1.343471 0
M  V30 END ATOM
M  V30 BEGIN BOND
M  V30 1 1 1 2
M  V30 2 1 2 3
M  V30 3 1 2 4
M  V30 4 2 4 5
M  V30 5 1 4 6
M  V30 6 2 6 7
M  V30 7 1 7 8
M  V30 8 2 8 9
M  V30 9 1 9 10
M  V30 10 2 10 11
M  V30 11 1 11 12
M  V30 12 1 12 13
M  V30 13 2 13 14
M  V30 14 1 14 15
M  V30 15 2 15 16
M  V30 16 1 16 17
M  V30 17 1 17 18
M  V30 18 1 18 19
M  V30 19 1 19 20
M  V30 20 1 20 21
M  V30 21 1 21 22
M  V30 22 1 22 23
M  V30 23 1 23 24
M  V30 24 2 24 25
M  V30 25 1 22 26
M  V30 26 1 16 27
M  V30 27 2 27 28
M  V30 28 1 11 29
M  V30 29 2 29 30
M  V30 30 1 30 31
M  V30 31 1 31 32
M  V30 32 1 32 33
M  V30 33 1 33 34
M  V30 34 1 34 35
M  V30 35 1 35 36
M  V30 36 1 31 6
M  V30 37 1 36 32
M  V30 38 1 30 8
M  V30 39 1 28 13
M  V30 40 1 24 17
M  V30 41 1 26 19
M  V30 42 1 1 37
M  V30 43 1 1 38
M  V30 44 1 1 39
M  V30 45 1 3 40
M  V30 46 1 3 41
M  V30 47 1 3 42
M  V30 48 1 7 43
M  V30 49 1 9 44
M  V30 50 1 12 45
M  V30 51 1 14 46
M  V30 52 1 15 47
M  V30 53 1 18 48
M  V30 54 1 18 49
M  V30 55 1 19 50
M  V30 56 1 20 51
M  V30 57 1 20 52
M  V30 58 1 21 53
M  V30 59 1 21 54
M  V30 60 1 22 55
M  V30 61 1 23 56
M  V30 62 1 23 57
M  V30 63 1 26 58
M  V30 64 1 27 59
M  V30 65 1 32 60
M  V30 66 1 33 61
M  V30 67 1 33 62
M  V30 68 1 34 63
M  V30 69 1 34 64
M  V30 70 1 35 65
M  V30 71 1 35 66
M  V30 72 1 36 67
M  V30 73 1 36 68
M  V30 END BOND
M  V30 END CTAB
M  END
>  <Dataset>  (661) 
ChEMBL_Kinases

>  <Ligand_Instance>  (661) 
nan

>  <PDB_ID>  (661) 
nan

>  <Standardized_SMILES>  (661) 
CN(C)C(=O)c1cc2cnc(Nc3ccc(N4CC5CCC(CC4=O)N5)cn3)nc2n1C1CCCC1

>  <Name>  (661) 
nan

>  <Pocket>  (661) 
nan

>  <ATP_Site>  (661) 
nan

>  <Peripheral>  (661) 
nan

>  <Num_H_Atoms_ProtBoundConf>  (661) 
nan

>  <Num_Resolved_Atoms>  (661) 
nan

>  <Num_Not_Resolved_Atoms>  (661) 
nan

$$$$
CHEMBL3691660
     RDKit          3D

  0  0  0  0  0  0  0  0  0  0999 V3000
M  V30 BEGIN CTAB
M  V30 COUNTS 68 73 0 0 0
M  V30 BEGIN ATOM
M  V30 1 C 4.208468 -2.311157 1.812145 0
M  V30 2 N 5.144774 -1.697945 0.871923 0
M  V30 3 C 6.105181 -2.731341 0.479862 0
M  V30 4 C 5.259527 -0.363871 0.309318 0
M  V30 5 O 6.222737 -0.146997 -0.509893 0
M  V30 6 C 4.194698 0.476873 0.835335 0
M  V30 7 C 4.472800 1.444817 1.774117 0
M  V30 8 C 3.236926 2.007111 2.067056 0
M  V30 9 C 2.951054 3.016297 2.955060 0
M  V30 10 N 1.664169 3.394977 3.090160 0
M  V30 11 C 0.722860 2.775469 2.359569 0
M  V30 12 N -0.677208 3.138031 2.440982 0
M  V30 13 C -1.622985 2.105226 2.078057 0
M  V30 14 C -2.993178 2.197986 1.999491 0
M  V30 15 C -3.751571 1.110933 1.688552 0
M  V30 16 C -3.281933 -0.140964 1.429782 0
M  V30 17 N -3.938158 -1.345289 1.107420 0
M  V30 18 C -3.241237 -2.579902 0.857251 0
M  V30 19 C -3.561549 -3.118855 -0.550541 0 CFG=1
M  V30 20 C -4.303544 -4.417844 -0.478696 0
M  V30 21 C -5.604276 -4.152588 -1.183427 0
M  V30 22 C -5.756318 -2.670797 -1.123023 0 CFG=1
M  V30 23 C -6.319280 -2.301998 0.245018 0
M  V30 24 C -5.370980 -1.408693 1.005583 0
M  V30 25 O -6.002005 -0.527130 1.700716 0
M  V30 26 N -4.416167 -2.163813 -1.184915 0
M  V30 27 C -1.920202 -0.196601 1.515325 0
M  V30 28 N -1.152436 0.849909 1.816786 0
M  V30 29 N 1.061456 1.805916 1.514070 0
M  V30 30 C 2.294741 1.334623 1.280678 0
M  V30 31 N 2.894438 0.379183 0.506994 0
M  V30 32 C 2.119182 -0.396699 -0.393299 0
M  V30 33 C 1.035724 0.390912 -1.100731 0
M  V30 34 C 1.766680 1.317683 -2.048312 0
M  V30 35 C 3.137089 0.660571 -2.238232 0
M  V30 36 C 2.962862 -0.735408 -1.622542 0
M  V30 37 H 3.702608 -3.191832 1.327910 0
M  V30 38 H 3.377641 -1.626043 2.094198 0
M  V30 39 H 4.728746 -2.728968 2.683480 0
M  V30 40 H 5.527195 -3.507746 -0.088062 0
M  V30 41 H 6.525331 -3.208003 1.385769 0
M  V30 42 H 6.910771 -2.307007 -0.147997 0
M  V30 43 H 5.410511 1.722063 2.198823 0
M  V30 44 H 3.738572 3.495965 3.531573 0
M  V30 45 H -0.972790 4.071839 2.741615 0
M  V30 46 H -3.398000 3.158604 2.194974 0
M  V30 47 H -4.813851 1.279520 1.642097 0
M  V30 48 H -2.166399 -2.567338 1.000237 0
M  V30 49 H -3.605676 -3.377619 1.583760 0
M  V30 50 H -2.618822 -3.297936 -1.076751 0
M  V30 51 H -4.472197 -4.749994 0.570169 0
M  V30 52 H -3.778111 -5.236703 -1.036265 0
M  V30 53 H -6.456981 -4.667647 -0.675614 0
M  V30 54 H -5.511815 -4.498533 -2.241504 0
M  V30 55 H -6.377488 -2.262254 -1.948710 0
M  V30 56 H -7.246317 -1.718726 0.093726 0
M  V30 57 H -6.494059 -3.217401 0.852523 0
M  V30 58 H -4.114750 -1.909527 -2.152214 0
M  V30 59 H -1.230618 -1.005265 1.375340 0
M  V30 60 H 1.683674 -1.274128 0.074832 0
M  V30 61 H 0.293737 0.862621 -0.494659 0
M  V30 62 H 0.497785 -0.353283 -1.752282 0
M  V30 63 H 1.268285 1.313376 -3.061671 0
M  V30 64 H 1.825960 2.346261 -1.697628 0
M  V30 65 H 3.858702 1.229756 -1.646044 0
M  V30 66 H 3.406997 0.582547 -3.297570 0
M  V30 67 H 3.870363 -1.264572 -1.453043 0
M  V30 68 H 2.271439 -1.271511 -2.353880 0
M  V30 END ATOM
M  V30 BEGIN BOND
M  V30 1 1 1 2
M  V30 2 1 2 3
M  V30 3 1 2 4
M  V30 4 2 4 5
M  V30 5 1 4 6
M  V30 6 2 6 7
M  V30 7 1 7 8
M  V30 8 2 8 9
M  V30 9 1 9 10
M  V30 10 2 10 11
M  V30 11 1 11 12
M  V30 12 1 12 13
M  V30 13 2 13 14
M  V30 14 1 14 15
M  V30 15 2 15 16
M  V30 16 1 16 17
M  V30 17 1 17 18
M  V30 18 1 18 19
M  V30 19 1 19 20
M  V30 20 1 20 21
M  V30 21 1 21 22
M  V30 22 1 22 23
M  V30 23 1 23 24
M  V30 24 2 24 25
M  V30 25 1 22 26
M  V30 26 1 16 27
M  V30 27 2 27 28
M  V30 28 1 11 29
M  V30 29 2 29 30
M  V30 30 1 30 31
M  V30 31 1 31 32
M  V30 32 1 32 33
M  V30 33 1 33 34
M  V30 34 1 34 35
M  V30 35 1 35 36
M  V30 36 1 31 6
M  V30 37 1 36 32
M  V30 38 1 30 8
M  V30 39 1 28 13
M  V30 40 1 24 17
M  V30 41 1 26 19
M  V30 42 1 1 37
M  V30 43 1 1 38
M  V30 44 1 1 39
M  V30 45 1 3 40
M  V30 46 1 3 41
M  V30 47 1 3 42
M  V30 48 1 7 43
M  V30 49 1 9 44
M  V30 50 1 12 45
M  V30 51 1 14 46
M  V30 52 1 15 47
M  V30 53 1 18 48
M  V30 54 1 18 49
M  V30 55 1 19 50 CFG=3
M  V30 56 1 20 51
M  V30 57 1 20 52
M  V30 58 1 21 53
M  V30 59 1 21 54
M  V30 60 1 22 55 CFG=3
M  V30 61 1 23 56
M  V30 62 1 23 57
M  V30 63 1 26 58
M  V30 64 1 27 59
M  V30 65 1 32 60
M  V30 66 1 33 61
M  V30 67 1 33 62
M  V30 68 1 34 63
M  V30 69 1 34 64
M  V30 70 1 35 65
M  V30 71 1 35 66
M  V30 72 1 36 67
M  V30 73 1 36 68
M  V30 END BOND
M  V30 END CTAB
M  END
>  <Dataset>  (662) 
ChEMBL_Kinases

>  <Ligand_Instance>  (662) 
nan

>  <PDB_ID>  (662) 
nan

>  <Standardized_SMILES>  (662) 
CN(C)C(=O)c1cc2cnc(Nc3ccc(N4C[C@H]5CC[C@@H](CC4=O)N5)cn3)nc2n1C1CCCC1

>  <Name>  (662) 
nan

>  <Pocket>  (662) 
nan

>  <ATP_Site>  (662) 
nan

>  <Peripheral>  (662) 
nan

>  <Num_H_Atoms_ProtBoundConf>  (662) 
nan

>  <Num_Resolved_Atoms>  (662) 
nan

>  <Num_Not_Resolved_Atoms>  (662) 
nan

$$$$
CHEMBL3691661
     RDKit          3D

  0  0  0  0  0  0  0  0  0  0999 V3000
M  V30 BEGIN CTAB
M  V30 COUNTS 68 73 0 0 0
M  V30 BEGIN ATOM
M  V30 1 C 2.681782 6.941380 -0.163537 0
M  V30 2 N 2.505491 5.499574 -0.137486 0
M  V30 3 C 2.330911 4.825556 1.087640 0
M  V30 4 O 2.368153 5.734164 1.974970 0
M  V30 5 C 2.138077 3.445632 1.462498 0
M  V30 6 C 1.835346 3.241743 2.792969 0
M  V30 7 C 1.689397 1.857612 2.955713 0
M  V30 8 C 1.385631 1.033610 4.018307 0
M  V30 9 N 1.299878 -0.298270 3.895049 0
M  V30 10 C 1.510383 -0.888930 2.709443 0
M  V30 11 N 1.483060 -2.235556 2.260009 0
M  V30 12 C 0.474134 -2.612784 1.330487 0
M  V30 13 C -0.460713 -1.714912 0.866715 0
M  V30 14 C -1.445778 -2.066641 -0.064750 0
M  V30 15 C -1.463009 -3.386792 -0.529548 0
M  V30 16 N -2.501990 -3.591971 -1.479149 0
M  V30 17 C -2.101120 -3.334168 -2.851214 0
M  V30 18 C -3.046202 -2.362928 -3.524163 0 CFG=1
M  V30 19 C -3.795451 -2.988525 -4.675435 0
M  V30 20 C -5.260836 -3.073542 -4.228673 0
M  V30 21 C -5.178100 -2.750130 -2.772413 0 CFG=1
M  V30 22 C -5.047613 -4.039963 -1.973180 0
M  V30 23 C -3.819836 -4.011863 -1.102329 0
M  V30 24 O -3.839531 -4.377937 0.112929 0
M  V30 25 N -4.046501 -1.868734 -2.599118 0
M  V30 26 C -4.437121 -0.547445 -3.038635 0
M  V30 27 C -0.519926 -4.272978 -0.053533 0
M  V30 28 N 0.401518 -3.878630 0.840447 0
M  V30 29 N 1.805566 -0.088211 1.675301 0
M  V30 30 C 1.903235 1.245809 1.743243 0
M  V30 31 N 2.171308 2.246989 0.872272 0
M  V30 32 C 2.459892 2.065589 -0.513872 0
M  V30 33 C 2.379592 0.673055 -1.025333 0
M  V30 34 C 3.723777 0.060650 -0.894873 0
M  V30 35 C 4.666724 1.211110 -0.635299 0
M  V30 36 C 3.884648 2.465231 -0.833634 0
M  V30 37 H 2.320292 7.386215 -1.104133 0
M  V30 38 H 2.112343 7.441814 0.644241 0
M  V30 39 H 3.741534 7.239905 -0.041581 0
M  V30 40 H 2.489493 4.897682 -0.981507 0
M  V30 41 H 1.687529 3.853122 3.699772 0
M  V30 42 H 1.208235 1.463276 4.989929 0
M  V30 43 H 2.163428 -2.988671 2.565758 0
M  V30 44 H -0.453296 -0.683456 1.225146 0
M  V30 45 H -2.147545 -1.278663 -0.373526 0
M  V30 46 H -1.060676 -2.954774 -2.866307 0
M  V30 47 H -2.143742 -4.283475 -3.408212 0
M  V30 48 H -2.443915 -1.511169 -3.896261 0
M  V30 49 H -3.697529 -2.387840 -5.613537 0
M  V30 50 H -3.426506 -4.025155 -4.816295 0
M  V30 51 H -5.636311 -4.102494 -4.386196 0
M  V30 52 H -5.881097 -2.341863 -4.788259 0
M  V30 53 H -6.067523 -2.158900 -2.424809 0
M  V30 54 H -5.934943 -4.121441 -1.330229 0
M  V30 55 H -5.000238 -4.925836 -2.661214 0
M  V30 56 H -4.822911 -0.495995 -4.056871 0
M  V30 57 H -5.156615 -0.061378 -2.356556 0
M  V30 58 H -3.513597 0.094824 -2.989409 0
M  V30 59 H -0.616306 -5.256397 -0.467576 0
M  V30 60 H 1.795828 2.703155 -1.148249 0
M  V30 61 H 1.536107 0.063236 -0.647597 0
M  V30 62 H 2.156723 0.736652 -2.139930 0
M  V30 63 H 3.857283 -0.669603 -0.080813 0
M  V30 64 H 4.026102 -0.486460 -1.841453 0
M  V30 65 H 5.051241 1.235198 0.416601 0
M  V30 66 H 5.525327 1.123013 -1.364207 0
M  V30 67 H 4.239529 3.304264 -0.196804 0
M  V30 68 H 3.936049 2.709278 -1.926882 0
M  V30 END ATOM
M  V30 BEGIN BOND
M  V30 1 1 1 2
M  V30 2 1 2 3
M  V30 3 2 3 4
M  V30 4 1 3 5
M  V30 5 2 5 6
M  V30 6 1 6 7
M  V30 7 2 7 8
M  V30 8 1 8 9
M  V30 9 2 9 10
M  V30 10 1 10 11
M  V30 11 1 11 12
M  V30 12 2 12 13
M  V30 13 1 13 14
M  V30 14 2 14 15
M  V30 15 1 15 16
M  V30 16 1 16 17
M  V30 17 1 17 18
M  V30 18 1 18 19
M  V30 19 1 19 20
M  V30 20 1 20 21
M  V30 21 1 21 22
M  V30 22 1 22 23
M  V30 23 2 23 24
M  V30 24 1 21 25
M  V30 25 1 25 26
M  V30 26 1 15 27
M  V30 27 2 27 28
M  V30 28 1 10 29
M  V30 29 2 29 30
M  V30 30 1 30 31
M  V30 31 1 31 32
M  V30 32 1 32 33
M  V30 33 1 33 34
M  V30 34 1 34 35
M  V30 35 1 35 36
M  V30 36 1 31 5
M  V30 37 1 36 32
M  V30 38 1 30 7
M  V30 39 1 28 12
M  V30 40 1 23 16
M  V30 41 1 25 18
M  V30 42 1 1 37
M  V30 43 1 1 38
M  V30 44 1 1 39
M  V30 45 1 2 40
M  V30 46 1 6 41
M  V30 47 1 8 42
M  V30 48 1 11 43
M  V30 49 1 13 44
M  V30 50 1 14 45
M  V30 51 1 17 46
M  V30 52 1 17 47
M  V30 53 1 18 48 CFG=3
M  V30 54 1 19 49
M  V30 55 1 19 50
M  V30 56 1 20 51
M  V30 57 1 20 52
M  V30 58 1 21 53 CFG=1
M  V30 59 1 22 54
M  V30 60 1 22 55
M  V30 61 1 26 56
M  V30 62 1 26 57
M  V30 63 1 26 58
M  V30 64 1 27 59
M  V30 65 1 32 60
M  V30 66 1 33 61
M  V30 67 1 33 62
M  V30 68 1 34 63
M  V30 69 1 34 64
M  V30 70 1 35 65
M  V30 71 1 35 66
M  V30 72 1 36 67
M  V30 73 1 36 68
M  V30 END BOND
M  V30 END CTAB
M  END
>  <Dataset>  (663) 
ChEMBL_Kinases

>  <Ligand_Instance>  (663) 
nan

>  <PDB_ID>  (663) 
nan

>  <Standardized_SMILES>  (663) 
CNC(=O)c1cc2cnc(Nc3ccc(N4C[C@H]5CC[C@@H](CC4=O)N5C)cn3)nc2n1C1CCCC1

>  <Name>  (663) 
nan

>  <Pocket>  (663) 
nan

>  <ATP_Site>  (663) 
nan

>  <Peripheral>  (663) 
nan

>  <Num_H_Atoms_ProtBoundConf>  (663) 
nan

>  <Num_Resolved_Atoms>  (663) 
nan

>  <Num_Not_Resolved_Atoms>  (663) 
nan

$$$$
CHEMBL3691653
     RDKit          3D

  0  0  0  0  0  0  0  0  0  0999 V3000
M  V30 BEGIN CTAB
M  V30 COUNTS 68 73 0 0 0
M  V30 BEGIN ATOM
M  V30 1 C 5.573551 -1.082808 2.998199 0
M  V30 2 N 6.351796 -0.184096 2.176153 0
M  V30 3 C 7.743113 -0.421910 1.976666 0
M  V30 4 C 5.663802 0.932923 1.589318 0
M  V30 5 O 6.390754 1.702434 0.868498 0
M  V30 6 C 4.255630 1.252655 1.743870 0
M  V30 7 C 4.069655 2.463864 2.414497 0
M  V30 8 C 2.693533 2.677852 2.518209 0
M  V30 9 C 1.862894 3.646752 3.049908 0
M  V30 10 N 0.527190 3.526267 2.971295 0
M  V30 11 C -0.040903 2.463712 2.374913 0
M  V30 12 N -1.461160 2.357647 2.298493 0
M  V30 13 C -2.162532 1.252399 1.731833 0
M  V30 14 C -3.539149 1.225494 1.681011 0
M  V30 15 C -4.155700 0.124055 1.129750 0
M  V30 16 C -3.551251 -0.967612 0.617627 0
M  V30 17 N -4.103986 -2.108745 0.049221 0
M  V30 18 C -3.385051 -3.258230 -0.429857 0
M  V30 19 C -3.849200 -3.784188 -1.761412 0
M  V30 20 N -5.213769 -3.546183 -2.082648 0
M  V30 21 C -5.375734 -2.274744 -2.808026 0
M  V30 22 C -6.904732 -2.182995 -2.857981 0
M  V30 23 C -7.386013 -2.936625 -1.643454 0
M  V30 24 C -6.103405 -3.368400 -0.980147 0
M  V30 25 C -5.504991 -2.296068 -0.122525 0
M  V30 26 O -6.373745 -1.597921 0.414294 0
M  V30 27 C -2.180526 -0.890273 0.692137 0
M  V30 28 N -1.513595 0.173753 1.225913 0
M  V30 29 N 0.773105 1.530114 1.862245 0
M  V30 30 C 2.110566 1.568224 1.894823 0
M  V30 31 N 3.055923 0.729817 1.438845 0
M  V30 32 C 2.941061 -0.528682 0.730766 0
M  V30 33 C 1.698219 -0.691863 -0.041904 0
M  V30 34 C 1.982616 -1.197228 -1.413736 0
M  V30 35 C 3.466399 -1.176834 -1.554790 0
M  V30 36 C 4.031019 -0.562544 -0.315177 0
M  V30 37 H 6.259301 -1.505968 3.787233 0
M  V30 38 H 5.170077 -1.951784 2.448312 0
M  V30 39 H 4.712821 -0.589890 3.482653 0
M  V30 40 H 8.185599 0.176332 1.153016 0
M  V30 41 H 8.246770 -0.179879 2.957699 0
M  V30 42 H 7.941985 -1.482670 1.755262 0
M  V30 43 H 4.702917 3.245168 2.855777 0
M  V30 44 H 2.322116 4.502881 3.531164 0
M  V30 45 H -2.040332 3.141698 2.683377 0
M  V30 46 H -4.058835 2.070051 2.077482 0
M  V30 47 H -5.232396 0.188831 1.130919 0
M  V30 48 H -2.293971 -3.128934 -0.529972 0
M  V30 49 H -3.480172 -4.121260 0.303438 0
M  V30 50 H -3.248491 -3.364825 -2.624715 0
M  V30 51 H -3.651472 -4.886826 -1.801500 0
M  V30 52 H -4.920063 -2.326864 -3.810611 0
M  V30 53 H -4.946000 -1.429852 -2.272958 0
M  V30 54 H -7.241765 -1.138276 -2.888026 0
M  V30 55 H -7.169928 -2.764803 -3.786624 0
M  V30 56 H -8.017248 -2.316566 -0.975382 0
M  V30 57 H -7.916863 -3.883887 -1.940477 0
M  V30 58 H -6.235669 -4.295219 -0.377262 0
M  V30 59 H -1.436277 -1.595979 0.371210 0
M  V30 60 H 3.070281 -1.367663 1.467476 0
M  V30 61 H 1.076236 -1.489195 0.470888 0
M  V30 62 H 1.019398 0.187261 -0.032903 0
M  V30 63 H 1.647601 -2.254057 -1.550996 0
M  V30 64 H 1.457888 -0.627900 -2.212701 0
M  V30 65 H 3.896001 -2.195205 -1.671023 0
M  V30 66 H 3.718246 -0.605688 -2.474875 0
M  V30 67 H 4.412303 0.463761 -0.526788 0
M  V30 68 H 4.847333 -1.223670 0.098849 0
M  V30 END ATOM
M  V30 BEGIN BOND
M  V30 1 1 1 2
M  V30 2 1 2 3
M  V30 3 1 2 4
M  V30 4 2 4 5
M  V30 5 1 4 6
M  V30 6 2 6 7
M  V30 7 1 7 8
M  V30 8 2 8 9
M  V30 9 1 9 10
M  V30 10 2 10 11
M  V30 11 1 11 12
M  V30 12 1 12 13
M  V30 13 2 13 14
M  V30 14 1 14 15
M  V30 15 2 15 16
M  V30 16 1 16 17
M  V30 17 1 17 18
M  V30 18 1 18 19
M  V30 19 1 19 20
M  V30 20 1 20 21
M  V30 21 1 21 22
M  V30 22 1 22 23
M  V30 23 1 23 24
M  V30 24 1 24 25
M  V30 25 2 25 26
M  V30 26 1 16 27
M  V30 27 2 27 28
M  V30 28 1 11 29
M  V30 29 2 29 30
M  V30 30 1 30 31
M  V30 31 1 31 32
M  V30 32 1 32 33
M  V30 33 1 33 34
M  V30 34 1 34 35
M  V30 35 1 35 36
M  V30 36 1 31 6
M  V30 37 1 36 32
M  V30 38 1 30 8
M  V30 39 1 28 13
M  V30 40 1 25 17
M  V30 41 1 24 20
M  V30 42 1 1 37
M  V30 43 1 1 38
M  V30 44 1 1 39
M  V30 45 1 3 40
M  V30 46 1 3 41
M  V30 47 1 3 42
M  V30 48 1 7 43
M  V30 49 1 9 44
M  V30 50 1 12 45
M  V30 51 1 14 46
M  V30 52 1 15 47
M  V30 53 1 18 48
M  V30 54 1 18 49
M  V30 55 1 19 50
M  V30 56 1 19 51
M  V30 57 1 21 52
M  V30 58 1 21 53
M  V30 59 1 22 54
M  V30 60 1 22 55
M  V30 61 1 23 56
M  V30 62 1 23 57
M  V30 63 1 24 58
M  V30 64 1 27 59
M  V30 65 1 32 60
M  V30 66 1 33 61
M  V30 67 1 33 62
M  V30 68 1 34 63
M  V30 69 1 34 64
M  V30 70 1 35 65
M  V30 71 1 35 66
M  V30 72 1 36 67
M  V30 73 1 36 68
M  V30 END BOND
M  V30 END CTAB
M  END
>  <Dataset>  (664) 
ChEMBL_Kinases

>  <Ligand_Instance>  (664) 
nan

>  <PDB_ID>  (664) 
nan

>  <Standardized_SMILES>  (664) 
CN(C)C(=O)c1cc2cnc(Nc3ccc(N4CCN5CCCC5C4=O)cn3)nc2n1C1CCCC1

>  <Name>  (664) 
nan

>  <Pocket>  (664) 
nan

>  <ATP_Site>  (664) 
nan

>  <Peripheral>  (664) 
nan

>  <Num_H_Atoms_ProtBoundConf>  (664) 
nan

>  <Num_Resolved_Atoms>  (664) 
nan

>  <Num_Not_Resolved_Atoms>  (664) 
nan

$$$$
CHEMBL3692529
     RDKit          3D

  0  0  0  0  0  0  0  0  0  0999 V3000
M  V30 BEGIN CTAB
M  V30 COUNTS 43 46 0 0 0
M  V30 BEGIN ATOM
M  V30 1 C 1.722714 -6.179678 -0.115090 0
M  V30 2 C 2.645758 -4.988156 -0.356889 0
M  V30 3 C 3.642315 -4.972879 0.794781 0
M  V30 4 O 3.309136 -5.079708 -1.556629 0
M  V30 5 C 1.880634 -3.739070 -0.398063 0
M  V30 6 C 1.225254 -2.708957 -0.437041 0
M  V30 7 C 0.433282 -1.508703 -0.490072 0
M  V30 8 C -0.335542 -1.244353 -1.630460 0
M  V30 9 C -1.113818 -0.095919 -1.720097 0
M  V30 10 C -1.127737 0.790411 -0.675118 0
M  V30 11 C -0.351949 0.514699 0.464748 0
M  V30 12 C 0.431983 -0.627587 0.572561 0
M  V30 13 C -0.256733 1.370975 1.680429 0
M  V30 14 N 0.481062 1.075406 2.774762 0
M  V30 15 C 0.325194 2.071365 3.665254 0
M  V30 16 C 0.927822 2.175926 4.974901 0
M  V30 17 N 1.795675 1.138079 5.433519 0
M  V30 18 O 0.709125 3.162510 5.730211 0
M  V30 19 C -0.530213 3.000339 3.100930 0
M  V30 20 N -0.888831 2.571559 1.881174 0
M  V30 21 C -1.785876 3.237472 0.918747 0
M  V30 22 C -1.179036 3.205633 -0.491346 0
M  V30 23 C -2.007143 2.000815 -0.881732 0
M  V30 24 C -2.822383 2.281471 0.365560 0
M  V30 25 H 0.934329 -5.874584 0.627345 0
M  V30 26 H 1.189678 -6.409507 -1.058906 0
M  V30 27 H 2.256543 -7.040759 0.286285 0
M  V30 28 H 4.567302 -4.492237 0.434249 0
M  V30 29 H 3.208283 -4.255406 1.542385 0
M  V30 30 H 3.764999 -5.993148 1.169656 0
M  V30 31 H 3.479041 -6.029748 -1.765341 0
M  V30 32 H -0.338483 -1.935724 -2.471812 0
M  V30 33 H -1.718670 0.139784 -2.583728 0
M  V30 34 H 1.015492 -0.801090 1.470860 0
M  V30 35 H 2.379311 1.251721 6.272082 0
M  V30 36 H 1.852919 0.235321 4.918830 0
M  V30 37 H -0.875634 3.919071 3.526226 0
M  V30 38 H -2.120399 4.215780 1.248607 0
M  V30 39 H -1.436553 4.076234 -1.101435 0
M  V30 40 H -0.085661 3.025090 -0.467313 0
M  V30 41 H -2.508052 2.001717 -1.835620 0
M  V30 42 H -2.948829 1.368060 0.986335 0
M  V30 43 H -3.771342 2.768396 0.085048 0
M  V30 END ATOM
M  V30 BEGIN BOND
M  V30 1 1 1 2
M  V30 2 1 2 3
M  V30 3 1 2 4
M  V30 4 1 2 5
M  V30 5 3 5 6
M  V30 6 1 6 7
M  V30 7 1 7 8
M  V30 8 2 8 9
M  V30 9 1 9 10
M  V30 10 2 10 11
M  V30 11 1 11 12
M  V30 12 1 11 13
M  V30 13 2 13 14
M  V30 14 1 14 15
M  V30 15 1 15 16
M  V30 16 1 16 17
M  V30 17 2 16 18
M  V30 18 2 15 19
M  V30 19 1 19 20
M  V30 20 1 20 21
M  V30 21 1 21 22
M  V30 22 1 22 23
M  V30 23 1 23 24
M  V30 24 2 12 7
M  V30 25 1 20 13
M  V30 26 1 24 21
M  V30 27 1 23 10
M  V30 28 1 1 25
M  V30 29 1 1 26
M  V30 30 1 1 27
M  V30 31 1 3 28
M  V30 32 1 3 29
M  V30 33 1 3 30
M  V30 34 1 4 31
M  V30 35 1 8 32
M  V30 36 1 9 33
M  V30 37 1 12 34
M  V30 38 1 17 35
M  V30 39 1 17 36
M  V30 40 1 19 37
M  V30 41 1 21 38
M  V30 42 1 22 39
M  V30 43 1 22 40
M  V30 44 1 23 41
M  V30 45 1 24 42
M  V30 46 1 24 43
M  V30 END BOND
M  V30 END CTAB
M  END
>  <Dataset>  (665) 
ChEMBL_Kinases

>  <Ligand_Instance>  (665) 
nan

>  <PDB_ID>  (665) 
nan

>  <Standardized_SMILES>  (665) 
CC(C)(O)C#Cc1ccc2c(c1)-c1nc(C(N)=O)cn1C1CC2C1

>  <Name>  (665) 
nan

>  <Pocket>  (665) 
nan

>  <ATP_Site>  (665) 
nan

>  <Peripheral>  (665) 
nan

>  <Num_H_Atoms_ProtBoundConf>  (665) 
nan

>  <Num_Resolved_Atoms>  (665) 
nan

>  <Num_Not_Resolved_Atoms>  (665) 
nan

$$$$
CHEMBL3692496
     RDKit          3D

  0  0  0  0  0  0  0  0  0  0999 V3000
M  V30 BEGIN CTAB
M  V30 COUNTS 43 46 0 0 0
M  V30 BEGIN ATOM
M  V30 1 C 1.315665 -4.742146 3.102889 0
M  V30 2 C 2.288338 -4.392613 1.975705 0
M  V30 3 O 3.577261 -4.627253 2.388565 0
M  V30 4 C 2.211135 -2.942430 1.667076 0
M  V30 5 C 2.146623 -1.757288 1.436226 0
M  V30 6 C 2.048853 -0.345016 1.172423 0
M  V30 7 C 0.796014 0.216442 0.967908 0
M  V30 8 C 0.683421 1.584593 0.710920 0
M  V30 9 C 1.838025 2.369731 0.663528 0
M  V30 10 C 3.096236 1.813658 0.867507 0
M  V30 11 C 3.179200 0.458419 1.119727 0
M  V30 12 F 4.411259 -0.080912 1.318545 0
M  V30 13 O 1.807179 3.755042 0.410151 0
M  V30 14 C 0.750225 4.654751 0.692392 0
M  V30 15 C -0.458530 4.437957 -0.191801 0
M  V30 16 N -1.123578 3.198888 0.141850 0
M  V30 17 C -2.475817 3.107821 0.100856 0
M  V30 18 C -2.921997 1.850891 0.450803 0
M  V30 19 C -4.277949 1.350839 0.530811 0
M  V30 20 N -4.519160 0.021973 0.912302 0
M  V30 21 O -5.182049 2.197826 0.234524 0
M  V30 22 N -1.789578 1.157577 0.713123 0
M  V30 23 C -0.718847 1.972114 0.525633 0
M  V30 24 C 1.872133 -5.139795 0.772900 0
M  V30 25 N 1.114443 -5.022247 -0.255908 0
M  V30 26 C 1.065164 -6.022744 -1.114866 0
M  V30 27 C 1.851268 -7.319448 -0.970411 0
M  V30 28 S 2.700394 -6.845956 0.658057 0
M  V30 29 H 1.547398 -4.251930 4.045779 0
M  V30 30 H 1.275118 -5.841324 3.153424 0
M  V30 31 H 0.330737 -4.360779 2.755312 0
M  V30 32 H 3.903715 -3.839110 2.867016 0
M  V30 33 H -0.120602 -0.339135 0.993272 0
M  V30 34 H 3.937787 2.489747 0.814162 0
M  V30 35 H 0.392474 4.493146 1.743499 0
M  V30 36 H 1.112950 5.680549 0.661505 0
M  V30 37 H -1.143504 5.295571 0.030870 0
M  V30 38 H -0.167237 4.385278 -1.254685 0
M  V30 39 H -3.149257 3.916783 -0.172644 0
M  V30 40 H -4.222834 -0.786615 0.318481 0
M  V30 41 H -4.951949 -0.486250 1.692990 0
M  V30 42 H 0.361257 -5.701037 -1.903703 0
M  V30 43 H 1.583584 -7.944948 -1.857924 0
M  V30 END ATOM
M  V30 BEGIN BOND
M  V30 1 1 1 2
M  V30 2 1 2 3
M  V30 3 1 2 4
M  V30 4 3 4 5
M  V30 5 1 5 6
M  V30 6 2 6 7
M  V30 7 1 7 8
M  V30 8 2 8 9
M  V30 9 1 9 10
M  V30 10 2 10 11
M  V30 11 1 11 12
M  V30 12 1 9 13
M  V30 13 1 13 14
M  V30 14 1 14 15
M  V30 15 1 15 16
M  V30 16 1 16 17
M  V30 17 2 17 18
M  V30 18 1 18 19
M  V30 19 1 19 20
M  V30 20 2 19 21
M  V30 21 1 18 22
M  V30 22 2 22 23
M  V30 23 1 2 24
M  V30 24 2 24 25
M  V30 25 1 25 26
M  V30 26 2 26 27
M  V30 27 1 27 28
M  V30 28 1 11 6
M  V30 29 1 23 16
M  V30 30 1 28 24
M  V30 31 1 23 8
M  V30 32 1 1 29
M  V30 33 1 1 30
M  V30 34 1 1 31
M  V30 35 1 3 32
M  V30 36 1 7 33
M  V30 37 1 10 34
M  V30 38 1 14 35
M  V30 39 1 14 36
M  V30 40 1 15 37
M  V30 41 1 15 38
M  V30 42 1 17 39
M  V30 43 1 20 40
M  V30 44 1 20 41
M  V30 45 1 26 42
M  V30 46 1 27 43
M  V30 END BOND
M  V30 END CTAB
M  END
>  <Dataset>  (666) 
ChEMBL_Kinases

>  <Ligand_Instance>  (666) 
nan

>  <PDB_ID>  (666) 
nan

>  <Standardized_SMILES>  (666) 
CC(O)(C#Cc1cc2c(cc1F)OCCn1cc(C(N)=O)nc1-2)c1nccs1

>  <Name>  (666) 
nan

>  <Pocket>  (666) 
nan

>  <ATP_Site>  (666) 
nan

>  <Peripheral>  (666) 
nan

>  <Num_H_Atoms_ProtBoundConf>  (666) 
nan

>  <Num_Resolved_Atoms>  (666) 
nan

>  <Num_Not_Resolved_Atoms>  (666) 
nan

$$$$
CHEMBL3692493
     RDKit          3D

  0  0  0  0  0  0  0  0  0  0999 V3000
M  V30 BEGIN CTAB
M  V30 COUNTS 48 51 0 0 0
M  V30 BEGIN ATOM
M  V30 1 C 1.762853 -3.298156 4.473673 0
M  V30 2 N 2.583034 -2.926150 3.312922 0
M  V30 3 C 2.116789 -3.592726 2.116951 0
M  V30 4 C 2.882508 -3.257562 0.879395 0
M  V30 5 C 4.213914 -2.602652 1.147478 0
M  V30 6 C 4.022014 -1.436074 2.061569 0
M  V30 7 O 5.171715 -0.692427 2.172312 0
M  V30 8 C 2.933576 -0.545173 1.611654 0
M  V30 9 C 2.029011 0.179833 1.259202 0
M  V30 10 C 0.949225 1.044977 0.862575 0
M  V30 11 C -0.202729 0.581865 0.256210 0
M  V30 12 C -1.193881 1.485157 -0.093425 0
M  V30 13 C -1.028276 2.852026 0.165641 0
M  V30 14 C 0.117334 3.326368 0.770488 0
M  V30 15 C 1.085925 2.398280 1.106168 0
M  V30 16 F 2.192305 2.904439 1.696662 0
M  V30 17 O -2.015195 3.798219 -0.176322 0
M  V30 18 C -3.428540 3.635982 -0.220425 0
M  V30 19 C -3.868425 2.743809 -1.340418 0
M  V30 20 N -3.432547 1.386513 -1.231902 0
M  V30 21 C -4.181184 0.344558 -1.695596 0
M  V30 22 C -3.535052 -0.852232 -1.467744 0
M  V30 23 C -4.067378 -2.157374 -1.843842 0
M  V30 24 N -3.329599 -3.340634 -1.568602 0
M  V30 25 O -5.187509 -2.210866 -2.413829 0
M  V30 26 N -2.385428 -0.562503 -0.863428 0
M  V30 27 C -2.324635 0.768582 -0.723283 0
M  V30 28 C 3.678949 -2.025735 3.406657 0
M  V30 29 O 4.113285 -1.928683 4.603921 0
M  V30 30 H 0.690330 -3.329034 4.225576 0
M  V30 31 H 1.904842 -2.592450 5.318862 0
M  V30 32 H 2.087614 -4.323003 4.754895 0
M  V30 33 H 2.089559 -4.687583 2.354806 0
M  V30 34 H 1.041722 -3.322092 1.921773 0
M  V30 35 H 2.297212 -2.623655 0.182773 0
M  V30 36 H 3.111436 -4.197685 0.334296 0
M  V30 37 H 4.825931 -3.353927 1.690566 0
M  V30 38 H 4.702390 -2.390589 0.199897 0
M  V30 39 H 5.932202 -1.023977 1.635443 0
M  V30 40 H -0.285178 -0.476429 0.077298 0
M  V30 41 H 0.162312 4.380534 0.931132 0
M  V30 42 H -3.804040 3.230499 0.739055 0
M  V30 43 H -3.851514 4.638923 -0.422985 0
M  V30 44 H -4.993713 2.739688 -1.284182 0
M  V30 45 H -3.548514 3.215841 -2.309124 0
M  V30 46 H -5.160581 0.476982 -2.179246 0
M  V30 47 H -2.390810 -3.289012 -1.145726 0
M  V30 48 H -3.739237 -4.261904 -1.795048 0
M  V30 END ATOM
M  V30 BEGIN BOND
M  V30 1 1 1 2
M  V30 2 1 2 3
M  V30 3 1 3 4
M  V30 4 1 4 5
M  V30 5 1 5 6
M  V30 6 1 6 7
M  V30 7 1 6 8
M  V30 8 3 8 9
M  V30 9 1 9 10
M  V30 10 2 10 11
M  V30 11 1 11 12
M  V30 12 2 12 13
M  V30 13 1 13 14
M  V30 14 2 14 15
M  V30 15 1 15 16
M  V30 16 1 13 17
M  V30 17 1 17 18
M  V30 18 1 18 19
M  V30 19 1 19 20
M  V30 20 1 20 21
M  V30 21 2 21 22
M  V30 22 1 22 23
M  V30 23 1 23 24
M  V30 24 2 23 25
M  V30 25 1 22 26
M  V30 26 2 26 27
M  V30 27 1 6 28
M  V30 28 2 28 29
M  V30 29 1 28 2
M  V30 30 1 15 10
M  V30 31 1 27 20
M  V30 32 1 27 12
M  V30 33 1 1 30
M  V30 34 1 1 31
M  V30 35 1 1 32
M  V30 36 1 3 33
M  V30 37 1 3 34
M  V30 38 1 4 35
M  V30 39 1 4 36
M  V30 40 1 5 37
M  V30 41 1 5 38
M  V30 42 1 7 39
M  V30 43 1 11 40
M  V30 44 1 14 41
M  V30 45 1 18 42
M  V30 46 1 18 43
M  V30 47 1 19 44
M  V30 48 1 19 45
M  V30 49 1 21 46
M  V30 50 1 24 47
M  V30 51 1 24 48
M  V30 END BOND
M  V30 END CTAB
M  END
>  <Dataset>  (667) 
ChEMBL_Kinases

>  <Ligand_Instance>  (667) 
nan

>  <PDB_ID>  (667) 
nan

>  <Standardized_SMILES>  (667) 
CN1CCCC(O)(C#Cc2cc3c(cc2F)OCCn2cc(C(N)=O)nc2-3)C1=O

>  <Name>  (667) 
nan

>  <Pocket>  (667) 
nan

>  <ATP_Site>  (667) 
nan

>  <Peripheral>  (667) 
nan

>  <Num_H_Atoms_ProtBoundConf>  (667) 
nan

>  <Num_Resolved_Atoms>  (667) 
nan

>  <Num_Not_Resolved_Atoms>  (667) 
nan

$$$$
CHEMBL3692489
     RDKit          3D

  0  0  0  0  0  0  0  0  0  0999 V3000
M  V30 BEGIN CTAB
M  V30 COUNTS 56 60 0 0 0
M  V30 BEGIN ATOM
M  V30 1 C 4.979011 1.730344 5.271714 0
M  V30 2 N 3.625474 1.431627 4.861208 0
M  V30 3 C 3.303978 0.915710 3.606099 0
M  V30 4 O 4.473042 0.832388 3.086613 0
M  V30 5 C 2.147016 0.521546 2.887284 0
M  V30 6 C 2.440584 -0.058113 1.660524 0
M  V30 7 C 3.528032 -0.454917 0.753047 0
M  V30 8 N 4.936435 -0.377548 0.810715 0
M  V30 9 O 3.661593 -0.991053 -0.374495 0
M  V30 10 N 1.264547 -0.396268 1.054122 0
M  V30 11 C 0.267691 -0.048124 1.856953 0
M  V30 12 N 0.841930 0.503146 2.953353 0
M  V30 13 C 0.151506 1.040999 4.099177 0
M  V30 14 C -0.967287 1.946987 3.532844 0
M  V30 15 C -2.012800 0.878286 3.773282 0
M  V30 16 C -0.984934 0.115403 4.544128 0
M  V30 17 C -2.229556 0.174361 2.449012 0
M  V30 18 C -3.535488 -0.069023 2.074577 0
M  V30 19 C -3.729323 -0.708645 0.866900 0
M  V30 20 F -5.034232 -0.932302 0.530035 0
M  V30 21 C -2.709542 -1.097074 0.054953 0
M  V30 22 C -2.960634 -1.760366 -1.194038 0
M  V30 23 C -3.171815 -2.334524 -2.241916 0
M  V30 24 C -3.407838 -3.013597 -3.516612 0 CFG=1
M  V30 25 C -3.475013 -4.505394 -3.315686 0
M  V30 26 O -4.597393 -2.526829 -4.042347 0
M  V30 27 C -2.329757 -2.738322 -4.499265 0
M  V30 28 C -0.992919 -2.500819 -4.294164 0
M  V30 29 C -0.441310 -2.306995 -5.523098 0
M  V30 30 C 0.972530 -2.016061 -5.851065 0
M  V30 31 O -1.378531 -2.417841 -6.429908 0
M  V30 32 N -2.518789 -2.676203 -5.840172 0
M  V30 33 C -1.390052 -0.863015 0.410730 0
M  V30 34 C -1.188911 -0.232423 1.600725 0
M  V30 35 H 4.968791 2.405288 6.153725 0
M  V30 36 H 5.622355 2.120116 4.456172 0
M  V30 37 H 5.437497 0.776115 5.610613 0
M  V30 38 H 2.817403 1.575594 5.474003 0
M  V30 39 H 5.719409 -1.003704 1.163242 0
M  V30 40 H 5.671594 0.334572 0.521054 0
M  V30 41 H 0.709991 1.491112 4.894896 0
M  V30 42 H -1.067678 2.834246 4.173353 0
M  V30 43 H -0.842439 2.196983 2.470670 0
M  V30 44 H -2.920810 1.192711 4.266778 0
M  V30 45 H -1.122816 0.230213 5.639859 0
M  V30 46 H -0.800914 -0.928198 4.265219 0
M  V30 47 H -4.292226 0.269318 2.772740 0
M  V30 48 H -3.175059 -5.012120 -4.264703 0
M  V30 49 H -2.809597 -4.820672 -2.496098 0
M  V30 50 H -4.528761 -4.750811 -3.082642 0
M  V30 51 H -5.244690 -3.274967 -4.071398 0
M  V30 52 H -0.496071 -2.475439 -3.355827 0
M  V30 53 H 1.036814 -1.073570 -6.439840 0
M  V30 54 H 1.414050 -2.804250 -6.508319 0
M  V30 55 H 1.557051 -1.989241 -4.914266 0
M  V30 56 H -0.567634 -1.164502 -0.221616 0
M  V30 END ATOM
M  V30 BEGIN BOND
M  V30 1 1 1 2
M  V30 2 1 2 3
M  V30 3 2 3 4
M  V30 4 1 3 5
M  V30 5 2 5 6
M  V30 6 1 6 7
M  V30 7 1 7 8
M  V30 8 2 7 9
M  V30 9 1 6 10
M  V30 10 2 10 11
M  V30 11 1 11 12
M  V30 12 1 12 13
M  V30 13 1 13 14
M  V30 14 1 14 15
M  V30 15 1 15 16
M  V30 16 1 15 17
M  V30 17 2 17 18
M  V30 18 1 18 19
M  V30 19 1 19 20
M  V30 20 2 19 21
M  V30 21 1 21 22
M  V30 22 3 22 23
M  V30 23 1 24 23 CFG=1
M  V30 24 1 24 25
M  V30 25 1 24 26
M  V30 26 1 24 27
M  V30 27 1 27 28
M  V30 28 2 28 29
M  V30 29 1 29 30
M  V30 30 1 29 31
M  V30 31 1 31 32
M  V30 32 1 21 33
M  V30 33 2 33 34
M  V30 34 1 12 5
M  V30 35 1 16 13
M  V30 36 1 34 17
M  V30 37 1 34 11
M  V30 38 2 32 27
M  V30 39 1 1 35
M  V30 40 1 1 36
M  V30 41 1 1 37
M  V30 42 1 2 38
M  V30 43 1 8 39
M  V30 44 1 8 40
M  V30 45 1 13 41
M  V30 46 1 14 42
M  V30 47 1 14 43
M  V30 48 1 15 44
M  V30 49 1 16 45
M  V30 50 1 16 46
M  V30 51 1 18 47
M  V30 52 1 25 48
M  V30 53 1 25 49
M  V30 54 1 25 50
M  V30 55 1 26 51
M  V30 56 1 28 52
M  V30 57 1 30 53
M  V30 58 1 30 54
M  V30 59 1 30 55
M  V30 60 1 33 56
M  V30 END BOND
M  V30 END CTAB
M  END
>  <Dataset>  (668) 
ChEMBL_Kinases

>  <Ligand_Instance>  (668) 
nan

>  <PDB_ID>  (668) 
nan

>  <Standardized_SMILES>  (668) 
CNC(=O)c1c(C(N)=O)nc2n1C1CC(C1)c1cc(F)c(C#C[C@@](C)(O)c3cc(C)on3)cc1-2

>  <Name>  (668) 
nan

>  <Pocket>  (668) 
nan

>  <ATP_Site>  (668) 
nan

>  <Peripheral>  (668) 
nan

>  <Num_H_Atoms_ProtBoundConf>  (668) 
nan

>  <Num_Resolved_Atoms>  (668) 
nan

>  <Num_Not_Resolved_Atoms>  (668) 
nan

$$$$
CHEMBL3692485
     RDKit          3D

  0  0  0  0  0  0  0  0  0  0999 V3000
M  V30 BEGIN CTAB
M  V30 COUNTS 45 48 0 0 0
M  V30 BEGIN ATOM
M  V30 1 C 1.656890 -4.505112 3.531257 0
M  V30 2 C 0.513494 -3.528766 3.766802 0
M  V30 3 O 0.416462 -3.390300 5.163620 0
M  V30 4 C 0.781675 -2.243821 3.121949 0
M  V30 5 C 0.995766 -1.155976 2.596645 0
M  V30 6 C 1.239221 0.132939 1.995495 0
M  V30 7 C 0.875569 0.335991 0.679862 0
M  V30 8 C 1.151223 1.602508 0.202074 0
M  V30 9 C 1.741667 2.602998 0.956552 0
M  V30 10 C 2.082729 2.321938 2.284584 0
M  V30 11 C 1.830730 1.065406 2.824070 0
M  V30 12 F 2.158815 0.790608 4.105892 0
M  V30 13 O 2.065851 3.919279 0.574154 0
M  V30 14 C 1.544440 4.585836 -0.581678 0
M  V30 15 C 1.955500 3.862025 -1.838996 0
M  V30 16 N 1.073281 2.720273 -2.095201 0
M  V30 17 C 0.448277 2.449147 -3.279724 0
M  V30 18 C -0.279220 1.293776 -3.094039 0
M  V30 19 C -1.081563 0.703166 -4.158807 0
M  V30 20 N -1.841910 -0.487249 -4.021841 0
M  V30 21 O -1.106377 1.278035 -5.269898 0
M  V30 22 N -0.086704 0.891908 -1.825138 0
M  V30 23 C 0.741887 1.757930 -1.198196 0
M  V30 24 C -0.766586 -4.048972 3.277920 0
M  V30 25 C -1.576404 -4.803166 4.134704 0
M  V30 26 C -2.775824 -5.256143 3.584792 0
M  V30 27 C -3.096508 -4.955050 2.280880 0
M  V30 28 N -2.239411 -4.215935 1.535577 0
M  V30 29 N -1.096131 -3.769054 2.018602 0
M  V30 30 H 2.534385 -4.247500 4.146213 0
M  V30 31 H 1.352387 -5.543415 3.772879 0
M  V30 32 H 1.908269 -4.538893 2.435498 0
M  V30 33 H 0.197889 -2.440355 5.357881 0
M  V30 34 H 0.420664 -0.401103 0.063558 0
M  V30 35 H 2.543105 3.114326 2.860795 0
M  V30 36 H 0.441526 4.499229 -0.510338 0
M  V30 37 H 1.841022 5.640762 -0.572259 0
M  V30 38 H 3.009920 3.477725 -1.715901 0
M  V30 39 H 1.975929 4.526648 -2.717869 0
M  V30 40 H 0.562007 3.080600 -4.150424 0
M  V30 41 H -1.702105 -1.525270 -4.156155 0
M  V30 42 H -2.816629 -0.737857 -3.735636 0
M  V30 43 H -1.307402 -5.032196 5.162413 0
M  V30 44 H -3.411743 -5.848358 4.258486 0
M  V30 45 H -4.047227 -5.351568 1.949090 0
M  V30 END ATOM
M  V30 BEGIN BOND
M  V30 1 1 1 2
M  V30 2 1 2 3
M  V30 3 1 2 4
M  V30 4 3 4 5
M  V30 5 1 5 6
M  V30 6 2 6 7
M  V30 7 1 7 8
M  V30 8 2 8 9
M  V30 9 1 9 10
M  V30 10 2 10 11
M  V30 11 1 11 12
M  V30 12 1 9 13
M  V30 13 1 13 14
M  V30 14 1 14 15
M  V30 15 1 15 16
M  V30 16 1 16 17
M  V30 17 2 17 18
M  V30 18 1 18 19
M  V30 19 1 19 20
M  V30 20 2 19 21
M  V30 21 1 18 22
M  V30 22 2 22 23
M  V30 23 1 2 24
M  V30 24 2 24 25
M  V30 25 1 25 26
M  V30 26 2 26 27
M  V30 27 1 27 28
M  V30 28 2 28 29
M  V30 29 1 11 6
M  V30 30 1 23 16
M  V30 31 1 29 24
M  V30 32 1 23 8
M  V30 33 1 1 30
M  V30 34 1 1 31
M  V30 35 1 1 32
M  V30 36 1 3 33
M  V30 37 1 7 34
M  V30 38 1 10 35
M  V30 39 1 14 36
M  V30 40 1 14 37
M  V30 41 1 15 38
M  V30 42 1 15 39
M  V30 43 1 17 40
M  V30 44 1 20 41
M  V30 45 1 20 42
M  V30 46 1 25 43
M  V30 47 1 26 44
M  V30 48 1 27 45
M  V30 END BOND
M  V30 END CTAB
M  END
>  <Dataset>  (669) 
ChEMBL_Kinases

>  <Ligand_Instance>  (669) 
nan

>  <PDB_ID>  (669) 
nan

>  <Standardized_SMILES>  (669) 
CC(O)(C#Cc1cc2c(cc1F)OCCn1cc(C(N)=O)nc1-2)c1cccnn1

>  <Name>  (669) 
nan

>  <Pocket>  (669) 
nan

>  <ATP_Site>  (669) 
nan

>  <Peripheral>  (669) 
nan

>  <Num_H_Atoms_ProtBoundConf>  (669) 
nan

>  <Num_Resolved_Atoms>  (669) 
nan

>  <Num_Not_Resolved_Atoms>  (669) 
nan

$$$$
CHEMBL3692450
     RDKit          3D

  0  0  0  0  0  0  0  0  0  0999 V3000
M  V30 BEGIN CTAB
M  V30 COUNTS 53 56 0 0 0
M  V30 BEGIN ATOM
M  V30 1 C 7.064776 0.125983 2.896847 0
M  V30 2 N 5.684222 -0.312107 2.881621 0
M  V30 3 C 4.744956 0.389691 2.091517 0
M  V30 4 O 5.544505 1.267960 1.616249 0
M  V30 5 C 3.330280 0.212983 1.862322 0
M  V30 6 C 2.398804 -0.706646 2.259656 0
M  V30 7 C 2.670872 -1.848153 3.084517 0
M  V30 8 N 1.514369 -2.659358 3.367969 0
M  V30 9 O 3.276037 -2.654436 3.759819 0
M  V30 10 N 1.214624 -0.355930 1.743089 0
M  V30 11 C 1.431174 0.776030 1.033348 0
M  V30 12 N 2.744674 1.148174 1.094512 0
M  V30 13 C 3.070844 2.353948 0.360406 0
M  V30 14 C 2.260871 3.555647 0.801115 0
M  V30 15 O 1.063292 3.666304 0.009505 0
M  V30 16 C 0.112002 2.624234 -0.046283 0
M  V30 17 C -1.058683 3.083301 -0.645477 0
M  V30 18 C -2.098281 2.182730 -0.778727 0
M  V30 19 C -1.990530 0.864112 -0.334447 0
M  V30 20 C -3.077997 -0.065468 -0.477640 0
M  V30 21 C -3.992872 -0.846778 -0.612695 0
M  V30 22 C -5.118222 -1.781102 -0.791344 0 CFG=1
M  V30 23 C -6.126161 -1.614471 0.338843 0
M  V30 24 O -5.670063 -1.486928 -2.034953 0
M  V30 25 C -4.641042 -3.195108 -0.719938 0
M  V30 26 C -3.710840 -3.686041 -1.609667 0
M  V30 27 C -3.523084 -5.013476 -1.231401 0
M  V30 28 C -2.664240 -6.104347 -1.763317 0
M  V30 29 O -4.292563 -5.238780 -0.208645 0
M  V30 30 N -4.974930 -4.203710 0.137508 0
M  V30 31 C -0.834747 0.401983 0.259797 0
M  V30 32 C 0.199044 1.295959 0.392738 0
M  V30 33 H 7.557546 0.009168 1.907555 0
M  V30 34 H 7.608400 -0.548147 3.586713 0
M  V30 35 H 7.099697 1.182100 3.196268 0
M  V30 36 H 5.322938 -1.123219 3.425213 0
M  V30 37 H 0.807588 -2.603811 4.164147 0
M  V30 38 H 1.105117 -3.488306 2.837947 0
M  V30 39 H 4.121195 2.619893 0.542858 0
M  V30 40 H 2.986168 2.197023 -0.738898 0
M  V30 41 H 1.975779 3.387861 1.861495 0
M  V30 42 H 2.851781 4.464618 0.674949 0
M  V30 43 H -1.085922 4.109367 -0.968983 0
M  V30 44 H -3.027355 2.531934 -1.249653 0
M  V30 45 H -6.546291 -2.596263 0.638199 0
M  V30 46 H -6.900650 -0.866499 0.088155 0
M  V30 47 H -5.591067 -1.233775 1.241280 0
M  V30 48 H -6.167295 -2.282524 -2.380956 0
M  V30 49 H -3.177285 -3.265089 -2.439067 0
M  V30 50 H -2.093497 -5.747896 -2.647047 0
M  V30 51 H -3.244858 -6.990418 -2.054123 0
M  V30 52 H -1.908579 -6.361885 -0.984960 0
M  V30 53 H -0.658436 -0.584314 0.629666 0
M  V30 END ATOM
M  V30 BEGIN BOND
M  V30 1 1 1 2
M  V30 2 1 2 3
M  V30 3 2 3 4
M  V30 4 1 3 5
M  V30 5 2 5 6
M  V30 6 1 6 7
M  V30 7 1 7 8
M  V30 8 2 7 9
M  V30 9 1 6 10
M  V30 10 2 10 11
M  V30 11 1 11 12
M  V30 12 1 12 13
M  V30 13 1 13 14
M  V30 14 1 14 15
M  V30 15 1 15 16
M  V30 16 2 16 17
M  V30 17 1 17 18
M  V30 18 2 18 19
M  V30 19 1 19 20
M  V30 20 3 20 21
M  V30 21 1 22 21 CFG=1
M  V30 22 1 22 23
M  V30 23 1 22 24
M  V30 24 1 22 25
M  V30 25 1 25 26
M  V30 26 2 26 27
M  V30 27 1 27 28
M  V30 28 1 27 29
M  V30 29 1 29 30
M  V30 30 1 19 31
M  V30 31 2 31 32
M  V30 32 1 12 5
M  V30 33 1 32 16
M  V30 34 1 32 11
M  V30 35 2 30 25
M  V30 36 1 1 33
M  V30 37 1 1 34
M  V30 38 1 1 35
M  V30 39 1 2 36
M  V30 40 1 8 37
M  V30 41 1 8 38
M  V30 42 1 13 39
M  V30 43 1 13 40
M  V30 44 1 14 41
M  V30 45 1 14 42
M  V30 46 1 17 43
M  V30 47 1 18 44
M  V30 48 1 23 45
M  V30 49 1 23 46
M  V30 50 1 23 47
M  V30 51 1 24 48
M  V30 52 1 26 49
M  V30 53 1 28 50
M  V30 54 1 28 51
M  V30 55 1 28 52
M  V30 56 1 31 53
M  V30 END BOND
M  V30 END CTAB
M  END
>  <Dataset>  (670) 
ChEMBL_Kinases

>  <Ligand_Instance>  (670) 
nan

>  <PDB_ID>  (670) 
nan

>  <Standardized_SMILES>  (670) 
CNC(=O)c1c(C(N)=O)nc2n1CCOc1ccc(C#C[C@@](C)(O)c3cc(C)on3)cc1-2

>  <Name>  (670) 
nan

>  <Pocket>  (670) 
nan

>  <ATP_Site>  (670) 
nan

>  <Peripheral>  (670) 
nan

>  <Num_H_Atoms_ProtBoundConf>  (670) 
nan

>  <Num_Resolved_Atoms>  (670) 
nan

>  <Num_Not_Resolved_Atoms>  (670) 
nan

$$$$
CHEMBL3692429
     RDKit          3D

  0  0  0  0  0  0  0  0  0  0999 V3000
M  V30 BEGIN CTAB
M  V30 COUNTS 40 42 0 0 0
M  V30 BEGIN ATOM
M  V30 1 C 3.098037 -5.381916 0.284517 0
M  V30 2 C 2.744030 -4.671545 1.565870 0
M  V30 3 O 3.765660 -4.786024 2.504062 0
M  V30 4 C 2.532011 -3.269669 1.200036 0
M  V30 5 C 2.338149 -2.101654 0.881205 0
M  V30 6 C 2.097462 -0.727800 0.526579 0
M  V30 7 C 0.805760 -0.292968 0.642559 0
M  V30 8 C 0.533929 1.023726 0.310451 0
M  V30 9 C 1.536217 1.894515 -0.131116 0
M  V30 10 C 2.846812 1.415392 -0.237759 0
M  V30 11 C 3.121256 0.091246 0.096028 0
M  V30 12 F 4.384907 -0.383466 -0.003083 0
M  V30 13 O 1.364976 3.226153 -0.486461 0
M  V30 14 C 0.138292 3.843326 -0.849972 0
M  V30 15 C -0.823086 3.831128 0.315592 0
M  V30 16 N -1.438207 2.529387 0.493538 0
M  V30 17 C -2.766178 2.328527 0.699683 0
M  V30 18 C -3.053023 1.001895 0.831752 0
M  V30 19 C -4.255082 0.238820 1.057990 0
M  V30 20 N -5.516406 0.852155 1.198864 0
M  V30 21 O -4.332297 -1.008149 1.154292 0
M  V30 22 N -1.849203 0.373429 0.700172 0
M  V30 23 C -0.890592 1.297565 0.498212 0
M  V30 24 C 1.442285 -5.279802 2.097477 0
M  V30 25 F 1.589836 -6.617584 2.342550 0
M  V30 26 H 2.148724 -5.622254 -0.259401 0
M  V30 27 H 3.805287 -4.816415 -0.344643 0
M  V30 28 H 3.527172 -6.365350 0.567467 0
M  V30 29 H 3.662873 -4.062445 3.170763 0
M  V30 30 H 0.006562 -0.941422 0.981293 0
M  V30 31 H 3.603534 2.091925 -0.576694 0
M  V30 32 H 0.278729 4.851605 -1.244832 0
M  V30 33 H -0.319269 3.222862 -1.648059 0
M  V30 34 H -1.641048 4.565368 0.138196 0
M  V30 35 H -0.284098 4.190439 1.208769 0
M  V30 36 H -3.545085 3.076266 0.761559 0
M  V30 37 H -6.030694 1.101630 2.075403 0
M  V30 38 H -6.332762 1.249551 0.706018 0
M  V30 39 H 1.270065 -4.795081 3.092931 0
M  V30 40 H 0.637948 -5.021810 1.384020 0
M  V30 END ATOM
M  V30 BEGIN BOND
M  V30 1 1 1 2
M  V30 2 1 2 3
M  V30 3 1 2 4
M  V30 4 3 4 5
M  V30 5 1 5 6
M  V30 6 2 6 7
M  V30 7 1 7 8
M  V30 8 2 8 9
M  V30 9 1 9 10
M  V30 10 2 10 11
M  V30 11 1 11 12
M  V30 12 1 9 13
M  V30 13 1 13 14
M  V30 14 1 14 15
M  V30 15 1 15 16
M  V30 16 1 16 17
M  V30 17 2 17 18
M  V30 18 1 18 19
M  V30 19 1 19 20
M  V30 20 2 19 21
M  V30 21 1 18 22
M  V30 22 2 22 23
M  V30 23 1 2 24
M  V30 24 1 24 25
M  V30 25 1 11 6
M  V30 26 1 23 16
M  V30 27 1 23 8
M  V30 28 1 1 26
M  V30 29 1 1 27
M  V30 30 1 1 28
M  V30 31 1 3 29
M  V30 32 1 7 30
M  V30 33 1 10 31
M  V30 34 1 14 32
M  V30 35 1 14 33
M  V30 36 1 15 34
M  V30 37 1 15 35
M  V30 38 1 17 36
M  V30 39 1 20 37
M  V30 40 1 20 38
M  V30 41 1 24 39
M  V30 42 1 24 40
M  V30 END BOND
M  V30 END CTAB
M  END
>  <Dataset>  (671) 
ChEMBL_Kinases

>  <Ligand_Instance>  (671) 
nan

>  <PDB_ID>  (671) 
nan

>  <Standardized_SMILES>  (671) 
CC(O)(C#Cc1cc2c(cc1F)OCCn1cc(C(N)=O)nc1-2)CF

>  <Name>  (671) 
nan

>  <Pocket>  (671) 
nan

>  <ATP_Site>  (671) 
nan

>  <Peripheral>  (671) 
nan

>  <Num_H_Atoms_ProtBoundConf>  (671) 
nan

>  <Num_Resolved_Atoms>  (671) 
nan

>  <Num_Not_Resolved_Atoms>  (671) 
nan

$$$$
CHEMBL3692412
     RDKit          3D

  0  0  0  0  0  0  0  0  0  0999 V3000
M  V30 BEGIN CTAB
M  V30 COUNTS 39 42 0 0 0
M  V30 BEGIN ATOM
M  V30 1 N 5.024475 -2.141330 0.758848 0
M  V30 2 C 4.412557 -2.925489 1.752972 0
M  V30 3 O 5.137562 -3.694792 2.436655 0
M  V30 4 C 2.976823 -2.851143 1.987382 0
M  V30 5 C 2.262184 -3.557975 2.919230 0
M  V30 6 N 0.958707 -3.235455 2.852568 0
M  V30 7 C 0.903344 -2.320495 1.862049 0
M  V30 8 N 2.115636 -2.077672 1.329217 0
M  V30 9 C -0.340006 -1.667784 1.420312 0
M  V30 10 C -0.048353 -0.466588 0.763011 0
M  V30 11 C -1.100248 0.284186 0.277736 0
M  V30 12 C -0.829321 1.523623 -0.402314 0
M  V30 13 C -0.596599 2.556978 -0.992798 0
M  V30 14 C -0.327427 3.807980 -1.730337 0
M  V30 15 O 0.992918 3.953042 -2.087908 0
M  V30 16 C -1.357674 4.071407 -2.807072 0
M  V30 17 O -2.084194 4.893820 -1.918149 0
M  V30 18 C -0.973304 5.040696 -1.092725 0
M  V30 19 C -2.402719 -0.167968 0.453216 0
M  V30 20 F -3.446648 0.541145 -0.008172 0
M  V30 21 C -2.678012 -1.353546 1.102728 0
M  V30 22 C -1.647715 -2.125632 1.598673 0
M  V30 23 O -2.022699 -3.314089 2.243793 0
M  V30 24 C -1.272159 -4.291591 2.886846 0
M  V30 25 C -0.097109 -3.779389 3.680974 0
M  V30 26 H 5.510825 -2.703672 0.012085 0
M  V30 27 H 5.583272 -2.172974 -0.121617 0
M  V30 28 H 2.719344 -4.258044 3.585842 0
M  V30 29 H 1.005305 -0.168751 0.659220 0
M  V30 30 H 1.489684 4.504385 -1.443959 0
M  V30 31 H -1.885605 3.195590 -3.182982 0
M  V30 32 H -0.942558 4.726573 -3.613479 0
M  V30 33 H -1.255764 4.819957 -0.043901 0
M  V30 34 H -0.417185 5.979297 -1.213580 0
M  V30 35 H -3.699274 -1.728088 1.251567 0
M  V30 36 H -0.930658 -5.131863 2.268186 0
M  V30 37 H -1.948398 -4.762871 3.656428 0
M  V30 38 H -0.503691 -3.006602 4.390280 0
M  V30 39 H 0.301649 -4.635680 4.255288 0
M  V30 END ATOM
M  V30 BEGIN BOND
M  V30 1 1 1 2
M  V30 2 2 2 3
M  V30 3 1 2 4
M  V30 4 2 4 5
M  V30 5 1 5 6
M  V30 6 1 6 7
M  V30 7 2 7 8
M  V30 8 1 7 9
M  V30 9 2 9 10
M  V30 10 1 10 11
M  V30 11 1 11 12
M  V30 12 3 12 13
M  V30 13 1 13 14
M  V30 14 1 14 15
M  V30 15 1 14 16
M  V30 16 1 16 17
M  V30 17 1 17 18
M  V30 18 2 11 19
M  V30 19 1 19 20
M  V30 20 1 19 21
M  V30 21 2 21 22
M  V30 22 1 22 23
M  V30 23 1 23 24
M  V30 24 1 24 25
M  V30 25 1 8 4
M  V30 26 1 22 9
M  V30 27 1 25 6
M  V30 28 1 18 14
M  V30 29 1 1 26
M  V30 30 1 1 27
M  V30 31 1 5 28
M  V30 32 1 10 29
M  V30 33 1 15 30
M  V30 34 1 16 31
M  V30 35 1 16 32
M  V30 36 1 18 33
M  V30 37 1 18 34
M  V30 38 1 21 35
M  V30 39 1 24 36
M  V30 40 1 24 37
M  V30 41 1 25 38
M  V30 42 1 25 39
M  V30 END BOND
M  V30 END CTAB
M  END
>  <Dataset>  (672) 
ChEMBL_Kinases

>  <Ligand_Instance>  (672) 
nan

>  <PDB_ID>  (672) 
nan

>  <Standardized_SMILES>  (672) 
NC(=O)c1cn2c(n1)-c1cc(C#CC3(O)COC3)c(F)cc1OCC2

>  <Name>  (672) 
nan

>  <Pocket>  (672) 
nan

>  <ATP_Site>  (672) 
nan

>  <Peripheral>  (672) 
nan

>  <Num_H_Atoms_ProtBoundConf>  (672) 
nan

>  <Num_Resolved_Atoms>  (672) 
nan

>  <Num_Not_Resolved_Atoms>  (672) 
nan

$$$$
CHEMBL3692406
     RDKit          3D

  0  0  0  0  0  0  0  0  0  0999 V3000
M  V30 BEGIN CTAB
M  V30 COUNTS 47 49 0 0 0
M  V30 BEGIN ATOM
M  V30 1 C 4.148263 -3.985884 3.003838 0
M  V30 2 N 4.310162 -3.312664 1.720664 0
M  V30 3 C 4.606820 -4.341375 0.745329 0
M  V30 4 C 4.248705 -1.992472 1.249858 0
M  V30 5 O 4.429856 -1.630599 0.051516 0
M  V30 6 C 3.970877 -0.730575 1.982805 0
M  V30 7 C 5.145181 0.221397 1.873783 0
M  V30 8 O 3.763004 -1.039182 3.301267 0
M  V30 9 C 2.810022 -0.023883 1.387764 0
M  V30 10 C 1.863628 0.537467 0.887649 0
M  V30 11 C 0.730723 1.208177 0.302949 0
M  V30 12 C -0.504405 0.595626 0.537519 0
M  V30 13 C -1.621837 1.223277 -0.017168 0
M  V30 14 C -1.466910 2.384641 -0.750355 0
M  V30 15 C -0.234690 2.959217 -0.960655 0
M  V30 16 C 0.893257 2.367705 -0.428033 0
M  V30 17 F 2.118142 2.906912 -0.616294 0
M  V30 18 O -2.557131 3.047364 -1.324240 0
M  V30 19 C -3.814772 2.533945 -1.758709 0
M  V30 20 C -4.635717 2.016819 -0.597570 0
M  V30 21 N -4.080968 0.865409 0.040532 0
M  V30 22 C -4.852326 -0.144120 0.532834 0
M  V30 23 C -4.080271 -1.129337 1.094730 0
M  V30 24 C -4.522815 -2.367838 1.725598 0
M  V30 25 N -5.920563 -2.628780 1.789123 0
M  V30 26 O -3.694096 -3.186731 2.202390 0
M  V30 27 N -2.789792 -0.728472 0.951823 0
M  V30 28 C -2.814509 0.445647 0.330034 0
M  V30 29 H 5.122078 -4.464797 3.242419 0
M  V30 30 H 3.393627 -4.782530 2.946432 0
M  V30 31 H 3.830321 -3.315695 3.815945 0
M  V30 32 H 5.540638 -4.871284 1.028310 0
M  V30 33 H 3.806911 -5.111212 0.737359 0
M  V30 34 H 4.656542 -3.953427 -0.285614 0
M  V30 35 H 4.959287 1.010653 1.092059 0
M  V30 36 H 5.365059 0.751004 2.806878 0
M  V30 37 H 6.013723 -0.377691 1.517046 0
M  V30 38 H 4.410231 -0.627227 3.924955 0
M  V30 39 H -0.627322 -0.298197 1.101335 0
M  V30 40 H -0.191033 3.858959 -1.538641 0
M  V30 41 H -3.662382 1.770623 -2.552607 0
M  V30 42 H -4.374766 3.406948 -2.154613 0
M  V30 43 H -4.793078 2.873283 0.085101 0
M  V30 44 H -5.616505 1.731219 -1.040885 0
M  V30 45 H -5.922046 -0.173959 0.491480 0
M  V30 46 H -6.533229 -2.346862 0.975597 0
M  V30 47 H -6.235808 -3.095771 2.670062 0
M  V30 END ATOM
M  V30 BEGIN BOND
M  V30 1 1 1 2
M  V30 2 1 2 3
M  V30 3 1 2 4
M  V30 4 2 4 5
M  V30 5 1 4 6
M  V30 6 1 6 7
M  V30 7 1 6 8
M  V30 8 1 6 9
M  V30 9 3 9 10
M  V30 10 1 10 11
M  V30 11 2 11 12
M  V30 12 1 12 13
M  V30 13 2 13 14
M  V30 14 1 14 15
M  V30 15 2 15 16
M  V30 16 1 16 17
M  V30 17 1 14 18
M  V30 18 1 18 19
M  V30 19 1 19 20
M  V30 20 1 20 21
M  V30 21 1 21 22
M  V30 22 2 22 23
M  V30 23 1 23 24
M  V30 24 1 24 25
M  V30 25 2 24 26
M  V30 26 1 23 27
M  V30 27 2 27 28
M  V30 28 1 16 11
M  V30 29 1 28 21
M  V30 30 1 28 13
M  V30 31 1 1 29
M  V30 32 1 1 30
M  V30 33 1 1 31
M  V30 34 1 3 32
M  V30 35 1 3 33
M  V30 36 1 3 34
M  V30 37 1 7 35
M  V30 38 1 7 36
M  V30 39 1 7 37
M  V30 40 1 8 38
M  V30 41 1 12 39
M  V30 42 1 15 40
M  V30 43 1 19 41
M  V30 44 1 19 42
M  V30 45 1 20 43
M  V30 46 1 20 44
M  V30 47 1 22 45
M  V30 48 1 25 46
M  V30 49 1 25 47
M  V30 END BOND
M  V30 END CTAB
M  END
>  <Dataset>  (673) 
ChEMBL_Kinases

>  <Ligand_Instance>  (673) 
nan

>  <PDB_ID>  (673) 
nan

>  <Standardized_SMILES>  (673) 
CN(C)C(=O)C(C)(O)C#Cc1cc2c(cc1F)OCCn1cc(C(N)=O)nc1-2

>  <Name>  (673) 
nan

>  <Pocket>  (673) 
nan

>  <ATP_Site>  (673) 
nan

>  <Peripheral>  (673) 
nan

>  <Num_H_Atoms_ProtBoundConf>  (673) 
nan

>  <Num_Resolved_Atoms>  (673) 
nan

>  <Num_Not_Resolved_Atoms>  (673) 
nan

$$$$
CHEMBL3692405
     RDKit          3D

  0  0  0  0  0  0  0  0  0  0999 V3000
M  V30 BEGIN CTAB
M  V30 COUNTS 50 52 0 0 0
M  V30 BEGIN ATOM
M  V30 1 C 6.156627 -1.042629 2.974804 0
M  V30 2 N 4.828586 -0.878806 2.381898 0
M  V30 3 C 3.909370 -1.801458 3.064829 0
M  V30 4 C 4.493987 0.022691 1.328729 0
M  V30 5 O 5.483717 0.696211 0.939700 0
M  V30 6 C 3.070362 -0.051853 0.948504 0
M  V30 7 C 2.642806 -1.011727 0.068307 0
M  V30 8 C 3.417883 -2.038301 -0.601368 0
M  V30 9 N 2.825913 -2.962569 -1.492543 0
M  V30 10 O 4.669518 -2.118153 -0.386983 0
M  V30 11 N 1.302336 -0.842057 -0.088071 0
M  V30 12 C 0.924332 0.197439 0.680268 0
M  V30 13 N 2.004919 0.712515 1.340105 0
M  V30 14 C 2.325255 1.755503 2.264974 0
M  V30 15 C 1.182610 2.364540 2.992002 0
M  V30 16 O 0.074938 2.720407 2.196894 0
M  V30 17 C -0.852030 1.898694 1.520918 0
M  V30 18 C -2.183802 2.251349 1.549311 0
M  V30 19 C -3.054769 1.421826 0.876781 0
M  V30 20 F -4.363760 1.768314 0.910771 0
M  V30 21 C -2.640429 0.292654 0.202852 0
M  V30 22 C -3.567254 -0.556137 -0.488910 0
M  V30 23 C -4.334940 -1.285436 -1.064597 0
M  V30 24 C -5.250308 -2.190738 -1.763722 0
M  V30 25 C -6.687779 -1.841928 -1.516547 0
M  V30 26 C -4.953554 -2.279883 -3.249695 0
M  V30 27 O -5.045406 -3.477817 -1.247205 0
M  V30 28 C -1.299417 -0.057457 0.177812 0
M  V30 29 C -0.404016 0.774688 0.856238 0
M  V30 30 H 6.874958 -0.368725 2.465331 0
M  V30 31 H 6.426583 -2.115413 2.805572 0
M  V30 32 H 6.077060 -0.881253 4.056992 0
M  V30 33 H 4.311611 -2.843737 3.086043 0
M  V30 34 H 2.945401 -1.876086 2.510543 0
M  V30 35 H 3.787542 -1.513473 4.125154 0
M  V30 36 H 2.710726 -3.957161 -1.148971 0
M  V30 37 H 2.454204 -2.880760 -2.479370 0
M  V30 38 H 2.895801 2.563165 1.737639 0
M  V30 39 H 3.031371 1.374963 3.057163 0
M  V30 40 H 1.564940 3.337354 3.422129 0
M  V30 41 H 0.912865 1.765712 3.889991 0
M  V30 42 H -2.406075 3.145184 2.098292 0
M  V30 43 H -6.983625 -0.841718 -1.840846 0
M  V30 44 H -6.895196 -1.979773 -0.423143 0
M  V30 45 H -7.299482 -2.651125 -2.007513 0
M  V30 46 H -5.222141 -3.294819 -3.646924 0
M  V30 47 H -5.484899 -1.519940 -3.844525 0
M  V30 48 H -3.843528 -2.180483 -3.394461 0
M  V30 49 H -4.653325 -3.414668 -0.326788 0
M  V30 50 H -0.978965 -0.948567 -0.349100 0
M  V30 END ATOM
M  V30 BEGIN BOND
M  V30 1 1 1 2
M  V30 2 1 2 3
M  V30 3 1 2 4
M  V30 4 2 4 5
M  V30 5 1 4 6
M  V30 6 2 6 7
M  V30 7 1 7 8
M  V30 8 1 8 9
M  V30 9 2 8 10
M  V30 10 1 7 11
M  V30 11 2 11 12
M  V30 12 1 12 13
M  V30 13 1 13 14
M  V30 14 1 14 15
M  V30 15 1 15 16
M  V30 16 1 16 17
M  V30 17 2 17 18
M  V30 18 1 18 19
M  V30 19 1 19 20
M  V30 20 2 19 21
M  V30 21 1 21 22
M  V30 22 3 22 23
M  V30 23 1 23 24
M  V30 24 1 24 25
M  V30 25 1 24 26
M  V30 26 1 24 27
M  V30 27 1 21 28
M  V30 28 2 28 29
M  V30 29 1 13 6
M  V30 30 1 29 17
M  V30 31 1 29 12
M  V30 32 1 1 30
M  V30 33 1 1 31
M  V30 34 1 1 32
M  V30 35 1 3 33
M  V30 36 1 3 34
M  V30 37 1 3 35
M  V30 38 1 9 36
M  V30 39 1 9 37
M  V30 40 1 14 38
M  V30 41 1 14 39
M  V30 42 1 15 40
M  V30 43 1 15 41
M  V30 44 1 18 42
M  V30 45 1 25 43
M  V30 46 1 25 44
M  V30 47 1 25 45
M  V30 48 1 26 46
M  V30 49 1 26 47
M  V30 50 1 26 48
M  V30 51 1 27 49
M  V30 52 1 28 50
M  V30 END BOND
M  V30 END CTAB
M  END
>  <Dataset>  (674) 
ChEMBL_Kinases

>  <Ligand_Instance>  (674) 
nan

>  <PDB_ID>  (674) 
nan

>  <Standardized_SMILES>  (674) 
CN(C)C(=O)c1c(C(N)=O)nc2n1CCOc1cc(F)c(C#CC(C)(C)O)cc1-2

>  <Name>  (674) 
nan

>  <Pocket>  (674) 
nan

>  <ATP_Site>  (674) 
nan

>  <Peripheral>  (674) 
nan

>  <Num_H_Atoms_ProtBoundConf>  (674) 
nan

>  <Num_Resolved_Atoms>  (674) 
nan

>  <Num_Not_Resolved_Atoms>  (674) 
nan

$$$$
CHEMBL3692400
     RDKit          3D

  0  0  0  0  0  0  0  0  0  0999 V3000
M  V30 BEGIN CTAB
M  V30 COUNTS 47 50 0 0 0
M  V30 BEGIN ATOM
M  V30 1 C -0.665923 4.111112 -3.699964 0
M  V30 2 C 0.146876 2.897176 -4.019306 0
M  V30 3 C -0.772050 1.917554 -4.760975 0
M  V30 4 O 1.238510 3.231418 -4.837764 0
M  V30 5 C 0.669811 2.263825 -2.791509 0
M  V30 6 C 1.102648 1.736131 -1.784487 0
M  V30 7 C 1.622409 1.111423 -0.596250 0
M  V30 8 C 0.800205 0.276762 0.127477 0
M  V30 9 C 1.376523 -0.292404 1.268601 0
M  V30 10 C 2.668780 -0.068620 1.686367 0
M  V30 11 C 3.471547 0.786710 0.921372 0
M  V30 12 C 2.920355 1.354426 -0.204012 0
M  V30 13 F 3.753527 2.170699 -0.895861 0
M  V30 14 O 3.228065 -0.658237 2.851257 0
M  V30 15 C 2.511963 -0.867266 4.028266 0
M  V30 16 C 1.527648 -1.983803 4.043683 0
M  V30 17 N 0.459782 -1.913662 3.069273 0
M  V30 18 C 0.428442 -1.176303 1.944955 0
M  V30 19 N -0.774309 -1.412441 1.410747 0
M  V30 20 C -1.462001 -2.272074 2.183207 0
M  V30 21 C -2.777879 -2.590083 1.685178 0
M  V30 22 N -3.319617 -2.046816 0.467300 0
M  V30 23 O -3.862787 -3.165949 1.745568 0
M  V30 24 C -0.679536 -2.601049 3.247556 0
M  V30 25 C -1.130987 -3.514190 4.264386 0
M  V30 26 C -2.294407 -4.188173 4.461327 0
M  V30 27 N -2.267037 -4.986443 5.528559 0
M  V30 28 N -1.052498 -4.872596 6.099337 0
M  V30 29 C -0.391864 -3.983301 5.319890 0
M  V30 30 H -0.345972 5.006719 -4.277594 0
M  V30 31 H -1.746410 3.967789 -3.922279 0
M  V30 32 H -0.612900 4.288908 -2.599018 0
M  V30 33 H -0.401009 0.896583 -4.456520 0
M  V30 34 H -1.774213 2.028004 -4.314446 0
M  V30 35 H -0.696609 2.107129 -5.828991 0
M  V30 36 H 1.726343 2.397844 -5.070423 0
M  V30 37 H -0.200169 0.086510 -0.170600 0
M  V30 38 H 4.470453 0.908946 1.315848 0
M  V30 39 H 2.046119 0.063365 4.420569 0
M  V30 40 H 3.293307 -1.159674 4.799580 0
M  V30 41 H 2.022078 -2.950760 4.077567 0
M  V30 42 H 0.971831 -1.816718 5.039327 0
M  V30 43 H -3.872587 -1.157621 0.283236 0
M  V30 44 H -3.293135 -2.387868 -0.542617 0
M  V30 45 H -3.193849 -4.178652 3.921731 0
M  V30 46 H -0.863890 -5.445667 6.966188 0
M  V30 47 H 0.584503 -3.862934 5.715860 0
M  V30 END ATOM
M  V30 BEGIN BOND
M  V30 1 1 1 2
M  V30 2 1 2 3
M  V30 3 1 2 4
M  V30 4 1 2 5
M  V30 5 3 5 6
M  V30 6 1 6 7
M  V30 7 2 7 8
M  V30 8 1 8 9
M  V30 9 2 9 10
M  V30 10 1 10 11
M  V30 11 2 11 12
M  V30 12 1 12 13
M  V30 13 1 10 14
M  V30 14 1 14 15
M  V30 15 1 15 16
M  V30 16 1 16 17
M  V30 17 1 17 18
M  V30 18 2 18 19
M  V30 19 1 19 20
M  V30 20 1 20 21
M  V30 21 1 21 22
M  V30 22 2 21 23
M  V30 23 2 20 24
M  V30 24 1 24 25
M  V30 25 1 25 26
M  V30 26 2 26 27
M  V30 27 1 27 28
M  V30 28 1 28 29
M  V30 29 1 12 7
M  V30 30 1 24 17
M  V30 31 2 29 25
M  V30 32 1 18 9
M  V30 33 1 1 30
M  V30 34 1 1 31
M  V30 35 1 1 32
M  V30 36 1 3 33
M  V30 37 1 3 34
M  V30 38 1 3 35
M  V30 39 1 4 36
M  V30 40 1 8 37
M  V30 41 1 11 38
M  V30 42 1 15 39
M  V30 43 1 15 40
M  V30 44 1 16 41
M  V30 45 1 16 42
M  V30 46 1 22 43
M  V30 47 1 22 44
M  V30 48 1 26 45
M  V30 49 1 28 46
M  V30 50 1 29 47
M  V30 END BOND
M  V30 END CTAB
M  END
>  <Dataset>  (675) 
ChEMBL_Kinases

>  <Ligand_Instance>  (675) 
nan

>  <PDB_ID>  (675) 
nan

>  <Standardized_SMILES>  (675) 
CC(C)(O)C#Cc1cc2c(cc1F)OCCn1c-2nc(C(N)=O)c1-c1cn[nH]c1

>  <Name>  (675) 
nan

>  <Pocket>  (675) 
nan

>  <ATP_Site>  (675) 
nan

>  <Peripheral>  (675) 
nan

>  <Num_H_Atoms_ProtBoundConf>  (675) 
nan

>  <Num_Resolved_Atoms>  (675) 
nan

>  <Num_Not_Resolved_Atoms>  (675) 
nan

$$$$
CHEMBL3692396
     RDKit          3D

  0  0  0  0  0  0  0  0  0  0999 V3000
M  V30 BEGIN CTAB
M  V30 COUNTS 47 49 0 0 0
M  V30 BEGIN ATOM
M  V30 1 C 6.969121 -0.608048 2.871002 0
M  V30 2 N 5.546367 -0.424618 2.906342 0
M  V30 3 C 4.718589 -0.660819 1.783399 0
M  V30 4 O 5.484143 -1.037948 0.860572 0
M  V30 5 C 3.285848 -0.532879 1.616600 0
M  V30 6 C 2.809935 -1.040884 0.434001 0
M  V30 7 C 3.334706 -1.684149 -0.728572 0
M  V30 8 N 2.685139 -2.153128 -1.888692 0
M  V30 9 O 4.391248 -2.086615 -1.235482 0
M  V30 10 N 1.458237 -0.855458 0.417114 0
M  V30 11 C 1.110279 -0.253739 1.549278 0
M  V30 12 N 2.227819 -0.041819 2.309162 0
M  V30 13 C 2.482598 0.561543 3.573901 0
M  V30 14 C 1.400925 1.469972 4.104231 0
M  V30 15 O 0.120065 0.902996 4.179597 0
M  V30 16 C -0.725472 0.616013 3.115092 0
M  V30 17 C -2.102753 0.846365 3.220060 0
M  V30 18 C -2.906280 0.549336 2.141656 0
M  V30 19 F -4.218543 0.811245 2.353688 0
M  V30 20 C -2.418207 0.034090 0.959090 0
M  V30 21 C -3.333955 -0.248265 -0.122403 0
M  V30 22 C -4.112050 -0.493606 -1.017972 0
M  V30 23 C -5.068661 -0.804799 -2.097955 0
M  V30 24 C -4.738382 -2.165095 -2.720502 0
M  V30 25 C -6.418778 -0.926969 -1.450505 0
M  V30 26 O -5.027747 0.154985 -3.089216 0
M  V30 27 C -1.067349 -0.198699 0.838939 0
M  V30 28 C -0.263705 0.099716 1.921806 0
M  V30 29 H 7.181483 -1.612189 3.283873 0
M  V30 30 H 7.502087 0.124460 3.537516 0
M  V30 31 H 7.406258 -0.589983 1.851394 0
M  V30 32 H 5.102024 -0.117206 3.792758 0
M  V30 33 H 2.204990 -2.989289 -2.295779 0
M  V30 34 H 2.398020 -1.864376 -2.857824 0
M  V30 35 H 3.346581 1.283676 3.391761 0
M  V30 36 H 2.798442 -0.092820 4.381977 0
M  V30 37 H 1.723744 1.767888 5.130960 0
M  V30 38 H 1.385276 2.391305 3.473681 0
M  V30 39 H -2.377758 1.246410 4.176278 0
M  V30 40 H -3.616510 -2.270115 -2.685590 0
M  V30 41 H -5.136995 -2.968392 -2.094730 0
M  V30 42 H -5.036923 -2.211215 -3.770728 0
M  V30 43 H -6.319478 -1.481657 -0.492559 0
M  V30 44 H -7.048595 -1.573327 -2.120490 0
M  V30 45 H -6.924710 0.051953 -1.316837 0
M  V30 46 H -4.917271 -0.270067 -3.985354 0
M  V30 47 H -0.703716 -0.598051 -0.082939 0
M  V30 END ATOM
M  V30 BEGIN BOND
M  V30 1 1 1 2
M  V30 2 1 2 3
M  V30 3 2 3 4
M  V30 4 1 3 5
M  V30 5 2 5 6
M  V30 6 1 6 7
M  V30 7 1 7 8
M  V30 8 2 7 9
M  V30 9 1 6 10
M  V30 10 2 10 11
M  V30 11 1 11 12
M  V30 12 1 12 13
M  V30 13 1 13 14
M  V30 14 1 14 15
M  V30 15 1 15 16
M  V30 16 2 16 17
M  V30 17 1 17 18
M  V30 18 1 18 19
M  V30 19 2 18 20
M  V30 20 1 20 21
M  V30 21 3 21 22
M  V30 22 1 22 23
M  V30 23 1 23 24
M  V30 24 1 23 25
M  V30 25 1 23 26
M  V30 26 1 20 27
M  V30 27 2 27 28
M  V30 28 1 12 5
M  V30 29 1 28 16
M  V30 30 1 28 11
M  V30 31 1 1 29
M  V30 32 1 1 30
M  V30 33 1 1 31
M  V30 34 1 2 32
M  V30 35 1 8 33
M  V30 36 1 8 34
M  V30 37 1 13 35
M  V30 38 1 13 36
M  V30 39 1 14 37
M  V30 40 1 14 38
M  V30 41 1 17 39
M  V30 42 1 24 40
M  V30 43 1 24 41
M  V30 44 1 24 42
M  V30 45 1 25 43
M  V30 46 1 25 44
M  V30 47 1 25 45
M  V30 48 1 26 46
M  V30 49 1 27 47
M  V30 END BOND
M  V30 END CTAB
M  END
>  <Dataset>  (676) 
ChEMBL_Kinases

>  <Ligand_Instance>  (676) 
nan

>  <PDB_ID>  (676) 
nan

>  <Standardized_SMILES>  (676) 
CNC(=O)c1c(C(N)=O)nc2n1CCOc1cc(F)c(C#CC(C)(C)O)cc1-2

>  <Name>  (676) 
nan

>  <Pocket>  (676) 
nan

>  <ATP_Site>  (676) 
nan

>  <Peripheral>  (676) 
nan

>  <Num_H_Atoms_ProtBoundConf>  (676) 
nan

>  <Num_Resolved_Atoms>  (676) 
nan

>  <Num_Not_Resolved_Atoms>  (676) 
nan

$$$$
CHEMBL3692391
     RDKit          3D

  0  0  0  0  0  0  0  0  0  0999 V3000
M  V30 BEGIN CTAB
M  V30 COUNTS 47 50 0 0 0
M  V30 BEGIN ATOM
M  V30 1 C 5.372506 -3.906686 0.175110 0
M  V30 2 C 5.031688 -2.929555 -0.919446 0
M  V30 3 C 4.423687 -3.691747 -2.069736 0
M  V30 4 O 6.218927 -2.364574 -1.371326 0
M  V30 5 C 4.158150 -1.846663 -0.465871 0
M  V30 6 C 3.423601 -0.962857 -0.092111 0
M  V30 7 C 2.542000 0.078785 0.362609 0
M  V30 8 C 1.246029 -0.274681 0.673736 0
M  V30 9 C 0.414269 0.741642 1.107511 0
M  V30 10 C 0.846876 2.067698 1.231045 0
M  V30 11 C 2.152722 2.383006 0.909950 0
M  V30 12 C 2.994553 1.377999 0.475298 0
M  V30 13 F 4.281822 1.642073 0.148663 0
M  V30 14 O 0.131243 3.206426 1.653661 0
M  V30 15 C -1.247384 3.323342 1.988461 0
M  V30 16 C -2.149178 2.487070 1.137390 0
M  V30 17 N -2.072341 1.058632 1.439658 0
M  V30 18 C -0.944586 0.318220 1.421231 0
M  V30 19 N -1.217189 -0.962489 1.747496 0
M  V30 20 C -2.547734 -1.004866 1.971189 0
M  V30 21 C -3.233945 -2.182127 2.354000 0
M  V30 22 N -2.598947 -3.432935 2.558410 0
M  V30 23 O -4.244967 -2.831334 2.659041 0
M  V30 24 C -3.100221 0.237211 1.785917 0
M  V30 25 C -4.448239 0.776874 1.870384 0
M  V30 26 C -5.236377 0.939146 0.536142 0
M  V30 27 C -5.688552 0.042935 1.680123 0
M  V30 28 H 6.425308 -4.264529 0.061511 0
M  V30 29 H 5.211149 -3.455329 1.181640 0
M  V30 30 H 4.732312 -4.811323 0.132193 0
M  V30 31 H 4.626841 -3.252604 -3.056181 0
M  V30 32 H 3.337321 -3.897673 -1.883583 0
M  V30 33 H 4.900820 -4.695210 -2.070420 0
M  V30 34 H 6.778818 -3.109853 -1.708036 0
M  V30 35 H 0.816511 -1.250526 0.615453 0
M  V30 36 H 2.495924 3.396493 1.000519 0
M  V30 37 H -1.442487 3.205766 3.068779 0
M  V30 38 H -1.520103 4.391290 1.763971 0
M  V30 39 H -3.172217 2.864759 1.194991 0
M  V30 40 H -1.812894 2.645398 0.078697 0
M  V30 41 H -1.923508 -3.729451 3.295723 0
M  V30 42 H -1.919795 -3.729774 3.300461 0
M  V30 43 H -4.522456 1.685812 2.544852 0
M  V30 44 H -5.727698 1.902643 0.355916 0
M  V30 45 H -4.761853 0.424317 -0.327239 0
M  V30 46 H -5.816808 -1.010465 1.437913 0
M  V30 47 H -6.623514 0.455446 2.165900 0
M  V30 END ATOM
M  V30 BEGIN BOND
M  V30 1 1 1 2
M  V30 2 1 2 3
M  V30 3 1 2 4
M  V30 4 1 2 5
M  V30 5 3 5 6
M  V30 6 1 6 7
M  V30 7 2 7 8
M  V30 8 1 8 9
M  V30 9 2 9 10
M  V30 10 1 10 11
M  V30 11 2 11 12
M  V30 12 1 12 13
M  V30 13 1 10 14
M  V30 14 1 14 15
M  V30 15 1 15 16
M  V30 16 1 16 17
M  V30 17 1 17 18
M  V30 18 2 18 19
M  V30 19 1 19 20
M  V30 20 1 20 21
M  V30 21 1 21 22
M  V30 22 2 21 23
M  V30 23 2 20 24
M  V30 24 1 24 25
M  V30 25 1 25 26
M  V30 26 1 26 27
M  V30 27 1 12 7
M  V30 28 1 24 17
M  V30 29 1 27 25
M  V30 30 1 18 9
M  V30 31 1 1 28
M  V30 32 1 1 29
M  V30 33 1 1 30
M  V30 34 1 3 31
M  V30 35 1 3 32
M  V30 36 1 3 33
M  V30 37 1 4 34
M  V30 38 1 8 35
M  V30 39 1 11 36
M  V30 40 1 15 37
M  V30 41 1 15 38
M  V30 42 1 16 39
M  V30 43 1 16 40
M  V30 44 1 22 41
M  V30 45 1 22 42
M  V30 46 1 25 43
M  V30 47 1 26 44
M  V30 48 1 26 45
M  V30 49 1 27 46
M  V30 50 1 27 47
M  V30 END BOND
M  V30 END CTAB
M  END
>  <Dataset>  (677) 
ChEMBL_Kinases

>  <Ligand_Instance>  (677) 
nan

>  <PDB_ID>  (677) 
nan

>  <Standardized_SMILES>  (677) 
CC(C)(O)C#Cc1cc2c(cc1F)OCCn1c-2nc(C(N)=O)c1C1CC1

>  <Name>  (677) 
nan

>  <Pocket>  (677) 
nan

>  <ATP_Site>  (677) 
nan

>  <Peripheral>  (677) 
nan

>  <Num_H_Atoms_ProtBoundConf>  (677) 
nan

>  <Num_Resolved_Atoms>  (677) 
nan

>  <Num_Not_Resolved_Atoms>  (677) 
nan

$$$$
CHEMBL3692389
     RDKit          3D

  0  0  0  0  0  0  0  0  0  0999 V3000
M  V30 BEGIN CTAB
M  V30 COUNTS 43 45 0 0 0
M  V30 BEGIN ATOM
M  V30 1 C -2.507637 -2.439816 -3.245044 0
M  V30 2 C -1.579355 -1.966014 -2.205770 0
M  V30 3 C -0.563596 -2.736307 -1.661334 0
M  V30 4 C -0.154869 -4.109735 -1.931553 0
M  V30 5 N -0.851791 -4.878802 -2.901886 0
M  V30 6 O 0.803815 -4.688947 -1.349895 0
M  V30 7 N 0.053940 -1.933571 -0.745535 0
M  V30 8 C -0.573031 -0.727631 -0.745501 0
M  V30 9 N -1.576095 -0.746315 -1.641705 0
M  V30 10 C -2.476328 0.345540 -1.935795 0
M  V30 11 C -1.681913 1.579771 -2.264700 0
M  V30 12 O -1.233286 2.273508 -1.089213 0
M  V30 13 C -0.465992 1.755602 -0.024510 0
M  V30 14 C -0.020864 2.704105 0.872920 0
M  V30 15 C 0.738397 2.239890 1.937303 0
M  V30 16 F 1.201136 3.130663 2.848856 0
M  V30 17 C 1.038344 0.887732 2.095975 0
M  V30 18 C 1.840537 0.472505 3.237387 0
M  V30 19 C 2.522729 0.133727 4.176687 0
M  V30 20 C 3.356290 -0.282494 5.310058 0
M  V30 21 C 4.166570 0.926334 5.706019 0
M  V30 22 C 2.550846 -0.835896 6.443556 0
M  V30 23 O 4.294589 -1.257643 4.904518 0
M  V30 24 C 0.597040 -0.047881 1.207311 0
M  V30 25 C -0.167843 0.395252 0.129581 0
M  V30 26 H -3.421625 -1.818985 -3.323499 0
M  V30 27 H -1.971767 -2.439079 -4.217456 0
M  V30 28 H -2.783716 -3.496747 -3.048610 0
M  V30 29 H -0.521820 -5.225657 -3.820392 0
M  V30 30 H -0.521668 -5.231861 -3.832528 0
M  V30 31 H -3.052006 0.536549 -0.983010 0
M  V30 32 H -3.211697 0.112857 -2.703358 0
M  V30 33 H -2.270552 2.284083 -2.855692 0
M  V30 34 H -0.788043 1.211862 -2.849217 0
M  V30 35 H -0.275725 3.731210 0.710758 0
M  V30 36 H 4.409873 1.526509 4.823639 0
M  V30 37 H 3.639601 1.513216 6.503581 0
M  V30 38 H 5.094620 0.559111 6.191123 0
M  V30 39 H 2.394880 -0.106364 7.271193 0
M  V30 40 H 1.560586 -1.144537 6.028705 0
M  V30 41 H 3.045490 -1.737863 6.856917 0
M  V30 42 H 4.538115 -1.749551 5.726282 0
M  V30 43 H 0.798790 -1.097712 1.282625 0
M  V30 END ATOM
M  V30 BEGIN BOND
M  V30 1 1 1 2
M  V30 2 2 2 3
M  V30 3 1 3 4
M  V30 4 1 4 5
M  V30 5 2 4 6
M  V30 6 1 3 7
M  V30 7 2 7 8
M  V30 8 1 8 9
M  V30 9 1 9 10
M  V30 10 1 10 11
M  V30 11 1 11 12
M  V30 12 1 12 13
M  V30 13 2 13 14
M  V30 14 1 14 15
M  V30 15 1 15 16
M  V30 16 2 15 17
M  V30 17 1 17 18
M  V30 18 3 18 19
M  V30 19 1 19 20
M  V30 20 1 20 21
M  V30 21 1 20 22
M  V30 22 1 20 23
M  V30 23 1 17 24
M  V30 24 2 24 25
M  V30 25 1 9 2
M  V30 26 1 25 13
M  V30 27 1 25 8
M  V30 28 1 1 26
M  V30 29 1 1 27
M  V30 30 1 1 28
M  V30 31 1 5 29
M  V30 32 1 5 30
M  V30 33 1 10 31
M  V30 34 1 10 32
M  V30 35 1 11 33
M  V30 36 1 11 34
M  V30 37 1 14 35
M  V30 38 1 21 36
M  V30 39 1 21 37
M  V30 40 1 21 38
M  V30 41 1 22 39
M  V30 42 1 22 40
M  V30 43 1 22 41
M  V30 44 1 23 42
M  V30 45 1 24 43
M  V30 END BOND
M  V30 END CTAB
M  END
>  <Dataset>  (678) 
ChEMBL_Kinases

>  <Ligand_Instance>  (678) 
nan

>  <PDB_ID>  (678) 
nan

>  <Standardized_SMILES>  (678) 
Cc1c(C(N)=O)nc2n1CCOc1cc(F)c(C#CC(C)(C)O)cc1-2

>  <Name>  (678) 
nan

>  <Pocket>  (678) 
nan

>  <ATP_Site>  (678) 
nan

>  <Peripheral>  (678) 
nan

>  <Num_H_Atoms_ProtBoundConf>  (678) 
nan

>  <Num_Resolved_Atoms>  (678) 
nan

>  <Num_Not_Resolved_Atoms>  (678) 
nan

$$$$
CHEMBL3692388
     RDKit          3D

  0  0  0  0  0  0  0  0  0  0999 V3000
M  V30 BEGIN CTAB
M  V30 COUNTS 41 43 0 0 0
M  V30 BEGIN ATOM
M  V30 1 C 3.057511 -4.510297 -2.716183 0
M  V30 2 C 2.384577 -3.241830 -3.228908 0
M  V30 3 C 1.046440 -3.653882 -3.782496 0
M  V30 4 O 3.209007 -2.687477 -4.210423 0
M  V30 5 C 2.250218 -2.252733 -2.146264 0
M  V30 6 C 2.153030 -1.449486 -1.245941 0
M  V30 7 C 2.048477 -0.508455 -0.157583 0
M  V30 8 C 0.881224 -0.338806 0.567073 0
M  V30 9 C 0.764519 0.559211 1.613527 0
M  V30 10 C 1.888713 1.317731 1.934767 0
M  V30 11 C 3.071306 1.186688 1.245730 0
M  V30 12 C 3.125251 0.273208 0.211064 0
M  V30 13 F 4.278252 0.142637 -0.463833 0
M  V30 14 O 1.849812 2.253243 2.986878 0
M  V30 15 C 1.115175 2.169510 4.218197 0
M  V30 16 C -0.364222 2.371352 3.989836 0
M  V30 17 N -0.986698 1.338341 3.215123 0
M  V30 18 C -0.593000 0.525009 2.200334 0
M  V30 19 N -1.576511 -0.289259 1.815467 0
M  V30 20 C -2.653153 -0.026192 2.578556 0
M  V30 21 C -3.955737 -0.702014 2.481906 0
M  V30 22 N -4.976637 -0.292193 3.370013 0
M  V30 23 O -4.071372 -1.598573 1.615069 0
M  V30 24 C -2.284915 0.988533 3.450928 0
M  V30 25 C -3.164731 1.570598 4.451090 0
M  V30 26 N -3.859505 2.026778 5.266679 0
M  V30 27 H 2.795380 -5.308916 -3.437882 0
M  V30 28 H 4.135521 -4.384340 -2.595810 0
M  V30 29 H 2.585081 -4.724381 -1.742150 0
M  V30 30 H 0.254965 -2.914592 -3.524050 0
M  V30 31 H 1.085853 -3.826678 -4.894488 0
M  V30 32 H 0.677231 -4.621280 -3.342198 0
M  V30 33 H 2.963587 -1.749965 -4.409813 0
M  V30 34 H 0.003280 -0.934778 0.312203 0
M  V30 35 H 3.875487 1.817388 1.572914 0
M  V30 36 H 1.350899 1.240150 4.752291 0
M  V30 37 H 1.458972 3.009781 4.844849 0
M  V30 38 H -0.501245 3.348831 3.500372 0
M  V30 39 H -0.831060 2.435167 4.986987 0
M  V30 40 H -5.277134 0.678368 3.114198 0
M  V30 41 H -5.661013 -0.332447 4.157052 0
M  V30 END ATOM
M  V30 BEGIN BOND
M  V30 1 1 1 2
M  V30 2 1 2 3
M  V30 3 1 2 4
M  V30 4 1 2 5
M  V30 5 3 5 6
M  V30 6 1 6 7
M  V30 7 2 7 8
M  V30 8 1 8 9
M  V30 9 2 9 10
M  V30 10 1 10 11
M  V30 11 2 11 12
M  V30 12 1 12 13
M  V30 13 1 10 14
M  V30 14 1 14 15
M  V30 15 1 15 16
M  V30 16 1 16 17
M  V30 17 1 17 18
M  V30 18 2 18 19
M  V30 19 1 19 20
M  V30 20 1 20 21
M  V30 21 1 21 22
M  V30 22 2 21 23
M  V30 23 2 20 24
M  V30 24 1 24 25
M  V30 25 3 25 26
M  V30 26 1 12 7
M  V30 27 1 24 17
M  V30 28 1 18 9
M  V30 29 1 1 27
M  V30 30 1 1 28
M  V30 31 1 1 29
M  V30 32 1 3 30
M  V30 33 1 3 31
M  V30 34 1 3 32
M  V30 35 1 4 33
M  V30 36 1 8 34
M  V30 37 1 11 35
M  V30 38 1 15 36
M  V30 39 1 15 37
M  V30 40 1 16 38
M  V30 41 1 16 39
M  V30 42 1 22 40
M  V30 43 1 22 41
M  V30 END BOND
M  V30 END CTAB
M  END
>  <Dataset>  (679) 
ChEMBL_Kinases

>  <Ligand_Instance>  (679) 
nan

>  <PDB_ID>  (679) 
nan

>  <Standardized_SMILES>  (679) 
CC(C)(O)C#Cc1cc2c(cc1F)OCCn1c-2nc(C(N)=O)c1C#N

>  <Name>  (679) 
nan

>  <Pocket>  (679) 
nan

>  <ATP_Site>  (679) 
nan

>  <Peripheral>  (679) 
nan

>  <Num_H_Atoms_ProtBoundConf>  (679) 
nan

>  <Num_Resolved_Atoms>  (679) 
nan

>  <Num_Not_Resolved_Atoms>  (679) 
nan

$$$$
CHEMBL3691679
     RDKit          3D

  0  0  0  0  0  0  0  0  0  0999 V3000
M  V30 BEGIN CTAB
M  V30 COUNTS 74 79 0 0 0
M  V30 BEGIN ATOM
M  V30 1 C 6.653800 -2.418989 5.141508 0
M  V30 2 N 5.832305 -1.976049 4.032620 0
M  V30 3 C 4.880293 -2.989065 3.614866 0
M  V30 4 C 5.997048 -0.683521 3.462760 0
M  V30 5 O 6.922308 -0.009154 4.034313 0
M  V30 6 C 5.156620 -0.259760 2.350609 0
M  V30 7 C 5.324541 -1.029985 1.192999 0
M  V30 8 C 4.483816 -0.536788 0.201042 0
M  V30 9 C 4.196372 -0.848346 -1.112065 0
M  V30 10 N 3.274216 -0.103436 -1.793025 0
M  V30 11 C 2.647420 0.938951 -1.172083 0
M  V30 12 N 1.742608 1.559291 -2.073691 0
M  V30 13 C 0.391151 1.124155 -2.165296 0
M  V30 14 C -0.086500 0.092912 -1.383221 0
M  V30 15 C -1.407731 -0.321797 -1.487866 0
M  V30 16 C -2.251620 0.305095 -2.384660 0
M  V30 17 N -3.577659 -0.237220 -2.382666 0
M  V30 18 C -3.692994 -1.308513 -3.344203 0
M  V30 19 C -4.859947 -2.214302 -3.002590 0 CFG=1
M  V30 20 C -4.612687 -2.832507 -1.671640 0
M  V30 21 C -5.634215 -2.227564 -0.768452 0
M  V30 22 C -6.407370 -1.216667 -1.584355 0 CFG=1
M  V30 23 C -5.929772 0.186655 -1.268464 0
M  V30 24 C -4.474281 0.370288 -1.472083 0
M  V30 25 O -3.907226 1.213570 -0.709795 0
M  V30 26 N -6.065400 -1.477278 -2.929893 0
M  V30 27 C -7.089974 -1.840139 -3.827750 0
M  V30 28 C -7.723629 -3.175660 -3.597142 0
M  V30 29 F -6.849223 -4.232964 -3.670862 0
M  V30 30 F -8.647350 -3.364488 -4.634921 0
M  V30 31 F -8.458842 -3.162986 -2.427682 0
M  V30 32 C -1.737993 1.330294 -3.147802 0
M  V30 33 N -0.459264 1.730089 -3.044834 0
M  V30 34 N 2.934025 1.234181 0.106118 0
M  V30 35 C 3.831244 0.525679 0.803625 0
M  V30 36 N 4.237271 0.685439 2.086365 0
M  V30 37 C 3.868928 1.630710 3.116489 0
M  V30 38 C 2.498693 2.244106 2.879997 0
M  V30 39 C 1.584952 1.083381 3.182038 0
M  V30 40 C 2.391054 0.131974 4.068469 0
M  V30 41 C 3.582277 0.981799 4.456542 0
M  V30 42 H 7.136824 -3.411706 4.911540 0
M  V30 43 H 6.060861 -2.494768 6.074986 0
M  V30 44 H 7.484239 -1.707410 5.378763 0
M  V30 45 H 4.106087 -2.617810 2.930065 0
M  V30 46 H 5.494876 -3.721277 3.011513 0
M  V30 47 H 4.472480 -3.552733 4.466931 0
M  V30 48 H 5.946265 -1.896477 0.914950 0
M  V30 49 H 4.713398 -1.683336 -1.574218 0
M  V30 50 H 2.061697 2.347384 -2.686918 0
M  V30 51 H 0.644763 -0.347181 -0.702007 0
M  V30 52 H -1.635286 -1.144796 -0.805112 0
M  V30 53 H -3.792425 -0.894678 -4.388773 0
M  V30 54 H -2.724833 -1.886080 -3.296333 0
M  V30 55 H -4.933940 -2.981252 -3.821862 0
M  V30 56 H -4.649808 -3.945671 -1.690483 0
M  V30 57 H -3.563904 -2.599889 -1.350769 0
M  V30 58 H -5.085029 -1.723300 0.063326 0
M  V30 59 H -6.290891 -2.994125 -0.305977 0
M  V30 60 H -7.492772 -1.219117 -1.367785 0
M  V30 61 H -6.115950 0.430530 -0.194769 0
M  V30 62 H -6.476304 0.943224 -1.872201 0
M  V30 63 H -7.920324 -1.088592 -3.733520 0
M  V30 64 H -6.721005 -1.730082 -4.869354 0
M  V30 65 H -2.474663 1.765666 -3.827884 0
M  V30 66 H 4.638862 2.435636 3.221115 0
M  V30 67 H 2.342095 2.987783 3.693618 0
M  V30 68 H 2.368968 2.686552 1.886168 0
M  V30 69 H 1.332741 0.526982 2.258265 0
M  V30 70 H 0.659546 1.404829 3.707896 0
M  V30 71 H 1.798086 -0.125785 4.944097 0
M  V30 72 H 2.706924 -0.760479 3.506592 0
M  V30 73 H 4.399033 0.476340 4.931370 0
M  V30 74 H 3.188338 1.805019 5.104920 0
M  V30 END ATOM
M  V30 BEGIN BOND
M  V30 1 1 1 2
M  V30 2 1 2 3
M  V30 3 1 2 4
M  V30 4 2 4 5
M  V30 5 1 4 6
M  V30 6 2 6 7
M  V30 7 1 7 8
M  V30 8 2 8 9
M  V30 9 1 9 10
M  V30 10 2 10 11
M  V30 11 1 11 12
M  V30 12 1 12 13
M  V30 13 2 13 14
M  V30 14 1 14 15
M  V30 15 2 15 16
M  V30 16 1 16 17
M  V30 17 1 17 18
M  V30 18 1 18 19
M  V30 19 1 19 20
M  V30 20 1 20 21
M  V30 21 1 21 22
M  V30 22 1 22 23
M  V30 23 1 23 24
M  V30 24 2 24 25
M  V30 25 1 22 26
M  V30 26 1 26 27
M  V30 27 1 27 28
M  V30 28 1 28 29
M  V30 29 1 28 30
M  V30 30 1 28 31
M  V30 31 1 16 32
M  V30 32 2 32 33
M  V30 33 1 11 34
M  V30 34 2 34 35
M  V30 35 1 35 36
M  V30 36 1 36 37
M  V30 37 1 37 38
M  V30 38 1 38 39
M  V30 39 1 39 40
M  V30 40 1 40 41
M  V30 41 1 36 6
M  V30 42 1 41 37
M  V30 43 1 35 8
M  V30 44 1 33 13
M  V30 45 1 24 17
M  V30 46 1 26 19
M  V30 47 1 1 42
M  V30 48 1 1 43
M  V30 49 1 1 44
M  V30 50 1 3 45
M  V30 51 1 3 46
M  V30 52 1 3 47
M  V30 53 1 7 48
M  V30 54 1 9 49
M  V30 55 1 12 50
M  V30 56 1 14 51
M  V30 57 1 15 52
M  V30 58 1 18 53
M  V30 59 1 18 54
M  V30 60 1 19 55 CFG=3
M  V30 61 1 20 56
M  V30 62 1 20 57
M  V30 63 1 21 58
M  V30 64 1 21 59
M  V30 65 1 22 60 CFG=3
M  V30 66 1 23 61
M  V30 67 1 23 62
M  V30 68 1 27 63
M  V30 69 1 27 64
M  V30 70 1 32 65
M  V30 71 1 37 66
M  V30 72 1 38 67
M  V30 73 1 38 68
M  V30 74 1 39 69
M  V30 75 1 39 70
M  V30 76 1 40 71
M  V30 77 1 40 72
M  V30 78 1 41 73
M  V30 79 1 41 74
M  V30 END BOND
M  V30 END CTAB
M  END
>  <Dataset>  (680) 
ChEMBL_Kinases

>  <Ligand_Instance>  (680) 
nan

>  <PDB_ID>  (680) 
nan

>  <Standardized_SMILES>  (680) 
CN(C)C(=O)c1cc2cnc(Nc3ccc(N4C[C@H]5CC[C@@H](CC4=O)N5CC(F)(F)F)cn3)nc2n1C1CCCC1

>  <Name>  (680) 
nan

>  <Pocket>  (680) 
nan

>  <ATP_Site>  (680) 
nan

>  <Peripheral>  (680) 
nan

>  <Num_H_Atoms_ProtBoundConf>  (680) 
nan

>  <Num_Resolved_Atoms>  (680) 
nan

>  <Num_Not_Resolved_Atoms>  (680) 
nan

$$$$
CHEMBL3691680
     RDKit          3D

  0  0  0  0  0  0  0  0  0  0999 V3000
M  V30 BEGIN CTAB
M  V30 COUNTS 69 74 0 0 0
M  V30 BEGIN ATOM
M  V30 1 C 2.788385 -2.981864 7.095297 0
M  V30 2 N 2.728344 -2.770969 5.658859 0
M  V30 3 C 3.265494 -3.784245 4.758226 0
M  V30 4 C 2.123710 -1.539449 5.188576 0
M  V30 5 O 1.800921 -0.951847 6.252987 0
M  V30 6 C 1.983282 -1.185494 3.783866 0
M  V30 7 C 1.208753 -2.045776 3.013477 0
M  V30 8 C 1.159844 -1.587262 1.708364 0
M  V30 9 C 0.564712 -1.990379 0.524185 0
M  V30 10 N 0.740347 -1.244560 -0.616014 0
M  V30 11 C 1.505585 -0.117847 -0.545948 0
M  V30 12 N 1.549410 0.500120 -1.822189 0
M  V30 13 C 0.447331 0.502179 -2.708646 0
M  V30 14 C 0.464462 0.994295 -3.993711 0
M  V30 15 C -0.652590 1.028601 -4.795663 0
M  V30 16 C -1.860695 0.555222 -4.317579 0
M  V30 17 N -3.103491 0.525058 -5.054892 0
M  V30 18 C -4.066296 1.599736 -5.232226 0
M  V30 19 C -5.467213 1.299789 -4.793218 0
M  V30 20 C -6.521224 1.485158 -5.872515 0
M  V30 21 O -7.443689 0.478098 -5.989211 0
M  V30 22 C -6.907509 -0.799445 -6.278992 0
M  V30 23 C -5.516840 -0.628160 -6.008869 0
M  V30 24 C -4.443659 -1.616848 -6.039161 0
M  V30 25 C -3.232674 -0.806349 -5.628788 0
M  V30 26 O -2.175831 -1.489464 -5.860965 0
M  V30 27 N -5.448515 -0.155833 -4.612851 0
M  V30 28 C -1.850186 0.061125 -3.014311 0
M  V30 29 N -0.737893 0.042559 -2.256381 0
M  V30 30 N 2.102746 0.309030 0.584279 0
M  V30 31 C 1.938757 -0.420524 1.736797 0
M  V30 32 N 2.419719 -0.187836 2.961561 0
M  V30 33 C 3.208799 0.840735 3.552459 0
M  V30 34 C 3.677265 1.885690 2.578461 0
M  V30 35 C 4.985781 1.401617 2.048652 0
M  V30 36 C 5.330732 0.139935 2.815856 0
M  V30 37 C 4.500642 0.273343 4.086691 0
M  V30 38 H 3.804291 -2.765462 7.443726 0
M  V30 39 H 2.130857 -2.232312 7.614207 0
M  V30 40 H 2.415061 -3.990131 7.372543 0
M  V30 41 H 2.484543 -4.526282 4.543051 0
M  V30 42 H 3.629351 -3.343821 3.804280 0
M  V30 43 H 4.085853 -4.307499 5.281650 0
M  V30 44 H 0.664824 -2.954816 3.238883 0
M  V30 45 H -0.027637 -2.896987 0.555159 0
M  V30 46 H 2.464299 0.940847 -2.026554 0
M  V30 47 H 1.396550 1.369834 -4.389090 0
M  V30 48 H -0.671774 1.404850 -5.806901 0
M  V30 49 H -4.013167 2.038215 -6.247738 0
M  V30 50 H -3.709130 2.444705 -4.569836 0
M  V30 51 H -5.734838 1.792681 -3.835585 0
M  V30 52 H -6.119937 1.888033 -6.821597 0
M  V30 53 H -7.137391 2.361080 -5.487157 0
M  V30 54 H -7.375784 -1.580871 -5.645073 0
M  V30 55 H -7.196343 -1.021752 -7.323578 0
M  V30 56 H -5.127537 0.147865 -6.739674 0
M  V30 57 H -4.255057 -1.894549 -7.114939 0
M  V30 58 H -4.576488 -2.506276 -5.401226 0
M  V30 59 H -6.243225 -0.479652 -4.043762 0
M  V30 60 H -2.795796 -0.318673 -2.616617 0
M  V30 61 H 2.623924 1.330132 4.397460 0
M  V30 62 H 3.878876 2.824056 3.159588 0
M  V30 63 H 2.943576 2.130190 1.779624 0
M  V30 64 H 5.820833 2.128314 2.183923 0
M  V30 65 H 4.949382 1.130126 0.965159 0
M  V30 66 H 4.935929 -0.781561 2.309653 0
M  V30 67 H 6.410945 0.026173 3.015951 0
M  V30 68 H 4.949678 1.083746 4.727089 0
M  V30 69 H 4.406228 -0.674347 4.625028 0
M  V30 END ATOM
M  V30 BEGIN BOND
M  V30 1 1 1 2
M  V30 2 1 2 3
M  V30 3 1 2 4
M  V30 4 2 4 5
M  V30 5 1 4 6
M  V30 6 2 6 7
M  V30 7 1 7 8
M  V30 8 2 8 9
M  V30 9 1 9 10
M  V30 10 2 10 11
M  V30 11 1 11 12
M  V30 12 1 12 13
M  V30 13 2 13 14
M  V30 14 1 14 15
M  V30 15 2 15 16
M  V30 16 1 16 17
M  V30 17 1 17 18
M  V30 18 1 18 19
M  V30 19 1 19 20
M  V30 20 1 20 21
M  V30 21 1 21 22
M  V30 22 1 22 23
M  V30 23 1 23 24
M  V30 24 1 24 25
M  V30 25 2 25 26
M  V30 26 1 23 27
M  V30 27 1 16 28
M  V30 28 2 28 29
M  V30 29 1 11 30
M  V30 30 2 30 31
M  V30 31 1 31 32
M  V30 32 1 32 33
M  V30 33 1 33 34
M  V30 34 1 34 35
M  V30 35 1 35 36
M  V30 36 1 36 37
M  V30 37 1 32 6
M  V30 38 1 37 33
M  V30 39 1 31 8
M  V30 40 1 29 13
M  V30 41 1 25 17
M  V30 42 1 27 19
M  V30 43 1 1 38
M  V30 44 1 1 39
M  V30 45 1 1 40
M  V30 46 1 3 41
M  V30 47 1 3 42
M  V30 48 1 3 43
M  V30 49 1 7 44
M  V30 50 1 9 45
M  V30 51 1 12 46
M  V30 52 1 14 47
M  V30 53 1 15 48
M  V30 54 1 18 49
M  V30 55 1 18 50
M  V30 56 1 19 51
M  V30 57 1 20 52
M  V30 58 1 20 53
M  V30 59 1 22 54
M  V30 60 1 22 55
M  V30 61 1 23 56
M  V30 62 1 24 57
M  V30 63 1 24 58
M  V30 64 1 27 59
M  V30 65 1 28 60
M  V30 66 1 33 61
M  V30 67 1 34 62
M  V30 68 1 34 63
M  V30 69 1 35 64
M  V30 70 1 35 65
M  V30 71 1 36 66
M  V30 72 1 36 67
M  V30 73 1 37 68
M  V30 74 1 37 69
M  V30 END BOND
M  V30 END CTAB
M  END
>  <Dataset>  (681) 
ChEMBL_Kinases

>  <Ligand_Instance>  (681) 
nan

>  <PDB_ID>  (681) 
nan

>  <Standardized_SMILES>  (681) 
CN(C)C(=O)c1cc2cnc(Nc3ccc(N4CC5COCC(CC4=O)N5)cn3)nc2n1C1CCCC1

>  <Name>  (681) 
nan

>  <Pocket>  (681) 
nan

>  <ATP_Site>  (681) 
nan

>  <Peripheral>  (681) 
nan

>  <Num_H_Atoms_ProtBoundConf>  (681) 
nan

>  <Num_Resolved_Atoms>  (681) 
nan

>  <Num_Not_Resolved_Atoms>  (681) 
nan

$$$$
CHEMBL3691681
     RDKit          3D

  0  0  0  0  0  0  0  0  0  0999 V3000
M  V30 BEGIN CTAB
M  V30 COUNTS 68 73 0 0 0
M  V30 BEGIN ATOM
M  V30 1 C 4.654231 -2.439207 0.819661 0
M  V30 2 N 5.750188 -1.771658 0.110306 0
M  V30 3 C 6.794218 -2.746768 -0.129025 0
M  V30 4 C 5.809359 -0.389338 -0.287863 0
M  V30 5 O 6.874538 -0.081137 -0.887310 0
M  V30 6 C 4.641073 0.407713 0.067036 0
M  V30 7 C 4.757781 1.318902 1.104827 0
M  V30 8 C 3.521834 1.922789 1.226524 0
M  V30 9 C 3.085427 2.909065 2.109576 0
M  V30 10 N 1.801158 3.341633 2.027648 0
M  V30 11 C 0.985017 2.809343 1.099119 0
M  V30 12 N -0.387130 3.063670 0.806647 0
M  V30 13 C -1.296004 1.959453 0.972001 0
M  V30 14 C -2.664519 2.104592 0.723271 0
M  V30 15 C -3.499713 1.000121 0.880885 0
M  V30 16 C -3.060943 -0.218738 1.264430 0
M  V30 17 N -3.824411 -1.403407 1.442568 0
M  V30 18 C -3.250987 -2.681948 1.818978 0
M  V30 19 C -4.222764 -3.535551 2.578205 0
M  V30 20 N -5.496082 -3.733901 1.915778 0
M  V30 21 C -6.603985 -3.448917 2.810135 0
M  V30 22 C -7.768293 -3.259881 1.882372 0
M  V30 23 C -7.169232 -2.893319 0.550012 0
M  V30 24 C -5.693353 -2.849599 0.813170 0 CFG=1
M  V30 25 C -5.251853 -1.477232 1.259139 0
M  V30 26 O -5.937283 -0.446035 1.479252 0
M  V30 27 C -1.706862 -0.313828 1.498578 0
M  V30 28 N -0.875413 0.733896 1.355295 0
M  V30 29 N 1.439198 1.845065 0.247193 0
M  V30 30 C 2.696673 1.366131 0.267428 0
M  V30 31 N 3.392851 0.446265 -0.429336 0
M  V30 32 C 2.909339 -0.355645 -1.500271 0
M  V30 33 C 1.514526 -0.031362 -1.946065 0
M  V30 34 C 1.627697 1.130986 -2.896876 0
M  V30 35 C 3.115137 1.203050 -3.245526 0
M  V30 36 C 3.684959 -0.143245 -2.781237 0
M  V30 37 H 4.100249 -3.149016 0.172300 0
M  V30 38 H 3.910836 -1.660989 1.096724 0
M  V30 39 H 5.014892 -3.017467 1.690739 0
M  V30 40 H 6.434355 -3.673220 -0.607611 0
M  V30 41 H 7.137917 -3.062322 0.891622 0
M  V30 42 H 7.651076 -2.329336 -0.682900 0
M  V30 43 H 5.602893 1.566767 1.736358 0
M  V30 44 H 3.695784 3.369822 2.871766 0
M  V30 45 H -0.794653 3.963925 0.488650 0
M  V30 46 H -3.033885 3.063057 0.418095 0
M  V30 47 H -4.528518 1.145629 0.679992 0
M  V30 48 H -2.984495 -3.198327 0.857323 0
M  V30 49 H -2.362654 -2.589073 2.485513 0
M  V30 50 H -4.447611 -2.985863 3.541380 0
M  V30 51 H -3.741385 -4.474792 2.846804 0
M  V30 52 H -6.350629 -2.572594 3.412862 0
M  V30 53 H -6.766272 -4.373007 3.406597 0
M  V30 54 H -8.391736 -2.389997 2.216986 0
M  V30 55 H -8.367523 -4.200167 1.817518 0
M  V30 56 H -7.565060 -1.933890 0.155928 0
M  V30 57 H -7.319040 -3.724003 -0.193302 0
M  V30 58 H -5.114213 -3.174907 -0.098329 0
M  V30 59 H -1.131704 -1.173970 1.807369 0
M  V30 60 H 2.911154 -1.458760 -1.268518 0
M  V30 61 H 0.765390 0.063390 -1.167356 0
M  V30 62 H 1.175694 -0.898980 -2.587053 0
M  V30 63 H 1.104315 0.935050 -3.880238 0
M  V30 64 H 1.246979 2.079180 -2.518260 0
M  V30 65 H 3.531527 1.996333 -2.621750 0
M  V30 66 H 3.288138 1.353264 -4.324468 0
M  V30 67 H 4.761861 -0.082233 -2.623859 0
M  V30 68 H 3.402715 -0.936325 -3.512638 0
M  V30 END ATOM
M  V30 BEGIN BOND
M  V30 1 1 1 2
M  V30 2 1 2 3
M  V30 3 1 2 4
M  V30 4 2 4 5
M  V30 5 1 4 6
M  V30 6 2 6 7
M  V30 7 1 7 8
M  V30 8 2 8 9
M  V30 9 1 9 10
M  V30 10 2 10 11
M  V30 11 1 11 12
M  V30 12 1 12 13
M  V30 13 2 13 14
M  V30 14 1 14 15
M  V30 15 2 15 16
M  V30 16 1 16 17
M  V30 17 1 17 18
M  V30 18 1 18 19
M  V30 19 1 19 20
M  V30 20 1 20 21
M  V30 21 1 21 22
M  V30 22 1 22 23
M  V30 23 1 23 24
M  V30 24 1 24 25
M  V30 25 2 25 26
M  V30 26 1 16 27
M  V30 27 2 27 28
M  V30 28 1 11 29
M  V30 29 2 29 30
M  V30 30 1 30 31
M  V30 31 1 31 32
M  V30 32 1 32 33
M  V30 33 1 33 34
M  V30 34 1 34 35
M  V30 35 1 35 36
M  V30 36 1 31 6
M  V30 37 1 36 32
M  V30 38 1 30 8
M  V30 39 1 28 13
M  V30 40 1 25 17
M  V30 41 1 24 20
M  V30 42 1 1 37
M  V30 43 1 1 38
M  V30 44 1 1 39
M  V30 45 1 3 40
M  V30 46 1 3 41
M  V30 47 1 3 42
M  V30 48 1 7 43
M  V30 49 1 9 44
M  V30 50 1 12 45
M  V30 51 1 14 46
M  V30 52 1 15 47
M  V30 53 1 18 48
M  V30 54 1 18 49
M  V30 55 1 19 50
M  V30 56 1 19 51
M  V30 57 1 21 52
M  V30 58 1 21 53
M  V30 59 1 22 54
M  V30 60 1 22 55
M  V30 61 1 23 56
M  V30 62 1 23 57
M  V30 63 1 24 58 CFG=3
M  V30 64 1 27 59
M  V30 65 1 32 60
M  V30 66 1 33 61
M  V30 67 1 33 62
M  V30 68 1 34 63
M  V30 69 1 34 64
M  V30 70 1 35 65
M  V30 71 1 35 66
M  V30 72 1 36 67
M  V30 73 1 36 68
M  V30 END BOND
M  V30 END CTAB
M  END
>  <Dataset>  (682) 
ChEMBL_Kinases

>  <Ligand_Instance>  (682) 
nan

>  <PDB_ID>  (682) 
nan

>  <Standardized_SMILES>  (682) 
CN(C)C(=O)c1cc2cnc(Nc3ccc(N4CCN5CCC[C@H]5C4=O)cn3)nc2n1C1CCCC1

>  <Name>  (682) 
nan

>  <Pocket>  (682) 
nan

>  <ATP_Site>  (682) 
nan

>  <Peripheral>  (682) 
nan

>  <Num_H_Atoms_ProtBoundConf>  (682) 
nan

>  <Num_Resolved_Atoms>  (682) 
nan

>  <Num_Not_Resolved_Atoms>  (682) 
nan

$$$$
CHEMBL3691682
     RDKit          3D

  0  0  0  0  0  0  0  0  0  0999 V3000
M  V30 BEGIN CTAB
M  V30 COUNTS 68 73 0 0 0
M  V30 BEGIN ATOM
M  V30 1 C 3.870675 -1.914781 2.199790 0
M  V30 2 N 5.000016 -1.184337 1.608393 0
M  V30 3 C 6.146473 -2.062486 1.337994 0
M  V30 4 C 5.100799 0.220638 1.259976 0
M  V30 5 O 6.214225 0.610795 0.774353 0
M  V30 6 C 3.824369 0.915402 1.559946 0
M  V30 7 C 3.788396 1.789667 2.642319 0
M  V30 8 C 2.522497 2.324527 2.732109 0
M  V30 9 C 1.845155 3.215829 3.537873 0
M  V30 10 N 0.530867 3.546854 3.345532 0
M  V30 11 C -0.111600 2.964539 2.318812 0
M  V30 12 N -1.465263 3.097593 1.824579 0
M  V30 13 C -2.155385 1.856418 1.530762 0
M  V30 14 C -3.401231 1.730484 0.994194 0
M  V30 15 C -3.980441 0.500117 0.774658 0
M  V30 16 C -3.339092 -0.669237 1.082402 0
M  V30 17 N -3.754424 -1.997082 0.909829 0
M  V30 18 C -3.110869 -3.183299 1.406625 0
M  V30 19 C -2.777701 -4.169142 0.308126 0
M  V30 20 N -3.748369 -4.145728 -0.755220 0
M  V30 21 C -3.425608 -3.173465 -1.783304 0
M  V30 22 C -4.723472 -3.118713 -2.570055 0
M  V30 23 C -5.789479 -3.746414 -1.670016 0
M  V30 24 C -5.061684 -3.700112 -0.329983 0 CFG=2
M  V30 25 C -4.947446 -2.322961 0.197621 0
M  V30 26 O -5.892691 -1.549723 -0.016874 0
M  V30 27 C -2.091515 -0.526943 1.621891 0
M  V30 28 N -1.544261 0.674144 1.828199 0
M  V30 29 N 0.567780 2.103842 1.552316 0
M  V30 30 C 1.850042 1.739442 1.686986 0
M  V30 31 N 2.618364 0.876044 0.955019 0
M  V30 32 C 2.268626 0.082415 -0.206634 0
M  V30 33 C 1.036536 0.471160 -0.908496 0
M  V30 34 C 1.463856 1.324988 -2.077859 0
M  V30 35 C 2.715604 0.591567 -2.535085 0
M  V30 36 C 3.357273 0.104873 -1.244095 0
M  V30 37 H 4.155183 -2.473420 3.108719 0
M  V30 38 H 3.485418 -2.603095 1.408518 0
M  V30 39 H 3.076310 -1.167416 2.418821 0
M  V30 40 H 6.522376 -1.717601 0.344580 0
M  V30 41 H 6.914156 -2.033171 2.113039 0
M  V30 42 H 5.833059 -3.098127 1.186389 0
M  V30 43 H 4.581712 2.051838 3.337022 0
M  V30 44 H 2.353856 3.677324 4.353525 0
M  V30 45 H -1.983672 3.986041 1.662106 0
M  V30 46 H -3.866193 2.665526 0.766118 0
M  V30 47 H -4.955453 0.445918 0.350047 0
M  V30 48 H -2.224536 -2.986921 2.035095 0
M  V30 49 H -3.834345 -3.677325 2.125003 0
M  V30 50 H -1.770433 -4.009693 -0.090851 0
M  V30 51 H -2.806221 -5.184377 0.761771 0
M  V30 52 H -2.559561 -3.459695 -2.404955 0
M  V30 53 H -3.244647 -2.170135 -1.404816 0
M  V30 54 H -4.992087 -2.102322 -2.866474 0
M  V30 55 H -4.607453 -3.749724 -3.479751 0
M  V30 56 H -6.734051 -3.209233 -1.666725 0
M  V30 57 H -5.874762 -4.827508 -1.933746 0
M  V30 58 H -5.435538 -4.440959 0.394412 0
M  V30 59 H -1.339066 -1.252175 1.965121 0
M  V30 60 H 2.129262 -0.963514 0.182548 0
M  V30 61 H 0.631503 -0.478107 -1.395951 0
M  V30 62 H 0.200308 0.866898 -0.352113 0
M  V30 63 H 0.709552 1.215495 -2.884420 0
M  V30 64 H 1.642168 2.371859 -1.848392 0
M  V30 65 H 2.465935 -0.289071 -3.157052 0
M  V30 66 H 3.376305 1.328576 -3.005789 0
M  V30 67 H 4.209123 0.776746 -0.970040 0
M  V30 68 H 3.723545 -0.950408 -1.409677 0
M  V30 END ATOM
M  V30 BEGIN BOND
M  V30 1 1 1 2
M  V30 2 1 2 3
M  V30 3 1 2 4
M  V30 4 2 4 5
M  V30 5 1 4 6
M  V30 6 2 6 7
M  V30 7 1 7 8
M  V30 8 2 8 9
M  V30 9 1 9 10
M  V30 10 2 10 11
M  V30 11 1 11 12
M  V30 12 1 12 13
M  V30 13 2 13 14
M  V30 14 1 14 15
M  V30 15 2 15 16
M  V30 16 1 16 17
M  V30 17 1 17 18
M  V30 18 1 18 19
M  V30 19 1 19 20
M  V30 20 1 20 21
M  V30 21 1 21 22
M  V30 22 1 22 23
M  V30 23 1 23 24
M  V30 24 1 24 25
M  V30 25 2 25 26
M  V30 26 1 16 27
M  V30 27 2 27 28
M  V30 28 1 11 29
M  V30 29 2 29 30
M  V30 30 1 30 31
M  V30 31 1 31 32
M  V30 32 1 32 33
M  V30 33 1 33 34
M  V30 34 1 34 35
M  V30 35 1 35 36
M  V30 36 1 31 6
M  V30 37 1 36 32
M  V30 38 1 30 8
M  V30 39 1 28 13
M  V30 40 1 25 17
M  V30 41 1 24 20
M  V30 42 1 1 37
M  V30 43 1 1 38
M  V30 44 1 1 39
M  V30 45 1 3 40
M  V30 46 1 3 41
M  V30 47 1 3 42
M  V30 48 1 7 43
M  V30 49 1 9 44
M  V30 50 1 12 45
M  V30 51 1 14 46
M  V30 52 1 15 47
M  V30 53 1 18 48
M  V30 54 1 18 49
M  V30 55 1 19 50
M  V30 56 1 19 51
M  V30 57 1 21 52
M  V30 58 1 21 53
M  V30 59 1 22 54
M  V30 60 1 22 55
M  V30 61 1 23 56
M  V30 62 1 23 57
M  V30 63 1 24 58 CFG=1
M  V30 64 1 27 59
M  V30 65 1 32 60
M  V30 66 1 33 61
M  V30 67 1 33 62
M  V30 68 1 34 63
M  V30 69 1 34 64
M  V30 70 1 35 65
M  V30 71 1 35 66
M  V30 72 1 36 67
M  V30 73 1 36 68
M  V30 END BOND
M  V30 END CTAB
M  END
>  <Dataset>  (683) 
ChEMBL_Kinases

>  <Ligand_Instance>  (683) 
nan

>  <PDB_ID>  (683) 
nan

>  <Standardized_SMILES>  (683) 
CN(C)C(=O)c1cc2cnc(Nc3ccc(N4CCN5CCC[C@@H]5C4=O)cn3)nc2n1C1CCCC1

>  <Name>  (683) 
nan

>  <Pocket>  (683) 
nan

>  <ATP_Site>  (683) 
nan

>  <Peripheral>  (683) 
nan

>  <Num_H_Atoms_ProtBoundConf>  (683) 
nan

>  <Num_Resolved_Atoms>  (683) 
nan

>  <Num_Not_Resolved_Atoms>  (683) 
nan

$$$$
CHEMBL3691683
     RDKit          3D

  0  0  0  0  0  0  0  0  0  0999 V3000
M  V30 BEGIN CTAB
M  V30 COUNTS 71 76 0 0 0
M  V30 BEGIN ATOM
M  V30 1 C 7.883759 -0.781880 0.284642 0
M  V30 2 N 6.728736 -0.926724 -0.573753 0
M  V30 3 C 7.129788 -1.560266 -1.789246 0
M  V30 4 C 5.493595 -0.442304 -0.072908 0
M  V30 5 O 5.558719 0.064704 1.084857 0
M  V30 6 C 4.147337 -0.405580 -0.619473 0
M  V30 7 C 3.637770 -1.513102 -1.298317 0
M  V30 8 C 2.344242 -1.174565 -1.680045 0
M  V30 9 C 1.314001 -1.827354 -2.367299 0
M  V30 10 N 0.157797 -1.137159 -2.531582 0
M  V30 11 C -0.033299 0.114754 -2.073405 0
M  V30 12 N -1.291082 0.806602 -2.237826 0
M  V30 13 C -2.146690 0.611829 -1.088198 0
M  V30 14 C -3.404240 1.175077 -1.038828 0
M  V30 15 C -4.253923 1.026389 0.016806 0
M  V30 16 C -3.855815 0.280358 1.097149 0
M  V30 17 C -4.420167 -0.117941 2.379178 0
M  V30 18 O -4.080989 0.324716 3.528028 0
M  V30 19 N -5.446393 -1.113125 2.191287 0
M  V30 20 C -6.091412 -1.813300 1.083949 0
M  V30 21 C -5.980093 -3.300740 1.226632 0 CFG=1
M  V30 22 C -4.554283 -3.717444 1.554865 0
M  V30 23 C -4.412552 -3.465902 3.033762 0
M  V30 24 C -5.839494 -3.158133 3.466027 0 CFG=1
M  V30 25 C -6.046008 -1.650570 3.423406 0
M  V30 26 N -6.680759 -3.734310 2.420558 0
M  V30 27 C -6.702266 -5.185923 2.512444 0
M  V30 28 C -2.582561 -0.298382 1.063129 0
M  V30 29 N -1.786038 -0.117430 -0.006590 0
M  V30 30 N 0.990148 0.694810 -1.422312 0
M  V30 31 C 2.174106 0.097187 -1.208303 0
M  V30 32 N 3.248400 0.581906 -0.565254 0
M  V30 33 C 3.526945 1.836870 0.085589 0
M  V30 34 C 4.623827 2.525769 -0.695021 0
M  V30 35 C 3.839058 2.959182 -1.941103 0
M  V30 36 C 2.552279 3.488478 -1.311856 0
M  V30 37 C 2.408799 2.809657 0.000625 0
M  V30 38 H 8.636987 -0.095303 -0.156960 0
M  V30 39 H 8.368217 -1.773520 0.459610 0
M  V30 40 H 7.630769 -0.396796 1.285902 0
M  V30 41 H 8.052366 -1.094954 -2.233875 0
M  V30 42 H 7.412217 -2.619448 -1.558062 0
M  V30 43 H 6.294814 -1.535913 -2.502382 0
M  V30 44 H 4.073822 -2.470362 -1.527827 0
M  V30 45 H 1.471136 -2.821302 -2.731966 0
M  V30 46 H -1.671790 1.394167 -3.007074 0
M  V30 47 H -3.796989 1.775092 -1.842623 0
M  V30 48 H -5.248751 1.396013 0.201623 0
M  V30 49 H -7.185830 -1.544823 1.164630 0
M  V30 50 H -5.776412 -1.410339 0.112731 0
M  V30 51 H -6.392883 -3.820118 0.355891 0
M  V30 52 H -4.437159 -4.783941 1.316094 0
M  V30 53 H -3.833616 -3.143678 0.932261 0
M  V30 54 H -3.982330 -4.343624 3.548553 0
M  V30 55 H -3.729844 -2.608850 3.256887 0
M  V30 56 H -6.078672 -3.497803 4.473682 0
M  V30 57 H -7.131639 -1.452388 3.346097 0
M  V30 58 H -5.640442 -1.166063 4.316906 0
M  V30 59 H -7.390584 -5.479064 3.326416 0
M  V30 60 H -7.007667 -5.678673 1.584365 0
M  V30 61 H -5.686192 -5.532331 2.830650 0
M  V30 62 H -2.029761 -0.920289 1.763669 0
M  V30 63 H 3.843554 1.675973 1.156021 0
M  V30 64 H 5.019396 3.434558 -0.198021 0
M  V30 65 H 5.407656 1.816810 -1.031842 0
M  V30 66 H 4.371252 3.691772 -2.550020 0
M  V30 67 H 3.594192 2.040338 -2.526614 0
M  V30 68 H 1.676439 3.338259 -2.003889 0
M  V30 69 H 2.686066 4.603152 -1.212698 0
M  V30 70 H 1.408012 2.373062 0.180042 0
M  V30 71 H 2.559697 3.564805 0.809806 0
M  V30 END ATOM
M  V30 BEGIN BOND
M  V30 1 1 1 2
M  V30 2 1 2 3
M  V30 3 1 2 4
M  V30 4 2 4 5
M  V30 5 1 4 6
M  V30 6 2 6 7
M  V30 7 1 7 8
M  V30 8 2 8 9
M  V30 9 1 9 10
M  V30 10 2 10 11
M  V30 11 1 11 12
M  V30 12 1 12 13
M  V30 13 2 13 14
M  V30 14 1 14 15
M  V30 15 2 15 16
M  V30 16 1 16 17
M  V30 17 2 17 18
M  V30 18 1 17 19
M  V30 19 1 19 20
M  V30 20 1 20 21
M  V30 21 1 21 22
M  V30 22 1 22 23
M  V30 23 1 23 24
M  V30 24 1 24 25
M  V30 25 1 24 26
M  V30 26 1 26 27
M  V30 27 1 16 28
M  V30 28 2 28 29
M  V30 29 1 11 30
M  V30 30 2 30 31
M  V30 31 1 31 32
M  V30 32 1 32 33
M  V30 33 1 33 34
M  V30 34 1 34 35
M  V30 35 1 35 36
M  V30 36 1 36 37
M  V30 37 1 32 6
M  V30 38 1 37 33
M  V30 39 1 31 8
M  V30 40 1 29 13
M  V30 41 1 25 19
M  V30 42 1 26 21
M  V30 43 1 1 38
M  V30 44 1 1 39
M  V30 45 1 1 40
M  V30 46 1 3 41
M  V30 47 1 3 42
M  V30 48 1 3 43
M  V30 49 1 7 44
M  V30 50 1 9 45
M  V30 51 1 12 46
M  V30 52 1 14 47
M  V30 53 1 15 48
M  V30 54 1 20 49
M  V30 55 1 20 50
M  V30 56 1 21 51 CFG=3
M  V30 57 1 22 52
M  V30 58 1 22 53
M  V30 59 1 23 54
M  V30 60 1 23 55
M  V30 61 1 24 56 CFG=1
M  V30 62 1 25 57
M  V30 63 1 25 58
M  V30 64 1 27 59
M  V30 65 1 27 60
M  V30 66 1 27 61
M  V30 67 1 28 62
M  V30 68 1 33 63
M  V30 69 1 34 64
M  V30 70 1 34 65
M  V30 71 1 35 66
M  V30 72 1 35 67
M  V30 73 1 36 68
M  V30 74 1 36 69
M  V30 75 1 37 70
M  V30 76 1 37 71
M  V30 END BOND
M  V30 END CTAB
M  END
>  <Dataset>  (684) 
ChEMBL_Kinases

>  <Ligand_Instance>  (684) 
nan

>  <PDB_ID>  (684) 
nan

>  <Standardized_SMILES>  (684) 
CN(C)C(=O)c1cc2cnc(Nc3ccc(C(=O)N4C[C@H]5CC[C@@H](C4)N5C)cn3)nc2n1C1CCCC1

>  <Name>  (684) 
nan

>  <Pocket>  (684) 
nan

>  <ATP_Site>  (684) 
nan

>  <Peripheral>  (684) 
nan

>  <Num_H_Atoms_ProtBoundConf>  (684) 
nan

>  <Num_Resolved_Atoms>  (684) 
nan

>  <Num_Not_Resolved_Atoms>  (684) 
nan

$$$$
CHEMBL3691684
     RDKit          3D

  0  0  0  0  0  0  0  0  0  0999 V3000
M  V30 BEGIN CTAB
M  V30 COUNTS 68 73 0 0 0
M  V30 BEGIN ATOM
M  V30 1 C 3.695596 -0.141443 4.972394 0
M  V30 2 N 4.711035 0.432384 4.137304 0
M  V30 3 C 6.110134 0.141535 4.394497 0
M  V30 4 C 4.457732 1.297353 3.025608 0
M  V30 5 O 5.368836 1.800923 2.288271 0
M  V30 6 C 3.116852 1.681640 2.637190 0
M  V30 7 C 2.708857 2.973080 2.981203 0
M  V30 8 C 1.406124 3.094801 2.522995 0
M  V30 9 C 0.546143 4.172235 2.612457 0
M  V30 10 N -0.680449 4.016823 2.082482 0
M  V30 11 C -1.046630 2.861681 1.493812 0
M  V30 12 N -2.351446 2.775464 0.951094 0
M  V30 13 C -2.970016 1.600911 0.454215 0
M  V30 14 C -4.204798 1.432367 -0.124926 0
M  V30 15 C -4.633936 0.194509 -0.514895 0
M  V30 16 C -3.831844 -0.904940 -0.331837 0
M  V30 17 C -4.151401 -2.275997 -0.683901 0
M  V30 18 O -5.340026 -2.520026 -0.341015 0
M  V30 19 N -3.488186 -3.345937 -1.284435 0
M  V30 20 C -4.194735 -4.572977 -1.442182 0
M  V30 21 C -3.975265 -5.291698 -2.735669 0 CFG=1
M  V30 22 C -4.524562 -4.417976 -3.844184 0
M  V30 23 C -3.481184 -3.291012 -3.839194 0
M  V30 24 C -2.259545 -3.948385 -3.228745 0 CFG=1
M  V30 25 C -2.141168 -3.454703 -1.803061 0
M  V30 26 N -2.578122 -5.363298 -3.111282 0
M  V30 27 C -2.594961 -0.735069 0.248179 0
M  V30 28 N -2.219460 0.499304 0.613070 0
M  V30 29 N -0.155753 1.865198 1.446650 0
M  V30 30 C 1.081644 1.877652 1.923737 0
M  V30 31 N 2.146508 1.028392 2.005048 0
M  V30 32 C 2.123710 -0.288618 1.462919 0
M  V30 33 C 1.443953 -0.307829 0.077781 0
M  V30 34 C 2.397736 0.618374 -0.647269 0
M  V30 35 C 3.731055 -0.011228 -0.280215 0
M  V30 36 C 3.479982 -0.783168 0.999687 0
M  V30 37 H 3.237131 -0.980960 4.377430 0
M  V30 38 H 2.891871 0.560376 5.235761 0
M  V30 39 H 4.158277 -0.574952 5.871638 0
M  V30 40 H 6.807996 0.852707 3.926576 0
M  V30 41 H 6.275748 0.057793 5.489447 0
M  V30 42 H 6.349033 -0.878134 3.970560 0
M  V30 43 H 3.241815 3.783900 3.501691 0
M  V30 44 H 0.829318 5.094714 3.079350 0
M  V30 45 H -2.968752 3.611137 0.880078 0
M  V30 46 H -4.771705 2.333268 -0.234546 0
M  V30 47 H -5.583105 0.044912 -0.962659 0
M  V30 48 H -3.992545 -5.270508 -0.575432 0
M  V30 49 H -5.290684 -4.378664 -1.373639 0
M  V30 50 H -4.449287 -6.271879 -2.658127 0
M  V30 51 H -4.406958 -4.908974 -4.827854 0
M  V30 52 H -5.528393 -4.036043 -3.657231 0
M  V30 53 H -3.918428 -2.508048 -3.204842 0
M  V30 54 H -3.303665 -2.887661 -4.836704 0
M  V30 55 H -1.331791 -3.781298 -3.803097 0
M  V30 56 H -1.659357 -4.257208 -1.170901 0
M  V30 57 H -1.541477 -2.540388 -1.723000 0
M  V30 58 H -1.997208 -5.815821 -2.376118 0
M  V30 59 H -1.911920 -1.576119 0.425192 0
M  V30 60 H 1.595133 -1.025868 2.076847 0
M  V30 61 H 0.423215 0.024225 0.082335 0
M  V30 62 H 1.646594 -1.324420 -0.315541 0
M  V30 63 H 2.228182 0.683106 -1.731414 0
M  V30 64 H 2.358733 1.628056 -0.214176 0
M  V30 65 H 4.505367 0.745003 -0.090118 0
M  V30 66 H 4.014870 -0.693387 -1.120097 0
M  V30 67 H 4.276213 -0.747329 1.722289 0
M  V30 68 H 3.296147 -1.852723 0.653290 0
M  V30 END ATOM
M  V30 BEGIN BOND
M  V30 1 1 1 2
M  V30 2 1 2 3
M  V30 3 1 2 4
M  V30 4 2 4 5
M  V30 5 1 4 6
M  V30 6 2 6 7
M  V30 7 1 7 8
M  V30 8 2 8 9
M  V30 9 1 9 10
M  V30 10 2 10 11
M  V30 11 1 11 12
M  V30 12 1 12 13
M  V30 13 2 13 14
M  V30 14 1 14 15
M  V30 15 2 15 16
M  V30 16 1 16 17
M  V30 17 2 17 18
M  V30 18 1 17 19
M  V30 19 1 19 20
M  V30 20 1 20 21
M  V30 21 1 21 22
M  V30 22 1 22 23
M  V30 23 1 23 24
M  V30 24 1 24 25
M  V30 25 1 24 26
M  V30 26 1 16 27
M  V30 27 2 27 28
M  V30 28 1 11 29
M  V30 29 2 29 30
M  V30 30 1 30 31
M  V30 31 1 31 32
M  V30 32 1 32 33
M  V30 33 1 33 34
M  V30 34 1 34 35
M  V30 35 1 35 36
M  V30 36 1 31 6
M  V30 37 1 36 32
M  V30 38 1 30 8
M  V30 39 1 28 13
M  V30 40 1 25 19
M  V30 41 1 26 21
M  V30 42 1 1 37
M  V30 43 1 1 38
M  V30 44 1 1 39
M  V30 45 1 3 40
M  V30 46 1 3 41
M  V30 47 1 3 42
M  V30 48 1 7 43
M  V30 49 1 9 44
M  V30 50 1 12 45
M  V30 51 1 14 46
M  V30 52 1 15 47
M  V30 53 1 20 48
M  V30 54 1 20 49
M  V30 55 1 21 50 CFG=1
M  V30 56 1 22 51
M  V30 57 1 22 52
M  V30 58 1 23 53
M  V30 59 1 23 54
M  V30 60 1 24 55 CFG=3
M  V30 61 1 25 56
M  V30 62 1 25 57
M  V30 63 1 26 58
M  V30 64 1 27 59
M  V30 65 1 32 60
M  V30 66 1 33 61
M  V30 67 1 33 62
M  V30 68 1 34 63
M  V30 69 1 34 64
M  V30 70 1 35 65
M  V30 71 1 35 66
M  V30 72 1 36 67
M  V30 73 1 36 68
M  V30 END BOND
M  V30 END CTAB
M  END
>  <Dataset>  (685) 
ChEMBL_Kinases

>  <Ligand_Instance>  (685) 
nan

>  <PDB_ID>  (685) 
nan

>  <Standardized_SMILES>  (685) 
CN(C)C(=O)c1cc2cnc(Nc3ccc(C(=O)N4C[C@H]5CC[C@@H](C4)N5)cn3)nc2n1C1CCCC1

>  <Name>  (685) 
nan

>  <Pocket>  (685) 
nan

>  <ATP_Site>  (685) 
nan

>  <Peripheral>  (685) 
nan

>  <Num_H_Atoms_ProtBoundConf>  (685) 
nan

>  <Num_Resolved_Atoms>  (685) 
nan

>  <Num_Not_Resolved_Atoms>  (685) 
nan

$$$$
CHEMBL3691946
     RDKit          3D

  0  0  0  0  0  0  0  0  0  0999 V3000
M  V30 BEGIN CTAB
M  V30 COUNTS 70 74 0 0 0
M  V30 BEGIN ATOM
M  V30 1 C 0.282725 4.756286 5.855495 0
M  V30 2 O 0.300007 3.597969 5.035969 0
M  V30 3 C 0.729183 3.633931 3.730540 0
M  V30 4 O 1.121668 4.691681 3.214308 0
M  V30 5 N 0.711714 2.440949 2.995959 0
M  V30 6 C 1.097058 2.198435 1.642085 0 CFG=2
M  V30 7 C -0.174507 1.814947 0.917244 0 CFG=2
M  V30 8 N -1.137258 1.203095 1.796322 0
M  V30 9 C 0.046429 0.930593 -0.276201 0
M  V30 10 N 1.315873 1.244917 -0.851085 0
M  V30 11 C 1.538027 1.721469 -2.172196 0
M  V30 12 C 2.143177 2.957875 -2.249700 0
M  V30 13 C 2.424366 3.555233 -3.454921 0
M  V30 14 N 2.092692 2.900363 -4.581379 0
M  V30 15 C 1.506864 1.702479 -4.461785 0
M  V30 16 C 1.186850 1.026866 -3.307592 0
M  V30 17 N 0.576876 -0.220822 -3.193499 0
M  V30 18 C 0.122648 -1.122929 -4.185598 0
M  V30 19 O 0.268877 -0.794688 -5.376252 0
M  V30 20 C -0.501451 -2.404330 -3.873725 0
M  V30 21 C -0.923141 -3.238261 -4.885579 0
M  V30 22 C -1.504088 -4.432145 -4.532864 0
M  V30 23 C -1.669087 -4.802687 -3.210669 0
M  V30 24 F -2.233357 -5.964471 -2.789050 0
M  V30 25 C -1.232257 -3.937585 -2.209927 0
M  V30 26 C -1.328442 -4.170973 -0.778389 0
M  V30 27 C -2.530012 -3.675772 -0.273563 0
M  V30 28 F -3.506298 -3.051617 -0.993113 0
M  V30 29 C -2.853004 -3.781929 1.080838 0
M  V30 30 C -1.931176 -4.400213 1.907582 0
M  V30 31 C -2.230572 -4.537834 3.362768 0
M  V30 32 C -3.629741 -5.039341 3.657709 0
M  V30 33 O -3.927775 -3.970389 4.470089 0
M  V30 34 C -2.793831 -3.311172 4.025297 0
M  V30 35 C -0.728500 -4.898384 1.415064 0
M  V30 36 C -0.432829 -4.781618 0.075516 0
M  V30 37 F 0.688189 -5.214951 -0.541838 0
M  V30 38 N -0.661964 -2.765351 -2.567564 0
M  V30 39 C 2.491056 1.063473 -0.017745 0
M  V30 40 C 2.212630 1.238463 1.458163 0 CFG=2
M  V30 41 C 1.984702 -0.108517 2.073365 0
M  V30 42 H 0.279149 4.365421 6.915500 0
M  V30 43 H -0.545170 5.431640 5.645292 0
M  V30 44 H 1.227176 5.330754 5.782653 0
M  V30 45 H 0.372006 1.542585 3.453940 0
M  V30 46 H 1.436802 3.179847 1.233066 0
M  V30 47 H -0.649220 2.758178 0.519006 0
M  V30 48 H -2.086569 1.577639 1.621796 0
M  V30 49 H -1.134060 0.176759 1.604557 0
M  V30 50 H -0.807166 1.045189 -0.967623 0
M  V30 51 H 0.081552 -0.110337 0.105802 0
M  V30 52 H 2.426346 3.518645 -1.369783 0
M  V30 53 H 2.900261 4.527612 -3.517651 0
M  V30 54 H 1.273100 1.244009 -5.411253 0
M  V30 55 H 0.402487 -0.602414 -2.219980 0
M  V30 56 H -0.802489 -2.965700 -5.914097 0
M  V30 57 H -1.865718 -5.151285 -5.248785 0
M  V30 58 H -3.759197 -3.419405 1.517859 0
M  V30 59 H -1.430611 -5.045831 3.940872 0
M  V30 60 H -4.206732 -5.104702 2.711180 0
M  V30 61 H -3.613335 -6.036814 4.149010 0
M  V30 62 H -2.220531 -2.939719 4.899649 0
M  V30 63 H -3.057959 -2.506847 3.311299 0
M  V30 64 H 0.011801 -5.385933 2.033142 0
M  V30 65 H 3.337001 1.681195 -0.386179 0
M  V30 66 H 2.824525 0.006284 -0.239210 0
M  V30 67 H 3.136627 1.736935 1.855362 0
M  V30 68 H 1.995084 -0.921069 1.302710 0
M  V30 69 H 2.833576 -0.404696 2.758219 0
M  V30 70 H 1.010712 -0.215308 2.602074 0
M  V30 END ATOM
M  V30 BEGIN BOND
M  V30 1 1 1 2
M  V30 2 1 2 3
M  V30 3 2 3 4
M  V30 4 1 3 5
M  V30 5 1 5 6
M  V30 6 1 6 7
M  V30 7 1 7 8
M  V30 8 1 7 9
M  V30 9 1 9 10
M  V30 10 1 10 11
M  V30 11 2 11 12
M  V30 12 1 12 13
M  V30 13 2 13 14
M  V30 14 1 14 15
M  V30 15 2 15 16
M  V30 16 1 16 17
M  V30 17 1 17 18
M  V30 18 2 18 19
M  V30 19 1 18 20
M  V30 20 2 20 21
M  V30 21 1 21 22
M  V30 22 2 22 23
M  V30 23 1 23 24
M  V30 24 1 23 25
M  V30 25 1 25 26
M  V30 26 2 26 27
M  V30 27 1 27 28
M  V30 28 1 27 29
M  V30 29 2 29 30
M  V30 30 1 30 31
M  V30 31 1 31 32
M  V30 32 1 32 33
M  V30 33 1 33 34
M  V30 34 1 30 35
M  V30 35 2 35 36
M  V30 36 1 36 37
M  V30 37 2 25 38
M  V30 38 1 10 39
M  V30 39 1 39 40
M  V30 40 1 40 41
M  V30 41 1 40 6
M  V30 42 1 16 11
M  V30 43 1 38 20
M  V30 44 1 36 26
M  V30 45 1 34 31
M  V30 46 1 1 42
M  V30 47 1 1 43
M  V30 48 1 1 44
M  V30 49 1 5 45
M  V30 50 1 6 46 CFG=3
M  V30 51 1 7 47 CFG=3
M  V30 52 1 8 48
M  V30 53 1 8 49
M  V30 54 1 9 50
M  V30 55 1 9 51
M  V30 56 1 12 52
M  V30 57 1 13 53
M  V30 58 1 15 54
M  V30 59 1 17 55
M  V30 60 1 21 56
M  V30 61 1 22 57
M  V30 62 1 29 58
M  V30 63 1 31 59
M  V30 64 1 32 60
M  V30 65 1 32 61
M  V30 66 1 34 62
M  V30 67 1 34 63
M  V30 68 1 35 64
M  V30 69 1 39 65
M  V30 70 1 39 66
M  V30 71 1 40 67 CFG=1
M  V30 72 1 41 68
M  V30 73 1 41 69
M  V30 74 1 41 70
M  V30 END BOND
M  V30 END CTAB
M  END
>  <Dataset>  (686) 
ChEMBL_Kinases

>  <Ligand_Instance>  (686) 
nan

>  <PDB_ID>  (686) 
nan

>  <Standardized_SMILES>  (686) 
COC(=O)N[C@@H]1[C@H](N)CN(c2ccncc2NC(=O)c2ccc(F)c(-c3c(F)cc(C4COC4)cc3F)n2)C[C@@H]1C

>  <Name>  (686) 
nan

>  <Pocket>  (686) 
nan

>  <ATP_Site>  (686) 
nan

>  <Peripheral>  (686) 
nan

>  <Num_H_Atoms_ProtBoundConf>  (686) 
nan

>  <Num_Resolved_Atoms>  (686) 
nan

>  <Num_Not_Resolved_Atoms>  (686) 
nan

$$$$
CHEMBL3691947
     RDKit          3D

  0  0  0  0  0  0  0  0  0  0999 V3000
M  V30 BEGIN CTAB
M  V30 COUNTS 71 75 0 0 0
M  V30 BEGIN ATOM
M  V30 1 C 1.150187 1.294688 3.673668 0
M  V30 2 C 1.207558 0.726948 2.274788 0 CFG=1
M  V30 3 C 0.550524 1.744524 1.372280 0
M  V30 4 C 1.448946 2.143783 0.224380 0 CFG=1
M  V30 5 C 0.708004 3.068652 -0.635060 0
M  V30 6 C 0.756427 4.410782 -0.287141 0
M  V30 7 C 0.046146 5.280129 -1.116903 0
M  V30 8 N -0.660570 4.914578 -2.198852 0
M  V30 9 C -0.722795 3.597558 -2.560663 0
M  V30 10 C -0.030089 2.673780 -1.767234 0
M  V30 11 N -0.035011 1.305683 -2.078616 0
M  V30 12 C 0.538912 0.206099 -2.716968 0
M  V30 13 O 1.582991 0.530298 -3.345755 0
M  V30 14 C -0.017608 -1.128350 -2.646906 0
M  V30 15 C 0.723567 -2.091601 -3.355287 0
M  V30 16 C 0.138389 -3.360694 -3.253786 0
M  V30 17 C -1.005503 -3.681848 -2.567608 0
M  V30 18 F -1.361137 -4.997240 -2.627977 0
M  V30 19 C -1.660876 -2.635589 -1.895790 0
M  V30 20 C -2.846836 -3.074855 -1.194436 0
M  V30 21 C -2.861828 -3.626475 0.095642 0
M  V30 22 F -1.670963 -3.747174 0.728452 0
M  V30 23 C -3.984954 -4.061713 0.786835 0
M  V30 24 C -5.186668 -3.929443 0.124864 0
M  V30 25 C -6.395499 -4.411233 0.835332 0
M  V30 26 C -6.393615 -5.920916 1.057540 0
M  V30 27 O -5.811035 -5.638625 2.310579 0
M  V30 28 C -6.395598 -4.343621 2.327390 0
M  V30 29 C -5.305620 -3.400745 -1.144873 0
M  V30 30 C -4.131721 -2.999270 -1.744447 0
M  V30 31 F -4.195824 -2.470196 -2.998030 0
M  V30 32 N -1.144404 -1.409727 -1.961469 0
M  V30 33 C 2.783609 2.589950 0.667030 0
M  V30 34 C 3.384230 1.727756 1.705386 0 CFG=1
M  V30 35 N 3.389195 2.324425 3.033874 0
M  V30 36 C 2.627307 0.436660 1.835027 0 CFG=1
M  V30 37 O 3.257620 -0.313693 2.785799 0
M  V30 38 C 3.775678 -1.522292 2.406826 0
M  V30 39 C 4.810954 -1.453446 1.326180 0
M  V30 40 C 5.330467 -2.773601 0.971276 0
M  V30 41 N 5.733954 -3.835292 0.689719 0
M  V30 42 H 1.957250 0.942626 4.340094 0
M  V30 43 H 0.180154 0.931438 4.124506 0
M  V30 44 H 1.059623 2.395723 3.640974 0
M  V30 45 H 0.663285 -0.219568 2.256044 0
M  V30 46 H -0.326164 1.250228 0.912840 0
M  V30 47 H 0.167905 2.637054 1.897379 0
M  V30 48 H 1.603312 1.213695 -0.410441 0
M  V30 49 H 1.266445 4.888941 0.536154 0
M  V30 50 H -0.054170 6.371825 -1.031829 0
M  V30 51 H -1.241786 3.150115 -3.398299 0
M  V30 52 H -0.927763 1.089059 -1.528861 0
M  V30 53 H 1.623222 -1.837786 -3.892760 0
M  V30 54 H 0.706195 -4.136570 -3.804218 0
M  V30 55 H -3.873318 -4.466089 1.769431 0
M  V30 56 H -7.312953 -4.103501 0.332566 0
M  V30 57 H -5.749824 -6.485394 0.376480 0
M  V30 58 H -7.398414 -6.366972 1.157740 0
M  V30 59 H -5.766906 -3.599405 2.821790 0
M  V30 60 H -7.437541 -4.455361 2.718771 0
M  V30 61 H -6.242497 -3.294188 -1.665324 0
M  V30 62 H 2.835395 3.682864 0.913687 0
M  V30 63 H 3.453711 2.528609 -0.249047 0
M  V30 64 H 4.459004 1.567058 1.467370 0
M  V30 65 H 4.135378 1.854522 3.625578 0
M  V30 66 H 3.691670 3.325725 3.008517 0
M  V30 67 H 2.631560 -0.086367 0.847572 0
M  V30 68 H 3.054381 -2.302416 2.128549 0
M  V30 69 H 4.312004 -1.921650 3.319231 0
M  V30 70 H 5.675579 -0.819579 1.540435 0
M  V30 71 H 4.366028 -1.012721 0.379608 0
M  V30 END ATOM
M  V30 BEGIN BOND
M  V30 1 1 1 2
M  V30 2 1 2 3
M  V30 3 1 3 4
M  V30 4 1 4 5
M  V30 5 2 5 6
M  V30 6 1 6 7
M  V30 7 2 7 8
M  V30 8 1 8 9
M  V30 9 2 9 10
M  V30 10 1 10 11
M  V30 11 1 11 12
M  V30 12 2 12 13
M  V30 13 1 12 14
M  V30 14 2 14 15
M  V30 15 1 15 16
M  V30 16 2 16 17
M  V30 17 1 17 18
M  V30 18 1 17 19
M  V30 19 1 19 20
M  V30 20 2 20 21
M  V30 21 1 21 22
M  V30 22 1 21 23
M  V30 23 2 23 24
M  V30 24 1 24 25
M  V30 25 1 25 26
M  V30 26 1 26 27
M  V30 27 1 27 28
M  V30 28 1 24 29
M  V30 29 2 29 30
M  V30 30 1 30 31
M  V30 31 2 19 32
M  V30 32 1 4 33
M  V30 33 1 33 34
M  V30 34 1 34 35
M  V30 35 1 34 36
M  V30 36 1 36 37
M  V30 37 1 37 38
M  V30 38 1 38 39
M  V30 39 1 39 40
M  V30 40 3 40 41
M  V30 41 1 36 2
M  V30 42 1 10 5
M  V30 43 1 32 14
M  V30 44 1 30 20
M  V30 45 1 28 25
M  V30 46 1 1 42
M  V30 47 1 1 43
M  V30 48 1 1 44
M  V30 49 1 2 45 CFG=1
M  V30 50 1 3 46
M  V30 51 1 3 47
M  V30 52 1 4 48 CFG=3
M  V30 53 1 6 49
M  V30 54 1 7 50
M  V30 55 1 9 51
M  V30 56 1 11 52
M  V30 57 1 15 53
M  V30 58 1 16 54
M  V30 59 1 23 55
M  V30 60 1 25 56
M  V30 61 1 26 57
M  V30 62 1 26 58
M  V30 63 1 28 59
M  V30 64 1 28 60
M  V30 65 1 29 61
M  V30 66 1 33 62
M  V30 67 1 33 63
M  V30 68 1 34 64 CFG=3
M  V30 69 1 35 65
M  V30 70 1 35 66
M  V30 71 1 36 67 CFG=3
M  V30 72 1 38 68
M  V30 73 1 38 69
M  V30 74 1 39 70
M  V30 75 1 39 71
M  V30 END BOND
M  V30 END CTAB
M  END
>  <Dataset>  (687) 
ChEMBL_Kinases

>  <Ligand_Instance>  (687) 
nan

>  <PDB_ID>  (687) 
nan

>  <Standardized_SMILES>  (687) 
C[C@H]1C[C@@H](c2ccncc2NC(=O)c2ccc(F)c(-c3c(F)cc(C4COC4)cc3F)n2)C[C@@H](N)[C@H]1OCCC#N

>  <Name>  (687) 
nan

>  <Pocket>  (687) 
nan

>  <ATP_Site>  (687) 
nan

>  <Peripheral>  (687) 
nan

>  <Num_H_Atoms_ProtBoundConf>  (687) 
nan

>  <Num_Resolved_Atoms>  (687) 
nan

>  <Num_Not_Resolved_Atoms>  (687) 
nan

$$$$
CHEMBL3692382
     RDKit          3D

  0  0  0  0  0  0  0  0  0  0999 V3000
M  V30 BEGIN CTAB
M  V30 COUNTS 39 41 0 0 0
M  V30 BEGIN ATOM
M  V30 1 C 3.636511 -4.177791 -0.879478 0
M  V30 2 C 2.536901 -3.761461 -1.857440 0
M  V30 3 C 1.438543 -4.808468 -1.845550 0
M  V30 4 O 3.074441 -3.685208 -3.124257 0
M  V30 5 C 2.010617 -2.432871 -1.495226 0
M  V30 6 C 1.573815 -1.349467 -1.181738 0
M  V30 7 C 1.063851 -0.066290 -0.788106 0
M  V30 8 C 1.292505 1.092828 -1.505525 0
M  V30 9 C 0.750831 2.288888 -1.035668 0
M  V30 10 C -0.001396 2.312640 0.127686 0
M  V30 11 C -0.233588 1.138418 0.855366 0
M  V30 12 C 0.313831 -0.036388 0.369882 0
M  V30 13 C -1.004511 0.968284 2.107235 0
M  V30 14 N -0.828160 -0.078211 2.881237 0
M  V30 15 C -1.428639 -0.270265 3.916352 0
M  V30 16 C -1.403912 -1.345275 4.932812 0
M  V30 17 N -2.238793 -1.313820 6.079057 0
M  V30 18 O -0.612405 -2.291771 4.742591 0
M  V30 19 S -2.530941 1.135251 4.098196 0
M  V30 20 C -1.948944 1.912897 2.516734 0
M  V30 21 C -2.390827 3.174435 1.910414 0
M  V30 22 F -3.150088 2.941182 0.799715 0
M  V30 23 F -3.149938 3.890098 2.826730 0
M  V30 24 C -1.233036 4.076692 1.542615 0
M  V30 25 O -0.468276 3.588764 0.456246 0
M  V30 26 H 4.241960 -3.300333 -0.554942 0
M  V30 27 H 4.283987 -4.943133 -1.324484 0
M  V30 28 H 3.098267 -4.584196 0.009993 0
M  V30 29 H 1.189162 -5.130883 -0.818218 0
M  V30 30 H 1.639574 -5.636729 -2.527873 0
M  V30 31 H 0.531607 -4.279174 -2.236647 0
M  V30 32 H 2.781153 -4.417084 -3.734421 0
M  V30 33 H 1.883828 1.036830 -2.408359 0
M  V30 34 H 0.915110 3.210580 -1.578479 0
M  V30 35 H 0.112009 -0.929763 0.962375 0
M  V30 36 H -2.735912 -1.194773 6.974319 0
M  V30 37 H -2.079158 -0.788174 6.985835 0
M  V30 38 H -1.714994 5.017778 1.151220 0
M  V30 39 H -0.628019 4.395158 2.395913 0
M  V30 END ATOM
M  V30 BEGIN BOND
M  V30 1 1 1 2
M  V30 2 1 2 3
M  V30 3 1 2 4
M  V30 4 1 2 5
M  V30 5 3 5 6
M  V30 6 1 6 7
M  V30 7 2 7 8
M  V30 8 1 8 9
M  V30 9 2 9 10
M  V30 10 1 10 11
M  V30 11 2 11 12
M  V30 12 1 11 13
M  V30 13 1 13 14
M  V30 14 2 14 15
M  V30 15 1 15 16
M  V30 16 1 16 17
M  V30 17 2 16 18
M  V30 18 1 15 19
M  V30 19 1 19 20
M  V30 20 1 20 21
M  V30 21 1 21 22
M  V30 22 1 21 23
M  V30 23 1 21 24
M  V30 24 1 24 25
M  V30 25 1 12 7
M  V30 26 2 20 13
M  V30 27 1 25 10
M  V30 28 1 1 26
M  V30 29 1 1 27
M  V30 30 1 1 28
M  V30 31 1 3 29
M  V30 32 1 3 30
M  V30 33 1 3 31
M  V30 34 1 4 32
M  V30 35 1 8 33
M  V30 36 1 9 34
M  V30 37 1 12 35
M  V30 38 1 17 36
M  V30 39 1 17 37
M  V30 40 1 24 38
M  V30 41 1 24 39
M  V30 END BOND
M  V30 END CTAB
M  END
>  <Dataset>  (688) 
ChEMBL_Kinases

>  <Ligand_Instance>  (688) 
nan

>  <PDB_ID>  (688) 
nan

>  <Standardized_SMILES>  (688) 
CC(C)(O)C#Cc1ccc2c(c1)-c1nc(C(N)=O)sc1C(F)(F)CO2

>  <Name>  (688) 
nan

>  <Pocket>  (688) 
nan

>  <ATP_Site>  (688) 
nan

>  <Peripheral>  (688) 
nan

>  <Num_H_Atoms_ProtBoundConf>  (688) 
nan

>  <Num_Resolved_Atoms>  (688) 
nan

>  <Num_Not_Resolved_Atoms>  (688) 
nan

$$$$
CHEMBL3691969
     RDKit          3D

  0  0  0  0  0  0  0  0  0  0999 V3000
M  V30 BEGIN CTAB
M  V30 COUNTS 62 66 0 0 0
M  V30 BEGIN ATOM
M  V30 1 C 3.304511 -1.594124 3.413236 0
M  V30 2 C 2.244652 -0.834175 2.681001 0 CFG=1
M  V30 3 C 2.495964 -0.757818 1.191812 0
M  V30 4 C 1.702853 -1.738336 0.393236 0 CFG=1
M  V30 5 C 2.285750 -1.899251 -0.944576 0
M  V30 6 C 3.261510 -2.868508 -1.150704 0
M  V30 7 C 3.767743 -2.967975 -2.431093 0
M  V30 8 N 3.347300 -2.174379 -3.435890 0
M  V30 9 C 2.389769 -1.227625 -3.220804 0
M  V30 10 C 1.846549 -1.080538 -1.964234 0
M  V30 11 N 0.853505 -0.072834 -1.820962 0
M  V30 12 C 0.796641 1.303535 -1.501883 0
M  V30 13 O 1.830701 1.972627 -1.246207 0
M  V30 14 C -0.554609 1.851984 -1.500567 0
M  V30 15 C -0.666528 3.182562 -1.197498 0
M  V30 16 C -1.887521 3.823044 -1.162162 0
M  V30 17 C -3.025281 3.095744 -1.441389 0
M  V30 18 F -4.302333 3.547774 -1.455811 0
M  V30 19 C -2.903220 1.755573 -1.745764 0
M  V30 20 C -3.962393 0.792858 -2.073024 0
M  V30 21 C -4.502294 0.124911 -1.020447 0
M  V30 22 F -4.144641 0.277771 0.275484 0
M  V30 23 C -5.513430 -0.814411 -1.193705 0
M  V30 24 C -5.959423 -1.050599 -2.496050 0
M  V30 25 C -5.399003 -0.362741 -3.550987 0
M  V30 26 C -4.383401 0.579695 -3.369816 0
M  V30 27 F -3.809928 1.273597 -4.380621 0
M  V30 28 N -1.701726 1.165318 -1.771108 0
M  V30 29 C 1.615892 -3.031041 1.182058 0
M  V30 30 C 0.690400 -2.772028 2.365051 0 CFG=1
M  V30 31 N 0.981247 -3.750671 3.375120 0
M  V30 32 C 0.848762 -1.374062 2.885935 0 CFG=1
M  V30 33 N 0.385837 -1.272016 4.239907 0
M  V30 34 C -0.825725 -0.815591 4.671839 0
M  V30 35 C -0.832916 -0.896559 6.048917 0
M  V30 36 C -1.948375 -0.503592 6.893518 0
M  V30 37 N -2.845680 -0.203149 7.566705 0
M  V30 38 N 0.363443 -1.395271 6.411100 0
M  V30 39 N 1.080014 -1.613693 5.309223 0
M  V30 40 H 3.802328 -1.018912 4.225868 0
M  V30 41 H 4.111578 -1.837430 2.663070 0
M  V30 42 H 2.984569 -2.550715 3.846722 0
M  V30 43 H 2.252745 0.202664 3.081103 0
M  V30 44 H 3.576459 -1.062437 1.066292 0
M  V30 45 H 2.396884 0.265967 0.830826 0
M  V30 46 H 0.642398 -1.406098 0.276918 0
M  V30 47 H 3.596472 -3.503023 -0.343587 0
M  V30 48 H 4.514503 -3.685126 -2.660501 0
M  V30 49 H 2.071275 -0.598589 -4.063051 0
M  V30 50 H 0.022229 -0.664711 -2.039416 0
M  V30 51 H 0.206571 3.788489 -0.971947 0
M  V30 52 H -2.038796 4.857522 -0.932633 0
M  V30 53 H -5.999272 -1.392286 -0.406227 0
M  V30 54 H -6.752699 -1.772438 -2.736027 0
M  V30 55 H -5.692717 -0.492848 -4.583787 0
M  V30 56 H 1.174978 -3.831077 0.534772 0
M  V30 57 H 2.609711 -3.371334 1.487803 0
M  V30 58 H -0.369683 -2.894693 2.055643 0
M  V30 59 H 0.439033 -3.651781 4.240881 0
M  V30 60 H 1.141592 -4.694489 3.015486 0
M  V30 61 H 0.184175 -0.718558 2.263407 0
M  V30 62 H -1.600131 -0.466343 4.003251 0
M  V30 END ATOM
M  V30 BEGIN BOND
M  V30 1 1 1 2
M  V30 2 1 2 3
M  V30 3 1 3 4
M  V30 4 1 4 5
M  V30 5 2 5 6
M  V30 6 1 6 7
M  V30 7 2 7 8
M  V30 8 1 8 9
M  V30 9 2 9 10
M  V30 10 1 10 11
M  V30 11 1 11 12
M  V30 12 2 12 13
M  V30 13 1 12 14
M  V30 14 2 14 15
M  V30 15 1 15 16
M  V30 16 2 16 17
M  V30 17 1 17 18
M  V30 18 1 17 19
M  V30 19 1 19 20
M  V30 20 2 20 21
M  V30 21 1 21 22
M  V30 22 1 21 23
M  V30 23 2 23 24
M  V30 24 1 24 25
M  V30 25 2 25 26
M  V30 26 1 26 27
M  V30 27 2 19 28
M  V30 28 1 4 29
M  V30 29 1 29 30
M  V30 30 1 30 31
M  V30 31 1 30 32
M  V30 32 1 32 33
M  V30 33 1 33 34
M  V30 34 2 34 35
M  V30 35 1 35 36
M  V30 36 3 36 37
M  V30 37 1 35 38
M  V30 38 2 38 39
M  V30 39 1 32 2
M  V30 40 1 39 33
M  V30 41 1 10 5
M  V30 42 1 28 14
M  V30 43 1 26 20
M  V30 44 1 1 40
M  V30 45 1 1 41
M  V30 46 1 1 42
M  V30 47 1 2 43 CFG=1
M  V30 48 1 3 44
M  V30 49 1 3 45
M  V30 50 1 4 46 CFG=3
M  V30 51 1 6 47
M  V30 52 1 7 48
M  V30 53 1 9 49
M  V30 54 1 11 50
M  V30 55 1 15 51
M  V30 56 1 16 52
M  V30 57 1 23 53
M  V30 58 1 24 54
M  V30 59 1 25 55
M  V30 60 1 29 56
M  V30 61 1 29 57
M  V30 62 1 30 58 CFG=3
M  V30 63 1 31 59
M  V30 64 1 31 60
M  V30 65 1 32 61 CFG=3
M  V30 66 1 34 62
M  V30 END BOND
M  V30 END CTAB
M  END
>  <Dataset>  (689) 
ChEMBL_Kinases

>  <Ligand_Instance>  (689) 
nan

>  <PDB_ID>  (689) 
nan

>  <Standardized_SMILES>  (689) 
C[C@H]1C[C@@H](c2ccncc2NC(=O)c2ccc(F)c(-c3c(F)cccc3F)n2)C[C@@H](N)[C@H]1n1cc(C#N)nn1

>  <Name>  (689) 
nan

>  <Pocket>  (689) 
nan

>  <ATP_Site>  (689) 
nan

>  <Peripheral>  (689) 
nan

>  <Num_H_Atoms_ProtBoundConf>  (689) 
nan

>  <Num_Resolved_Atoms>  (689) 
nan

>  <Num_Not_Resolved_Atoms>  (689) 
nan

$$$$
CHEMBL3691972
     RDKit          3D

  0  0  0  0  0  0  0  0  0  0999 V3000
M  V30 BEGIN CTAB
M  V30 COUNTS 71 75 0 0 0
M  V30 BEGIN ATOM
M  V30 1 C 2.220752 0.058463 3.146007 0
M  V30 2 C 1.506779 -0.023196 1.837485 0 CFG=1
M  V30 3 C 2.028038 -1.119057 0.963777 0
M  V30 4 C 1.087455 -2.287630 0.972556 0 CFG=1
M  V30 5 C 1.672523 -3.562335 0.544756 0
M  V30 6 C 2.298631 -4.475385 1.378948 0
M  V30 7 C 2.847097 -5.666541 0.976909 0
M  V30 8 N 2.787854 -6.003156 -0.326569 0
M  V30 9 C 2.200569 -5.183764 -1.216360 0
M  V30 10 C 1.652571 -3.985477 -0.790783 0
M  V30 11 N 1.057687 -3.187162 -1.783337 0
M  V30 12 C 1.439911 -2.152009 -2.678200 0
M  V30 13 O 2.613372 -1.739610 -2.686859 0
M  V30 14 C 0.364859 -1.658357 -3.533296 0
M  V30 15 C 0.723336 -0.653031 -4.405876 0
M  V30 16 C -0.220703 -0.113312 -5.262864 0
M  V30 17 C -1.528782 -0.598243 -5.230029 0
M  V30 18 F -2.560626 -0.170857 -6.006054 0
M  V30 19 C -1.850596 -1.605251 -4.343186 0
M  V30 20 C -3.168491 -2.221036 -4.184257 0
M  V30 21 C -3.622129 -3.335884 -4.878604 0
M  V30 22 F -2.748075 -3.869597 -5.765185 0
M  V30 23 C -4.888656 -3.817199 -4.634651 0
M  V30 24 C -5.729353 -3.234303 -3.724349 0
M  V30 25 C -5.339681 -2.122971 -3.000503 0
M  V30 26 C -4.061924 -1.669596 -3.273201 0
M  V30 27 F -3.645296 -0.566104 -2.569472 0
M  V30 28 N -0.902605 -2.101331 -3.527996 0
M  V30 29 C 0.409759 -2.483197 2.299541 0
M  V30 30 C -0.402203 -1.297079 2.727888 0 CFG=1
M  V30 31 N -0.262663 -1.164492 4.155628 0
M  V30 32 C 0.003684 -0.085834 1.962554 0 CFG=1
M  V30 33 N -0.496653 1.146893 2.581260 0
M  V30 34 C 0.189863 2.254491 2.917968 0
M  V30 35 C -0.721066 3.132938 3.467496 0
M  V30 36 C -0.469818 4.505305 4.001894 0
M  V30 37 C 0.998494 4.854382 3.866626 0
M  V30 38 C -1.253188 5.522854 3.204383 0
M  V30 39 O -0.881443 4.550480 5.331654 0
M  V30 40 N -1.922327 2.531345 3.445355 0
M  V30 41 N -1.779268 1.327398 2.906741 0
M  V30 42 H 3.018206 0.828661 3.098424 0
M  V30 43 H 2.695751 -0.912690 3.423811 0
M  V30 44 H 1.571940 0.343128 3.995912 0
M  V30 45 H 1.709102 0.937294 1.275943 0
M  V30 46 H 2.182975 -0.816396 -0.091878 0
M  V30 47 H 3.038559 -1.370900 1.343140 0
M  V30 48 H 0.320756 -2.044944 0.175575 0
M  V30 49 H 2.373514 -4.259584 2.416077 0
M  V30 50 H 3.321655 -6.336415 1.674051 0
M  V30 51 H 2.165704 -5.476754 -2.257815 0
M  V30 52 H 0.066269 -3.569148 -1.742486 0
M  V30 53 H 1.715714 -0.261238 -4.454222 0
M  V30 54 H -0.031304 0.674592 -5.977794 0
M  V30 55 H -5.221882 -4.688549 -5.188507 0
M  V30 56 H -6.715981 -3.645733 -3.564461 0
M  V30 57 H -5.949117 -1.618989 -2.273413 0
M  V30 58 H 1.190059 -2.737941 3.045536 0
M  V30 59 H -0.233243 -3.384852 2.199137 0
M  V30 60 H -1.488095 -1.547070 2.561148 0
M  V30 61 H 0.054297 -2.064240 4.599364 0
M  V30 62 H -1.113443 -0.807742 4.621910 0
M  V30 63 H -0.420620 -0.112571 0.955912 0
M  V30 64 H 1.245422 2.414750 2.780760 0
M  V30 65 H 1.658380 4.206234 4.445941 0
M  V30 66 H 1.130651 5.934052 4.083016 0
M  V30 67 H 1.250412 4.677738 2.785746 0
M  V30 68 H -2.320440 5.568803 3.531179 0
M  V30 69 H -1.245584 5.257987 2.135023 0
M  V30 70 H -0.733341 6.495075 3.316126 0
M  V30 71 H -1.246727 5.456457 5.488655 0
M  V30 END ATOM
M  V30 BEGIN BOND
M  V30 1 1 1 2
M  V30 2 1 2 3
M  V30 3 1 3 4
M  V30 4 1 4 5
M  V30 5 2 5 6
M  V30 6 1 6 7
M  V30 7 2 7 8
M  V30 8 1 8 9
M  V30 9 2 9 10
M  V30 10 1 10 11
M  V30 11 1 11 12
M  V30 12 2 12 13
M  V30 13 1 12 14
M  V30 14 2 14 15
M  V30 15 1 15 16
M  V30 16 2 16 17
M  V30 17 1 17 18
M  V30 18 1 17 19
M  V30 19 1 19 20
M  V30 20 2 20 21
M  V30 21 1 21 22
M  V30 22 1 21 23
M  V30 23 2 23 24
M  V30 24 1 24 25
M  V30 25 2 25 26
M  V30 26 1 26 27
M  V30 27 2 19 28
M  V30 28 1 4 29
M  V30 29 1 29 30
M  V30 30 1 30 31
M  V30 31 1 30 32
M  V30 32 1 32 33
M  V30 33 1 33 34
M  V30 34 2 34 35
M  V30 35 1 35 36
M  V30 36 1 36 37
M  V30 37 1 36 38
M  V30 38 1 36 39
M  V30 39 1 35 40
M  V30 40 2 40 41
M  V30 41 1 32 2
M  V30 42 1 41 33
M  V30 43 1 10 5
M  V30 44 1 28 14
M  V30 45 1 26 20
M  V30 46 1 1 42
M  V30 47 1 1 43
M  V30 48 1 1 44
M  V30 49 1 2 45 CFG=3
M  V30 50 1 3 46
M  V30 51 1 3 47
M  V30 52 1 4 48 CFG=3
M  V30 53 1 6 49
M  V30 54 1 7 50
M  V30 55 1 9 51
M  V30 56 1 11 52
M  V30 57 1 15 53
M  V30 58 1 16 54
M  V30 59 1 23 55
M  V30 60 1 24 56
M  V30 61 1 25 57
M  V30 62 1 29 58
M  V30 63 1 29 59
M  V30 64 1 30 60 CFG=1
M  V30 65 1 31 61
M  V30 66 1 31 62
M  V30 67 1 32 63 CFG=3
M  V30 68 1 34 64
M  V30 69 1 37 65
M  V30 70 1 37 66
M  V30 71 1 37 67
M  V30 72 1 38 68
M  V30 73 1 38 69
M  V30 74 1 38 70
M  V30 75 1 39 71
M  V30 END BOND
M  V30 END CTAB
M  END
>  <Dataset>  (690) 
ChEMBL_Kinases

>  <Ligand_Instance>  (690) 
nan

>  <PDB_ID>  (690) 
nan

>  <Standardized_SMILES>  (690) 
C[C@H]1C[C@@H](c2ccncc2NC(=O)c2ccc(F)c(-c3c(F)cccc3F)n2)C[C@@H](N)[C@H]1n1cc(C(C)(C)O)nn1

>  <Name>  (690) 
nan

>  <Pocket>  (690) 
nan

>  <ATP_Site>  (690) 
nan

>  <Peripheral>  (690) 
nan

>  <Num_H_Atoms_ProtBoundConf>  (690) 
nan

>  <Num_Resolved_Atoms>  (690) 
nan

>  <Num_Not_Resolved_Atoms>  (690) 
nan

$$$$
CHEMBL3692359
     RDKit          3D

  0  0  0  0  0  0  0  0  0  0999 V3000
M  V30 BEGIN CTAB
M  V30 COUNTS 40 42 0 0 0
M  V30 BEGIN ATOM
M  V30 1 C 1.239804 -6.172632 0.759947 0
M  V30 2 C 1.926082 -5.116188 -0.085323 0
M  V30 3 C 3.251889 -4.802010 0.534249 0
M  V30 4 O 2.120554 -5.570229 -1.401351 0
M  V30 5 C 1.075715 -3.909116 -0.212765 0
M  V30 6 C 0.395947 -2.915808 -0.303726 0
M  V30 7 C -0.418546 -1.733781 -0.391826 0
M  V30 8 C -1.575817 -1.715374 -1.143702 0
M  V30 9 C -2.362462 -0.570105 -1.227402 0
M  V30 10 C -1.952028 0.550100 -0.535634 0
M  V30 11 C -0.780865 0.542341 0.229370 0
M  V30 12 C 0.012975 -0.608223 0.315790 0
M  V30 13 C -0.211901 1.645056 1.018496 0
M  V30 14 N 1.082745 1.710133 1.379849 0
M  V30 15 C 1.224017 2.843226 2.080073 0
M  V30 16 C 2.479187 3.305377 2.664589 0
M  V30 17 N 2.537301 4.516748 3.390061 0
M  V30 18 O 3.492645 2.594779 2.500479 0
M  V30 19 C -0.015271 3.446267 2.124625 0
M  V30 20 N -0.922378 2.699260 1.459813 0
M  V30 21 C -2.329593 3.009131 1.290399 0
M  V30 22 C -2.770172 2.935378 -0.135737 0
M  V30 23 O -2.816708 1.650969 -0.687255 0
M  V30 24 H 0.137187 -6.112738 0.730345 0
M  V30 25 H 1.514835 -6.093771 1.828621 0
M  V30 26 H 1.637837 -7.159322 0.426556 0
M  V30 27 H 3.528512 -5.575543 1.271698 0
M  V30 28 H 4.078246 -4.740568 -0.200743 0
M  V30 29 H 3.134303 -3.824540 1.082418 0
M  V30 30 H 2.248231 -6.547536 -1.338799 0
M  V30 31 H -1.820939 -2.620754 -1.646019 0
M  V30 32 H -3.253975 -0.555283 -1.806371 0
M  V30 33 H 0.904455 -0.571039 0.914367 0
M  V30 34 H 2.434113 5.524875 3.143927 0
M  V30 35 H 2.725761 4.389575 4.404976 0
M  V30 36 H -0.230914 4.391825 2.625699 0
M  V30 37 H -2.530454 4.032325 1.646807 0
M  V30 38 H -2.947693 2.290787 1.890591 0
M  V30 39 H -3.834711 3.307271 -0.145738 0
M  V30 40 H -2.204437 3.680691 -0.745528 0
M  V30 END ATOM
M  V30 BEGIN BOND
M  V30 1 1 1 2
M  V30 2 1 2 3
M  V30 3 1 2 4
M  V30 4 1 2 5
M  V30 5 3 5 6
M  V30 6 1 6 7
M  V30 7 2 7 8
M  V30 8 1 8 9
M  V30 9 2 9 10
M  V30 10 1 10 11
M  V30 11 2 11 12
M  V30 12 1 11 13
M  V30 13 2 13 14
M  V30 14 1 14 15
M  V30 15 1 15 16
M  V30 16 1 16 17
M  V30 17 2 16 18
M  V30 18 2 15 19
M  V30 19 1 19 20
M  V30 20 1 20 21
M  V30 21 1 21 22
M  V30 22 1 22 23
M  V30 23 1 12 7
M  V30 24 1 20 13
M  V30 25 1 23 10
M  V30 26 1 1 24
M  V30 27 1 1 25
M  V30 28 1 1 26
M  V30 29 1 3 27
M  V30 30 1 3 28
M  V30 31 1 3 29
M  V30 32 1 4 30
M  V30 33 1 8 31
M  V30 34 1 9 32
M  V30 35 1 12 33
M  V30 36 1 17 34
M  V30 37 1 17 35
M  V30 38 1 19 36
M  V30 39 1 21 37
M  V30 40 1 21 38
M  V30 41 1 22 39
M  V30 42 1 22 40
M  V30 END BOND
M  V30 END CTAB
M  END
>  <Dataset>  (691) 
ChEMBL_Kinases

>  <Ligand_Instance>  (691) 
nan

>  <PDB_ID>  (691) 
nan

>  <Standardized_SMILES>  (691) 
CC(C)(O)C#Cc1ccc2c(c1)-c1nc(C(N)=O)cn1CCO2

>  <Name>  (691) 
nan

>  <Pocket>  (691) 
nan

>  <ATP_Site>  (691) 
nan

>  <Peripheral>  (691) 
nan

>  <Num_H_Atoms_ProtBoundConf>  (691) 
nan

>  <Num_Resolved_Atoms>  (691) 
nan

>  <Num_Not_Resolved_Atoms>  (691) 
nan

$$$$
CHEMBL3692360
     RDKit          3D

  0  0  0  0  0  0  0  0  0  0999 V3000
M  V30 BEGIN CTAB
M  V30 COUNTS 39 41 0 0 0
M  V30 BEGIN ATOM
M  V30 1 C 1.755175 -5.549142 -0.873412 0
M  V30 2 C 2.283403 -4.159420 -1.192100 0
M  V30 3 C 3.558174 -3.999285 -0.384323 0
M  V30 4 O 2.509647 -3.977521 -2.557923 0
M  V30 5 C 1.288037 -3.132548 -0.815774 0
M  V30 6 C 0.461015 -2.295549 -0.519157 0
M  V30 7 C -0.532216 -1.318043 -0.154055 0
M  V30 8 C -1.804065 -1.441367 -0.677218 0
M  V30 9 C -2.760268 -0.508167 -0.331411 0
M  V30 10 C -2.421777 0.519321 0.524441 0
M  V30 11 C -1.137233 0.662180 1.066011 0
M  V30 12 C -0.202485 -0.287263 0.701176 0
M  V30 13 C -0.636596 1.706104 1.989355 0
M  V30 14 N 0.667145 1.779589 2.126050 0
M  V30 15 C 1.146831 2.679122 2.924983 0
M  V30 16 C 2.469242 3.126964 3.383931 0
M  V30 17 N 3.492083 2.351877 2.776565 0
M  V30 18 O 2.650140 4.052690 4.188512 0
M  V30 19 S -0.355806 3.576320 3.609941 0
M  V30 20 C -1.510470 2.578825 2.688756 0
M  V30 21 C -2.941794 2.672407 2.686396 0
M  V30 22 C -3.577233 2.594053 1.313267 0
M  V30 23 O -3.530978 1.329923 0.729679 0
M  V30 24 H 0.649856 -5.548186 -0.742477 0
M  V30 25 H 2.039784 -6.231949 -1.702635 0
M  V30 26 H 2.252304 -5.994058 0.032394 0
M  V30 27 H 3.223894 -3.754998 0.664794 0
M  V30 28 H 4.183822 -3.173255 -0.743151 0
M  V30 29 H 4.082118 -4.970984 -0.446761 0
M  V30 30 H 2.607892 -4.904206 -2.931188 0
M  V30 31 H -2.102577 -2.233808 -1.350079 0
M  V30 32 H -3.757910 -0.604258 -0.741323 0
M  V30 33 H 0.799876 -0.185916 1.116490 0
M  V30 34 H 3.909124 1.391398 2.830636 0
M  V30 35 H 4.099128 2.765362 2.007160 0
M  V30 36 H -3.202911 3.706415 3.058641 0
M  V30 37 H -3.378369 1.941863 3.400610 0
M  V30 38 H -3.037373 3.306205 0.672610 0
M  V30 39 H -4.651662 2.888500 1.416704 0
M  V30 END ATOM
M  V30 BEGIN BOND
M  V30 1 1 1 2
M  V30 2 1 2 3
M  V30 3 1 2 4
M  V30 4 1 2 5
M  V30 5 3 5 6
M  V30 6 1 6 7
M  V30 7 2 7 8
M  V30 8 1 8 9
M  V30 9 2 9 10
M  V30 10 1 10 11
M  V30 11 2 11 12
M  V30 12 1 11 13
M  V30 13 1 13 14
M  V30 14 2 14 15
M  V30 15 1 15 16
M  V30 16 1 16 17
M  V30 17 2 16 18
M  V30 18 1 15 19
M  V30 19 1 19 20
M  V30 20 1 20 21
M  V30 21 1 21 22
M  V30 22 1 22 23
M  V30 23 1 12 7
M  V30 24 2 20 13
M  V30 25 1 23 10
M  V30 26 1 1 24
M  V30 27 1 1 25
M  V30 28 1 1 26
M  V30 29 1 3 27
M  V30 30 1 3 28
M  V30 31 1 3 29
M  V30 32 1 4 30
M  V30 33 1 8 31
M  V30 34 1 9 32
M  V30 35 1 12 33
M  V30 36 1 17 34
M  V30 37 1 17 35
M  V30 38 1 21 36
M  V30 39 1 21 37
M  V30 40 1 22 38
M  V30 41 1 22 39
M  V30 END BOND
M  V30 END CTAB
M  END
>  <Dataset>  (692) 
ChEMBL_Kinases

>  <Ligand_Instance>  (692) 
nan

>  <PDB_ID>  (692) 
nan

>  <Standardized_SMILES>  (692) 
CC(C)(O)C#Cc1ccc2c(c1)-c1nc(C(N)=O)sc1CCO2

>  <Name>  (692) 
nan

>  <Pocket>  (692) 
nan

>  <ATP_Site>  (692) 
nan

>  <Peripheral>  (692) 
nan

>  <Num_H_Atoms_ProtBoundConf>  (692) 
nan

>  <Num_Resolved_Atoms>  (692) 
nan

>  <Num_Not_Resolved_Atoms>  (692) 
nan

$$$$
CHEMBL3692362
     RDKit          3D

  0  0  0  0  0  0  0  0  0  0999 V3000
M  V30 BEGIN CTAB
M  V30 COUNTS 40 42 0 0 0
M  V30 BEGIN ATOM
M  V30 1 C -2.853376 -4.023232 -1.965846 0
M  V30 2 C -1.365322 -4.283530 -1.843013 0
M  V30 3 C -1.109176 -5.384312 -0.844401 0
M  V30 4 O -0.920840 -4.724303 -3.084760 0
M  V30 5 C -0.652049 -3.048326 -1.502370 0
M  V30 6 C -0.047431 -2.039775 -1.228294 0
M  V30 7 C 0.692144 -0.845485 -0.909810 0
M  V30 8 C 0.506683 -0.311634 0.368758 0
M  V30 9 C 1.237678 0.830517 0.621067 0
M  V30 10 C 2.099298 1.452985 -0.261353 0
M  V30 11 C 2.251407 0.889297 -1.515122 0
M  V30 12 C 1.543290 -0.256127 -1.823142 0
M  V30 13 F 1.710931 -0.789845 -3.062272 0
M  V30 14 O 2.846663 2.611241 -0.018839 0
M  V30 15 C 2.969841 3.439238 1.098171 0
M  V30 16 C 2.957580 2.734358 2.423988 0
M  V30 17 N 1.715480 2.094163 2.743861 0
M  V30 18 C 1.061763 2.220732 3.935389 0
M  V30 19 C -0.106620 1.483523 3.938270 0
M  V30 20 C -1.065755 1.373056 5.032677 0
M  V30 21 N -2.213104 0.557146 4.832642 0
M  V30 22 O -0.832934 2.001675 6.095313 0
M  V30 23 N -0.158473 0.901308 2.725403 0
M  V30 24 C 0.929743 1.260497 1.999908 0
M  V30 25 H -3.176706 -3.239620 -1.259381 0
M  V30 26 H -3.065300 -3.721121 -3.003841 0
M  V30 27 H -3.405866 -4.947379 -1.704989 0
M  V30 28 H -0.018638 -5.487502 -0.706294 0
M  V30 29 H -1.526555 -5.143543 0.159764 0
M  V30 30 H -1.513308 -6.318040 -1.249169 0
M  V30 31 H 0.073422 -4.765656 -3.160181 0
M  V30 32 H -0.144830 -0.735008 1.113116 0
M  V30 33 H 2.929330 1.402857 -2.170614 0
M  V30 34 H 2.195058 4.245604 1.120517 0
M  V30 35 H 3.946626 3.961268 1.022755 0
M  V30 36 H 3.849624 2.051288 2.497471 0
M  V30 37 H 3.139365 3.521375 3.187024 0
M  V30 38 H 1.374627 2.799984 4.777526 0
M  V30 39 H -2.682090 -0.309741 5.229015 0
M  V30 40 H -2.968702 0.693620 4.096882 0
M  V30 END ATOM
M  V30 BEGIN BOND
M  V30 1 1 1 2
M  V30 2 1 2 3
M  V30 3 1 2 4
M  V30 4 1 2 5
M  V30 5 3 5 6
M  V30 6 1 6 7
M  V30 7 2 7 8
M  V30 8 1 8 9
M  V30 9 2 9 10
M  V30 10 1 10 11
M  V30 11 2 11 12
M  V30 12 1 12 13
M  V30 13 1 10 14
M  V30 14 1 14 15
M  V30 15 1 15 16
M  V30 16 1 16 17
M  V30 17 1 17 18
M  V30 18 2 18 19
M  V30 19 1 19 20
M  V30 20 1 20 21
M  V30 21 2 20 22
M  V30 22 1 19 23
M  V30 23 2 23 24
M  V30 24 1 12 7
M  V30 25 1 24 17
M  V30 26 1 24 9
M  V30 27 1 1 25
M  V30 28 1 1 26
M  V30 29 1 1 27
M  V30 30 1 3 28
M  V30 31 1 3 29
M  V30 32 1 3 30
M  V30 33 1 4 31
M  V30 34 1 8 32
M  V30 35 1 11 33
M  V30 36 1 15 34
M  V30 37 1 15 35
M  V30 38 1 16 36
M  V30 39 1 16 37
M  V30 40 1 18 38
M  V30 41 1 21 39
M  V30 42 1 21 40
M  V30 END BOND
M  V30 END CTAB
M  END
>  <Dataset>  (693) 
ChEMBL_Kinases

>  <Ligand_Instance>  (693) 
nan

>  <PDB_ID>  (693) 
nan

>  <Standardized_SMILES>  (693) 
CC(C)(O)C#Cc1cc2c(cc1F)OCCn1cc(C(N)=O)nc1-2

>  <Name>  (693) 
nan

>  <Pocket>  (693) 
nan

>  <ATP_Site>  (693) 
nan

>  <Peripheral>  (693) 
nan

>  <Num_H_Atoms_ProtBoundConf>  (693) 
nan

>  <Num_Resolved_Atoms>  (693) 
nan

>  <Num_Not_Resolved_Atoms>  (693) 
nan

$$$$
CHEMBL3692369
     RDKit          3D

  0  0  0  0  0  0  0  0  0  0999 V3000
M  V30 BEGIN CTAB
M  V30 COUNTS 40 42 0 0 0
M  V30 BEGIN ATOM
M  V30 1 C 0.561610 -6.041292 -0.766684 0
M  V30 2 C 1.654091 -4.986735 -0.880761 0
M  V30 3 C 2.585487 -5.213645 0.304543 0
M  V30 4 O 2.329611 -5.061557 -2.091112 0
M  V30 5 C 1.014617 -3.667147 -0.804711 0
M  V30 6 C 0.465924 -2.582090 -0.743166 0
M  V30 7 C -0.204430 -1.309446 -0.674071 0
M  V30 8 C -1.183151 -1.016771 -1.604660 0
M  V30 9 C -1.832983 0.200394 -1.548561 0
M  V30 10 C -1.494896 1.105246 -0.564257 0
M  V30 11 C -0.504243 0.823597 0.387329 0
M  V30 12 C 0.125288 -0.403750 0.301197 0
M  V30 13 C -0.017337 1.670001 1.504154 0
M  V30 14 N 0.638611 1.121396 2.500912 0
M  V30 15 C 1.071646 1.749066 3.458085 0
M  V30 16 C 1.811703 1.439026 4.676062 0
M  V30 17 N 2.178905 2.418067 5.622587 0
M  V30 18 O 2.047900 0.218929 4.726151 0
M  V30 19 S 0.576787 3.526238 3.118058 0
M  V30 20 C -0.239091 3.026558 1.521059 0
M  V30 21 C -0.916542 3.931960 0.597235 0
M  V30 22 O -1.108637 5.159752 1.228087 0
M  V30 23 C -2.282897 3.441607 0.175690 0
M  V30 24 O -2.235412 2.283753 -0.637898 0
M  V30 25 H 0.000881 -6.171633 -1.713741 0
M  V30 26 H -0.155033 -5.650319 0.003642 0
M  V30 27 H 0.965680 -6.983314 -0.352985 0
M  V30 28 H 2.322081 -6.110535 0.894333 0
M  V30 29 H 2.449192 -4.348321 0.989442 0
M  V30 30 H 3.649876 -5.173571 -0.004879 0
M  V30 31 H 1.905629 -5.754971 -2.673471 0
M  V30 32 H -1.461224 -1.701993 -2.375362 0
M  V30 33 H -2.602915 0.460798 -2.260752 0
M  V30 34 H 0.899874 -0.652442 1.026442 0
M  V30 35 H 2.812024 3.196346 5.274146 0
M  V30 36 H 2.026454 2.657388 6.635403 0
M  V30 37 H -0.329062 4.094263 -0.316147 0
M  V30 38 H -1.680371 4.985800 2.033006 0
M  V30 39 H -2.870651 3.223188 1.115113 0
M  V30 40 H -2.771517 4.247714 -0.373632 0
M  V30 END ATOM
M  V30 BEGIN BOND
M  V30 1 1 1 2
M  V30 2 1 2 3
M  V30 3 1 2 4
M  V30 4 1 2 5
M  V30 5 3 5 6
M  V30 6 1 6 7
M  V30 7 2 7 8
M  V30 8 1 8 9
M  V30 9 2 9 10
M  V30 10 1 10 11
M  V30 11 2 11 12
M  V30 12 1 11 13
M  V30 13 1 13 14
M  V30 14 2 14 15
M  V30 15 1 15 16
M  V30 16 1 16 17
M  V30 17 2 16 18
M  V30 18 1 15 19
M  V30 19 1 19 20
M  V30 20 1 20 21
M  V30 21 1 21 22
M  V30 22 1 21 23
M  V30 23 1 23 24
M  V30 24 1 12 7
M  V30 25 2 20 13
M  V30 26 1 24 10
M  V30 27 1 1 25
M  V30 28 1 1 26
M  V30 29 1 1 27
M  V30 30 1 3 28
M  V30 31 1 3 29
M  V30 32 1 3 30
M  V30 33 1 4 31
M  V30 34 1 8 32
M  V30 35 1 9 33
M  V30 36 1 12 34
M  V30 37 1 17 35
M  V30 38 1 17 36
M  V30 39 1 21 37
M  V30 40 1 22 38
M  V30 41 1 23 39
M  V30 42 1 23 40
M  V30 END BOND
M  V30 END CTAB
M  END
>  <Dataset>  (694) 
ChEMBL_Kinases

>  <Ligand_Instance>  (694) 
nan

>  <PDB_ID>  (694) 
nan

>  <Standardized_SMILES>  (694) 
CC(C)(O)C#Cc1ccc2c(c1)-c1nc(C(N)=O)sc1C(O)CO2

>  <Name>  (694) 
nan

>  <Pocket>  (694) 
nan

>  <ATP_Site>  (694) 
nan

>  <Peripheral>  (694) 
nan

>  <Num_H_Atoms_ProtBoundConf>  (694) 
nan

>  <Num_Resolved_Atoms>  (694) 
nan

>  <Num_Not_Resolved_Atoms>  (694) 
nan

$$$$
CHEMBL3692374
     RDKit          3D

  0  0  0  0  0  0  0  0  0  0999 V3000
M  V30 BEGIN CTAB
M  V30 COUNTS 41 44 0 0 0
M  V30 BEGIN ATOM
M  V30 1 N 4.051276 -5.401582 1.088779 0
M  V30 2 C 3.471214 -4.134086 0.802338 0
M  V30 3 O 4.205225 -3.284749 0.201136 0
M  V30 4 C 2.093044 -3.867892 1.200160 0
M  V30 5 C 1.166194 -4.657586 1.848246 0
M  V30 6 N 0.000737 -3.965729 2.001308 0
M  V30 7 C 0.247371 -2.768813 1.441212 0
M  V30 8 N 1.485448 -2.691581 0.959553 0
M  V30 9 C -0.758754 -1.687286 1.383112 0
M  V30 10 C -0.223764 -0.586459 0.718307 0
M  V30 11 C -0.984039 0.566646 0.534987 0
M  V30 12 C -0.456916 1.731041 -0.153154 0
M  V30 13 C -0.017290 2.709441 -0.706983 0
M  V30 14 C 0.498831 3.914432 -1.377413 0
M  V30 15 O -0.139083 4.150355 -2.572950 0
M  V30 16 C 0.614272 5.117834 -0.470514 0
M  V30 17 C 2.105741 4.830183 -0.271805 0
M  V30 18 C 2.026341 3.862325 -1.446128 0
M  V30 19 C -2.274858 0.578280 1.031616 0
M  V30 20 F -3.089318 1.665270 0.896791 0
M  V30 21 C -2.835584 -0.494716 1.694866 0
M  V30 22 C -2.071571 -1.615667 1.863387 0
M  V30 23 O -2.644710 -2.709403 2.540069 0
M  V30 24 C -2.009058 -3.638182 3.398234 0
M  V30 25 C -1.117267 -4.610404 2.662108 0
M  V30 26 H 4.486529 -6.316318 1.344492 0
M  V30 27 H 4.088209 -6.159345 0.347201 0
M  V30 28 H 1.390696 -5.685557 2.170230 0
M  V30 29 H 0.796546 -0.612285 0.332656 0
M  V30 30 H -0.705506 4.956412 -2.600607 0
M  V30 31 H 0.093734 5.026592 0.496157 0
M  V30 32 H 0.428496 6.081222 -1.018295 0
M  V30 33 H 2.783659 5.648997 -0.535555 0
M  V30 34 H 2.343934 4.339387 0.707135 0
M  V30 35 H 2.454851 4.245649 -2.388125 0
M  V30 36 H 2.471772 2.884167 -1.185294 0
M  V30 37 H -3.813361 -0.564470 2.103671 0
M  V30 38 H -1.404287 -3.152801 4.178115 0
M  V30 39 H -2.779291 -4.228984 3.905291 0
M  V30 40 H -1.702380 -5.273959 1.974790 0
M  V30 41 H -0.724252 -5.296430 3.455957 0
M  V30 END ATOM
M  V30 BEGIN BOND
M  V30 1 1 1 2
M  V30 2 2 2 3
M  V30 3 1 2 4
M  V30 4 2 4 5
M  V30 5 1 5 6
M  V30 6 1 6 7
M  V30 7 2 7 8
M  V30 8 1 7 9
M  V30 9 2 9 10
M  V30 10 1 10 11
M  V30 11 1 11 12
M  V30 12 3 12 13
M  V30 13 1 13 14
M  V30 14 1 14 15
M  V30 15 1 14 16
M  V30 16 1 16 17
M  V30 17 1 17 18
M  V30 18 2 11 19
M  V30 19 1 19 20
M  V30 20 1 19 21
M  V30 21 2 21 22
M  V30 22 1 22 23
M  V30 23 1 23 24
M  V30 24 1 24 25
M  V30 25 1 8 4
M  V30 26 1 22 9
M  V30 27 1 25 6
M  V30 28 1 18 14
M  V30 29 1 1 26
M  V30 30 1 1 27
M  V30 31 1 5 28
M  V30 32 1 10 29
M  V30 33 1 15 30
M  V30 34 1 16 31
M  V30 35 1 16 32
M  V30 36 1 17 33
M  V30 37 1 17 34
M  V30 38 1 18 35
M  V30 39 1 18 36
M  V30 40 1 21 37
M  V30 41 1 24 38
M  V30 42 1 24 39
M  V30 43 1 25 40
M  V30 44 1 25 41
M  V30 END BOND
M  V30 END CTAB
M  END
>  <Dataset>  (695) 
ChEMBL_Kinases

>  <Ligand_Instance>  (695) 
nan

>  <PDB_ID>  (695) 
nan

>  <Standardized_SMILES>  (695) 
NC(=O)c1cn2c(n1)-c1cc(C#CC3(O)CCC3)c(F)cc1OCC2

>  <Name>  (695) 
nan

>  <Pocket>  (695) 
nan

>  <ATP_Site>  (695) 
nan

>  <Peripheral>  (695) 
nan

>  <Num_H_Atoms_ProtBoundConf>  (695) 
nan

>  <Num_Resolved_Atoms>  (695) 
nan

>  <Num_Not_Resolved_Atoms>  (695) 
nan

$$$$
CHEMBL3692380
     RDKit          3D

  0  0  0  0  0  0  0  0  0  0999 V3000
M  V30 BEGIN CTAB
M  V30 COUNTS 53 56 0 0 0
M  V30 BEGIN ATOM
M  V30 1 C 5.600497 -4.270895 2.261339 0
M  V30 2 C 5.840170 -3.191145 1.219888 0
M  V30 3 C 7.178179 -2.555085 1.390272 0
M  V30 4 O 5.823705 -3.774950 -0.063137 0
M  V30 5 C 4.837906 -2.120060 1.303500 0
M  V30 6 C 4.002322 -1.251973 1.359905 0
M  V30 7 C 3.006811 -0.189655 1.441131 0
M  V30 8 C 1.821360 -0.390616 0.740465 0
M  V30 9 C 0.879176 0.625971 0.821800 0
M  V30 10 C 1.105821 1.771924 1.556302 0
M  V30 11 C 2.287276 1.944539 2.239369 0
M  V30 12 C 3.257845 0.946902 2.182764 0
M  V30 13 F 4.454269 1.047344 2.835173 0
M  V30 14 O 0.252833 2.880865 1.732389 0
M  V30 15 C -0.934616 3.081890 0.961251 0
M  V30 16 C -1.913618 1.927276 1.129769 0
M  V30 17 N -1.612115 0.892189 0.159653 0
M  V30 18 C -0.363373 0.357040 0.060607 0
M  V30 19 N -0.331524 -0.575817 -0.920187 0
M  V30 20 C -1.582192 -0.586913 -1.404172 0
M  V30 21 C -1.867828 -1.450636 -2.521454 0
M  V30 22 N -2.737261 -1.928142 -3.501350 0
M  V30 23 O -0.969019 -2.223861 -2.941584 0
M  V30 24 C -2.411359 0.297370 -0.771075 0
M  V30 25 C -3.853624 0.595888 -0.891184 0
M  V30 26 C -4.736964 -0.269604 -0.078250 0
M  V30 27 C -5.289592 0.305699 1.079824 0
M  V30 28 C -6.137673 -0.284411 1.995629 0
M  V30 29 C -6.493443 -1.594166 1.758376 0
M  V30 30 C -6.000553 -2.238433 0.648157 0
M  V30 31 C -5.167606 -1.560692 -0.194016 0
M  V30 32 F -4.705565 -2.213791 -1.271666 0
M  V30 33 H 6.498408 -4.853640 2.465137 0
M  V30 34 H 5.213023 -3.832808 3.203586 0
M  V30 35 H 4.772994 -4.914659 1.865749 0
M  V30 36 H 7.856035 -2.716886 0.507686 0
M  V30 37 H 7.159136 -1.482399 1.664443 0
M  V30 38 H 7.703818 -3.076502 2.228414 0
M  V30 39 H 5.477212 -4.699693 0.018250 0
M  V30 40 H 1.599047 -1.269845 0.152825 0
M  V30 41 H 2.497586 2.824719 2.821313 0
M  V30 42 H -0.719454 3.155012 -0.124626 0
M  V30 43 H -1.390466 4.045973 1.253059 0
M  V30 44 H -1.801998 1.455097 2.126592 0
M  V30 45 H -2.956227 2.269614 1.042878 0
M  V30 46 H -3.373512 -2.727207 -3.522622 0
M  V30 47 H -2.916623 -1.541161 -4.444422 0
M  V30 48 H -4.174380 0.540559 -1.976367 0
M  V30 49 H -4.079464 1.656204 -0.614422 0
M  V30 50 H -5.086445 1.346298 1.372743 0
M  V30 51 H -6.532546 0.206744 2.870060 0
M  V30 52 H -7.145265 -2.139697 2.410026 0
M  V30 53 H -6.255055 -3.263756 0.427812 0
M  V30 END ATOM
M  V30 BEGIN BOND
M  V30 1 1 1 2
M  V30 2 1 2 3
M  V30 3 1 2 4
M  V30 4 1 2 5
M  V30 5 3 5 6
M  V30 6 1 6 7
M  V30 7 2 7 8
M  V30 8 1 8 9
M  V30 9 2 9 10
M  V30 10 1 10 11
M  V30 11 2 11 12
M  V30 12 1 12 13
M  V30 13 1 10 14
M  V30 14 1 14 15
M  V30 15 1 15 16
M  V30 16 1 16 17
M  V30 17 1 17 18
M  V30 18 2 18 19
M  V30 19 1 19 20
M  V30 20 1 20 21
M  V30 21 1 21 22
M  V30 22 2 21 23
M  V30 23 2 20 24
M  V30 24 1 24 25
M  V30 25 1 25 26
M  V30 26 2 26 27
M  V30 27 1 27 28
M  V30 28 2 28 29
M  V30 29 1 29 30
M  V30 30 2 30 31
M  V30 31 1 31 32
M  V30 32 1 12 7
M  V30 33 1 24 17
M  V30 34 1 31 26
M  V30 35 1 18 9
M  V30 36 1 1 33
M  V30 37 1 1 34
M  V30 38 1 1 35
M  V30 39 1 3 36
M  V30 40 1 3 37
M  V30 41 1 3 38
M  V30 42 1 4 39
M  V30 43 1 8 40
M  V30 44 1 11 41
M  V30 45 1 15 42
M  V30 46 1 15 43
M  V30 47 1 16 44
M  V30 48 1 16 45
M  V30 49 1 22 46
M  V30 50 1 22 47
M  V30 51 1 25 48
M  V30 52 1 25 49
M  V30 53 1 27 50
M  V30 54 1 28 51
M  V30 55 1 29 52
M  V30 56 1 30 53
M  V30 END BOND
M  V30 END CTAB
M  END
>  <Dataset>  (696) 
ChEMBL_Kinases

>  <Ligand_Instance>  (696) 
nan

>  <PDB_ID>  (696) 
nan

>  <Standardized_SMILES>  (696) 
CC(C)(O)C#Cc1cc2c(cc1F)OCCn1c-2nc(C(N)=O)c1Cc1ccccc1F

>  <Name>  (696) 
nan

>  <Pocket>  (696) 
nan

>  <ATP_Site>  (696) 
nan

>  <Peripheral>  (696) 
nan

>  <Num_H_Atoms_ProtBoundConf>  (696) 
nan

>  <Num_Resolved_Atoms>  (696) 
nan

>  <Num_Not_Resolved_Atoms>  (696) 
nan

$$$$
CHEMBL3691948
     RDKit          3D

  0  0  0  0  0  0  0  0  0  0999 V3000
M  V30 BEGIN CTAB
M  V30 COUNTS 68 73 0 0 0
M  V30 BEGIN ATOM
M  V30 1 C 0.414776 -0.040114 3.508438 0
M  V30 2 C 1.601635 0.029962 2.593635 0 CFG=1
M  V30 3 C 1.200097 0.285254 1.156310 0
M  V30 4 N 1.850346 1.492811 0.695682 0
M  V30 5 C 2.574104 1.459781 -0.520303 0
M  V30 6 C 3.930620 1.743376 -0.627678 0
M  V30 7 C 4.610754 1.702311 -1.833358 0
M  V30 8 N 3.917441 1.369332 -2.960371 0
M  V30 9 C 2.604185 1.096014 -2.848677 0
M  V30 10 C 1.872006 1.122812 -1.660164 0
M  V30 11 N 0.490702 0.806069 -1.726724 0
M  V30 12 C -0.613663 1.665505 -1.936988 0
M  V30 13 O -0.444354 2.885827 -2.095581 0
M  V30 14 C -1.952356 1.055865 -1.958789 0
M  V30 15 C -3.046876 1.870888 -2.161976 0
M  V30 16 C -4.311945 1.321504 -2.186364 0
M  V30 17 C -4.485812 -0.035460 -2.008882 0
M  V30 18 F -5.649177 -0.731746 -2.004349 0
M  V30 19 C -3.375849 -0.829673 -1.807388 0
M  V30 20 C -3.291707 -2.273972 -1.596804 0
M  V30 21 C -3.154605 -3.210762 -2.623988 0
M  V30 22 F -3.096540 -2.743430 -3.894958 0
M  V30 23 C -3.087619 -4.545685 -2.277341 0
M  V30 24 C -3.149999 -4.979594 -0.977993 0
M  V30 25 C -3.078771 -6.403436 -0.605199 0
M  V30 26 C -3.879410 -7.370633 -1.413223 0
M  V30 27 O -2.766206 -8.241174 -1.412461 0
M  V30 28 C -1.916990 -7.153907 -1.249777 0
M  V30 29 C -3.285676 -4.021231 0.008246 0
M  V30 30 C -3.358948 -2.658229 -0.276924 0
M  V30 31 F -3.491957 -1.780614 0.749850 0
M  V30 32 N -2.144638 -0.261792 -1.788338 0
M  V30 33 C 1.694278 2.664986 1.552864 0
M  V30 34 C 2.281511 2.425477 2.927430 0 CFG=1
M  V30 35 N 1.339865 2.903853 3.892047 0
M  V30 36 C 2.665103 0.993427 3.043259 0 CFG=1
M  V30 37 N 3.112627 0.605762 4.342255 0
M  V30 38 C 3.343835 1.328432 5.435692 0
M  V30 39 C 3.768202 0.478180 6.446634 0
M  V30 40 N 3.769796 -0.734399 5.897054 0
M  V30 41 N 3.382899 -0.657553 4.655842 0
M  V30 42 H 0.731528 -0.534291 4.463101 0
M  V30 43 H -0.315841 -0.720983 3.014256 0
M  V30 44 H -0.032681 0.913914 3.779861 0
M  V30 45 H 2.077146 -0.973707 2.631387 0
M  V30 46 H 0.101331 0.460831 1.157038 0
M  V30 47 H 1.417525 -0.580584 0.511608 0
M  V30 48 H 4.457508 2.004730 0.280987 0
M  V30 49 H 5.658875 1.925874 -1.888422 0
M  V30 50 H 2.153125 0.842651 -3.812730 0
M  V30 51 H 0.322488 -0.226941 -1.594482 0
M  V30 52 H -2.952903 2.930127 -2.303871 0
M  V30 53 H -5.227953 1.875093 -2.338277 0
M  V30 54 H -2.982187 -5.260099 -3.072921 0
M  V30 55 H -3.141556 -6.596838 0.468201 0
M  V30 56 H -4.094255 -7.101107 -2.451941 0
M  V30 57 H -4.780424 -7.789954 -0.929893 0
M  V30 58 H -1.542253 -6.675705 -2.176555 0
M  V30 59 H -1.109676 -7.392718 -0.519212 0
M  V30 60 H -3.339123 -4.324508 1.055405 0
M  V30 61 H 2.145786 3.577944 1.092354 0
M  V30 62 H 0.600145 2.858424 1.592035 0
M  V30 63 H 3.243104 3.011785 2.989766 0
M  V30 64 H 1.709231 3.801699 4.330061 0
M  V30 65 H 0.434108 3.244301 3.446496 0
M  V30 66 H 3.528657 0.841520 2.345702 0
M  V30 67 H 3.227141 2.385725 5.534492 0
M  V30 68 H 4.052245 0.687928 7.479678 0
M  V30 END ATOM
M  V30 BEGIN BOND
M  V30 1 1 1 2
M  V30 2 1 2 3
M  V30 3 1 3 4
M  V30 4 1 4 5
M  V30 5 2 5 6
M  V30 6 1 6 7
M  V30 7 2 7 8
M  V30 8 1 8 9
M  V30 9 2 9 10
M  V30 10 1 10 11
M  V30 11 1 11 12
M  V30 12 2 12 13
M  V30 13 1 12 14
M  V30 14 2 14 15
M  V30 15 1 15 16
M  V30 16 2 16 17
M  V30 17 1 17 18
M  V30 18 1 17 19
M  V30 19 1 19 20
M  V30 20 2 20 21
M  V30 21 1 21 22
M  V30 22 1 21 23
M  V30 23 2 23 24
M  V30 24 1 24 25
M  V30 25 1 25 26
M  V30 26 1 26 27
M  V30 27 1 27 28
M  V30 28 1 24 29
M  V30 29 2 29 30
M  V30 30 1 30 31
M  V30 31 2 19 32
M  V30 32 1 4 33
M  V30 33 1 33 34
M  V30 34 1 34 35
M  V30 35 1 34 36
M  V30 36 1 36 37
M  V30 37 1 37 38
M  V30 38 2 38 39
M  V30 39 1 39 40
M  V30 40 2 40 41
M  V30 41 1 36 2
M  V30 42 1 41 37
M  V30 43 1 10 5
M  V30 44 1 32 14
M  V30 45 1 30 20
M  V30 46 1 28 25
M  V30 47 1 1 42
M  V30 48 1 1 43
M  V30 49 1 1 44
M  V30 50 1 2 45 CFG=3
M  V30 51 1 3 46
M  V30 52 1 3 47
M  V30 53 1 6 48
M  V30 54 1 7 49
M  V30 55 1 9 50
M  V30 56 1 11 51
M  V30 57 1 15 52
M  V30 58 1 16 53
M  V30 59 1 23 54
M  V30 60 1 25 55
M  V30 61 1 26 56
M  V30 62 1 26 57
M  V30 63 1 28 58
M  V30 64 1 28 59
M  V30 65 1 29 60
M  V30 66 1 33 61
M  V30 67 1 33 62
M  V30 68 1 34 63 CFG=3
M  V30 69 1 35 64
M  V30 70 1 35 65
M  V30 71 1 36 66 CFG=3
M  V30 72 1 38 67
M  V30 73 1 39 68
M  V30 END BOND
M  V30 END CTAB
M  END
>  <Dataset>  (697) 
ChEMBL_Kinases

>  <Ligand_Instance>  (697) 
nan

>  <PDB_ID>  (697) 
nan

>  <Standardized_SMILES>  (697) 
C[C@H]1CN(c2ccncc2NC(=O)c2ccc(F)c(-c3c(F)cc(C4COC4)cc3F)n2)C[C@@H](N)[C@H]1n1ccnn1

>  <Name>  (697) 
nan

>  <Pocket>  (697) 
nan

>  <ATP_Site>  (697) 
nan

>  <Peripheral>  (697) 
nan

>  <Num_H_Atoms_ProtBoundConf>  (697) 
nan

>  <Num_Resolved_Atoms>  (697) 
nan

>  <Num_Not_Resolved_Atoms>  (697) 
nan

$$$$
CHEMBL3689262
     RDKit          3D

  0  0  0  0  0  0  0  0  0  0999 V3000
M  V30 BEGIN CTAB
M  V30 COUNTS 67 70 0 0 0
M  V30 BEGIN ATOM
M  V30 1 C 6.061888 -6.179929 3.873964 0
M  V30 2 N 5.208561 -5.063774 3.685061 0
M  V30 3 C 3.831626 -5.452667 3.710958 0
M  V30 4 C 5.578913 -4.134274 2.662521 0
M  V30 5 C 5.491187 -4.689603 1.254622 0
M  V30 6 C 5.917487 -3.617869 0.259118 0
M  V30 7 O 5.041266 -2.513499 0.405412 0
M  V30 8 C 5.179798 -1.361597 -0.363347 0
M  V30 9 C 6.218600 -1.266508 -1.307197 0
M  V30 10 C 6.473811 -0.181443 -2.136234 0
M  V30 11 N 5.606446 0.858706 -1.976874 0
M  V30 12 C 4.603212 0.817994 -1.095078 0
M  V30 13 C 3.774948 1.927306 -1.027479 0
M  V30 14 C 2.712502 1.883575 -0.108610 0
M  V30 15 C 2.499401 0.766005 0.703939 0
M  V30 16 C 1.334075 0.903745 1.546800 0
M  V30 17 C 0.351143 1.012441 2.231693 0
M  V30 18 C -0.876263 1.156865 3.057055 0
M  V30 19 N -2.064256 0.979221 2.320538 0
M  V30 20 C -3.405097 0.933975 2.253449 0
M  V30 21 O -3.840392 1.216407 3.439579 0
M  V30 22 C -4.456153 0.701775 1.384556 0
M  V30 23 C -3.662057 0.037477 0.260503 0
M  V30 24 C -4.124434 -0.471655 -1.001879 0
M  V30 25 C -5.534788 -0.335328 -1.236774 0
M  V30 26 N -6.319298 0.264000 -0.248105 0
M  V30 27 C -7.718819 0.510206 -0.336116 0
M  V30 28 C -7.914271 1.772338 -1.134364 0
M  V30 29 C -7.963677 3.067519 -0.669661 0
M  V30 30 C -8.127900 4.068772 -1.597536 0
M  V30 31 C -8.245764 3.847112 -2.965818 0
M  V30 32 F -8.407691 4.821553 -3.884246 0
M  V30 33 C -8.200115 2.565187 -3.444171 0
M  V30 34 F -8.309263 2.273221 -4.756590 0
M  V30 35 C -8.032362 1.536085 -2.505822 0
M  V30 36 C -5.380669 0.483991 0.573224 0
M  V30 37 O -6.126005 1.081972 1.580608 0
M  V30 38 C 3.319158 -0.327248 0.636319 0
M  V30 39 C 4.356075 -0.270256 -0.270395 0
M  V30 40 H 6.739112 -6.026487 4.731875 0
M  V30 41 H 6.730706 -6.377811 3.000167 0
M  V30 42 H 5.447366 -7.092056 4.133503 0
M  V30 43 H 3.222072 -4.624296 3.242603 0
M  V30 44 H 3.422088 -5.549147 4.737723 0
M  V30 45 H 3.582744 -6.345365 3.104609 0
M  V30 46 H 6.570873 -3.684297 2.845813 0
M  V30 47 H 4.808496 -3.306810 2.708621 0
M  V30 48 H 4.411537 -4.956425 1.060883 0
M  V30 49 H 6.053449 -5.619118 1.090075 0
M  V30 50 H 5.790227 -4.019030 -0.770529 0
M  V30 51 H 6.963631 -3.350680 0.371556 0
M  V30 52 H 6.906085 -2.114221 -1.415430 0
M  V30 53 H 7.296828 -0.184692 -2.836641 0
M  V30 54 H 3.933069 2.800498 -1.670781 0
M  V30 55 H 2.117636 2.781717 -0.109075 0
M  V30 56 H -0.748614 0.432368 3.893671 0
M  V30 57 H -0.861043 2.195072 3.482766 0
M  V30 58 H -1.703918 0.807448 1.340355 0
M  V30 59 H -2.563298 -0.253410 0.075074 0
M  V30 60 H -3.575049 -0.958008 -1.843240 0
M  V30 61 H -6.032974 -0.691018 -2.153186 0
M  V30 62 H -8.184280 0.670375 0.670193 0
M  V30 63 H -8.227630 -0.304843 -0.853592 0
M  V30 64 H -7.870358 3.179007 0.397610 0
M  V30 65 H -8.164157 5.089457 -1.260068 0
M  V30 66 H -8.000256 0.520099 -2.931356 0
M  V30 67 H 3.095597 -1.140343 1.287956 0
M  V30 END ATOM
M  V30 BEGIN BOND
M  V30 1 1 1 2
M  V30 2 1 2 3
M  V30 3 1 2 4
M  V30 4 1 4 5
M  V30 5 1 5 6
M  V30 6 1 6 7
M  V30 7 1 7 8
M  V30 8 2 8 9
M  V30 9 1 9 10
M  V30 10 2 10 11
M  V30 11 1 11 12
M  V30 12 2 12 13
M  V30 13 1 13 14
M  V30 14 2 14 15
M  V30 15 1 15 16
M  V30 16 3 16 17
M  V30 17 1 17 18
M  V30 18 1 18 19
M  V30 19 1 19 20
M  V30 20 2 20 21
M  V30 21 1 20 22
M  V30 22 2 22 23
M  V30 23 1 23 24
M  V30 24 2 24 25
M  V30 25 1 25 26
M  V30 26 1 26 27
M  V30 27 1 27 28
M  V30 28 2 28 29
M  V30 29 1 29 30
M  V30 30 2 30 31
M  V30 31 1 31 32
M  V30 32 1 31 33
M  V30 33 1 33 34
M  V30 34 2 33 35
M  V30 35 1 26 36
M  V30 36 2 36 37
M  V30 37 1 15 38
M  V30 38 2 38 39
M  V30 39 1 39 8
M  V30 40 1 39 12
M  V30 41 1 36 22
M  V30 42 1 35 28
M  V30 43 1 1 40
M  V30 44 1 1 41
M  V30 45 1 1 42
M  V30 46 1 3 43
M  V30 47 1 3 44
M  V30 48 1 3 45
M  V30 49 1 4 46
M  V30 50 1 4 47
M  V30 51 1 5 48
M  V30 52 1 5 49
M  V30 53 1 6 50
M  V30 54 1 6 51
M  V30 55 1 9 52
M  V30 56 1 10 53
M  V30 57 1 13 54
M  V30 58 1 14 55
M  V30 59 1 18 56
M  V30 60 1 18 57
M  V30 61 1 19 58
M  V30 62 1 23 59
M  V30 63 1 24 60
M  V30 64 1 25 61
M  V30 65 1 27 62
M  V30 66 1 27 63
M  V30 67 1 29 64
M  V30 68 1 30 65
M  V30 69 1 35 66
M  V30 70 1 38 67
M  V30 END BOND
M  V30 END CTAB
M  END
>  <Dataset>  (698) 
ChEMBL_Kinases

>  <Ligand_Instance>  (698) 
nan

>  <PDB_ID>  (698) 
nan

>  <Standardized_SMILES>  (698) 
CN(C)CCCOc1ccnc2ccc(C#CCNC(=O)c3cccn(Cc4ccc(F)c(F)c4)c3=O)cc12

>  <Name>  (698) 
nan

>  <Pocket>  (698) 
nan

>  <ATP_Site>  (698) 
nan

>  <Peripheral>  (698) 
nan

>  <Num_H_Atoms_ProtBoundConf>  (698) 
nan

>  <Num_Resolved_Atoms>  (698) 
nan

>  <Num_Not_Resolved_Atoms>  (698) 
nan

$$$$
CHEMBL3689261
     RDKit          3D

  0  0  0  0  0  0  0  0  0  0999 V3000
M  V30 BEGIN CTAB
M  V30 COUNTS 53 56 0 0 0
M  V30 BEGIN ATOM
M  V30 1 C 2.112179 -2.425737 3.581732 0
M  V30 2 O 2.381478 -1.194292 2.979393 0
M  V30 3 C 3.435061 -0.379599 3.352762 0
M  V30 4 C 4.345157 -0.668661 4.352322 0
M  V30 5 C 5.369614 0.205900 4.659184 0
M  V30 6 N 5.468618 1.368791 3.953442 0
M  V30 7 C 4.595894 1.675413 2.974857 0
M  V30 8 C 4.732085 2.863610 2.284656 0
M  V30 9 C 3.869993 3.245696 1.263993 0
M  V30 10 C 2.846201 2.373223 0.956296 0
M  V30 11 C 1.875359 2.629108 -0.074171 0
M  V30 12 C 1.057762 2.824597 -0.940111 0
M  V30 13 C 0.038109 3.048443 -1.993043 0
M  V30 14 N -0.827246 1.864527 -2.094533 0
M  V30 15 C -1.464259 1.655972 -0.842571 0
M  V30 16 O -1.073689 2.570318 -0.036327 0
M  V30 17 C -2.399183 0.615345 -0.475025 0
M  V30 18 C -2.856683 0.675478 0.844267 0
M  V30 19 C -3.739703 -0.237108 1.332073 0
M  V30 20 C -4.237648 -1.265872 0.578231 0
M  V30 21 N -3.785575 -1.305777 -0.686360 0
M  V30 22 C -4.248235 -2.354469 -1.572392 0
M  V30 23 C -3.408315 -3.562713 -1.538367 0
M  V30 24 C -2.309520 -3.859612 -2.316618 0
M  V30 25 C -1.635245 -5.035650 -2.157154 0
M  V30 26 C -2.008838 -5.983282 -1.220428 0
M  V30 27 F -1.248279 -7.087554 -1.183021 0
M  V30 28 C -3.110270 -5.700111 -0.431054 0
M  V30 29 F -3.450001 -6.647474 0.475644 0
M  V30 30 C -3.793393 -4.513296 -0.589626 0
M  V30 31 C -2.918068 -0.424012 -1.195195 0
M  V30 32 O -2.516152 -0.485689 -2.371949 0
M  V30 33 C 2.710401 1.187559 1.645113 0
M  V30 34 C 3.567559 0.808643 2.659265 0
M  V30 35 H 1.057879 -2.731136 3.468342 0
M  V30 36 H 2.722815 -3.254369 3.143443 0
M  V30 37 H 2.330190 -2.358267 4.669271 0
M  V30 38 H 4.221937 -1.611226 4.886459 0
M  V30 39 H 6.074984 -0.042213 5.450314 0
M  V30 40 H 5.550350 3.536485 2.547257 0
M  V30 41 H 3.951304 4.166215 0.707946 0
M  V30 42 H 0.589238 3.222444 -2.921378 0
M  V30 43 H -0.606251 3.905691 -1.765232 0
M  V30 44 H -1.045835 1.194201 -2.863117 0
M  V30 45 H -2.521088 1.457170 1.529126 0
M  V30 46 H -4.076403 -0.161789 2.365168 0
M  V30 47 H -4.935940 -1.981661 0.975760 0
M  V30 48 H -5.302326 -2.599364 -1.340145 0
M  V30 49 H -4.262588 -1.998246 -2.630167 0
M  V30 50 H -2.045971 -3.114595 -3.026510 0
M  V30 51 H -0.772677 -5.182140 -2.823583 0
M  V30 52 H -4.633658 -4.422786 0.093028 0
M  V30 53 H 1.914937 0.479891 1.426336 0
M  V30 END ATOM
M  V30 BEGIN BOND
M  V30 1 1 1 2
M  V30 2 1 2 3
M  V30 3 2 3 4
M  V30 4 1 4 5
M  V30 5 2 5 6
M  V30 6 1 6 7
M  V30 7 2 7 8
M  V30 8 1 8 9
M  V30 9 2 9 10
M  V30 10 1 10 11
M  V30 11 3 11 12
M  V30 12 1 12 13
M  V30 13 1 13 14
M  V30 14 1 14 15
M  V30 15 2 15 16
M  V30 16 1 15 17
M  V30 17 2 17 18
M  V30 18 1 18 19
M  V30 19 2 19 20
M  V30 20 1 20 21
M  V30 21 1 21 22
M  V30 22 1 22 23
M  V30 23 2 23 24
M  V30 24 1 24 25
M  V30 25 2 25 26
M  V30 26 1 26 27
M  V30 27 1 26 28
M  V30 28 1 28 29
M  V30 29 2 28 30
M  V30 30 1 21 31
M  V30 31 2 31 32
M  V30 32 1 10 33
M  V30 33 2 33 34
M  V30 34 1 34 3
M  V30 35 1 34 7
M  V30 36 1 31 17
M  V30 37 1 30 23
M  V30 38 1 1 35
M  V30 39 1 1 36
M  V30 40 1 1 37
M  V30 41 1 4 38
M  V30 42 1 5 39
M  V30 43 1 8 40
M  V30 44 1 9 41
M  V30 45 1 13 42
M  V30 46 1 13 43
M  V30 47 1 14 44
M  V30 48 1 18 45
M  V30 49 1 19 46
M  V30 50 1 20 47
M  V30 51 1 22 48
M  V30 52 1 22 49
M  V30 53 1 24 50
M  V30 54 1 25 51
M  V30 55 1 30 52
M  V30 56 1 33 53
M  V30 END BOND
M  V30 END CTAB
M  END
>  <Dataset>  (699) 
ChEMBL_Kinases

>  <Ligand_Instance>  (699) 
nan

>  <PDB_ID>  (699) 
nan

>  <Standardized_SMILES>  (699) 
COc1ccnc2ccc(C#CCNC(=O)c3cccn(Cc4ccc(F)c(F)c4)c3=O)cc12

>  <Name>  (699) 
nan

>  <Pocket>  (699) 
nan

>  <ATP_Site>  (699) 
nan

>  <Peripheral>  (699) 
nan

>  <Num_H_Atoms_ProtBoundConf>  (699) 
nan

>  <Num_Resolved_Atoms>  (699) 
nan

>  <Num_Not_Resolved_Atoms>  (699) 
nan

$$$$
CHEMBL3689260
     RDKit          3D

  0  0  0  0  0  0  0  0  0  0999 V3000
M  V30 BEGIN CTAB
M  V30 COUNTS 52 55 0 0 0
M  V30 BEGIN ATOM
M  V30 1 C 3.033192 -2.994476 2.276669 0
M  V30 2 O 3.021506 -1.698025 1.706612 0
M  V30 3 C 4.211880 -0.997952 1.692241 0
M  V30 4 C 5.399472 -1.523326 2.213312 0
M  V30 5 C 6.529678 -0.732084 2.144297 0
M  V30 6 N 6.535452 0.504109 1.604884 0
M  V30 7 C 5.410324 1.056691 1.087229 0
M  V30 8 C 5.373494 2.319010 0.525948 0
M  V30 9 C 4.204790 2.845641 0.008968 0
M  V30 10 C 3.047880 2.092982 0.054555 0
M  V30 11 C 1.785152 2.549194 -0.454647 0
M  V30 12 C 0.724383 2.924033 -0.892257 0
M  V30 13 C -0.586766 3.363378 -1.428605 0
M  V30 14 N -1.534425 2.262297 -1.249951 0
M  V30 15 C -1.632936 1.966797 0.135701 0
M  V30 16 O -0.858916 2.762719 0.770685 0
M  V30 17 C -2.457165 0.946142 0.766640 0
M  V30 18 C -2.325424 0.911201 2.161027 0
M  V30 19 N -3.019032 0.025416 2.894585 0
M  V30 20 C -3.865947 -0.865475 2.350893 0
M  V30 21 N -3.999712 -0.840446 1.013879 0
M  V30 22 C -4.882993 -1.752776 0.314536 0
M  V30 23 C -4.252649 -3.010636 -0.090501 0
M  V30 24 C -3.621767 -3.258046 -1.269348 0
M  V30 25 C -3.037171 -4.463796 -1.614007 0
M  V30 26 C -3.102893 -5.486611 -0.688329 0
M  V30 27 F -2.523753 -6.668803 -1.039207 0
M  V30 28 C -3.723478 -5.311158 0.523256 0
M  V30 29 F -3.758137 -6.345013 1.390010 0
M  V30 30 C -4.296290 -4.069677 0.815016 0
M  V30 31 C -3.330172 0.023906 0.235723 0
M  V30 32 O -3.420224 0.086192 -1.006470 0
M  V30 33 C 3.073944 0.829960 0.613501 0
M  V30 34 C 4.243316 0.284679 1.138804 0
M  V30 35 H 2.034140 -3.414813 2.444847 0
M  V30 36 H 3.646876 -3.640337 1.591599 0
M  V30 37 H 3.506564 -2.945399 3.295852 0
M  V30 38 H 5.399461 -2.520579 2.649608 0
M  V30 39 H 7.424700 -1.179656 2.559584 0
M  V30 40 H 6.287286 2.884518 0.502621 0
M  V30 41 H 4.157338 3.826709 -0.431872 0
M  V30 42 H -0.431520 3.536982 -2.500335 0
M  V30 43 H -0.975935 4.244141 -0.898843 0
M  V30 44 H -2.101679 1.705152 -1.912804 0
M  V30 45 H -1.694132 1.545955 2.787537 0
M  V30 46 H -4.454655 -1.604383 2.875997 0
M  V30 47 H -5.338499 -1.225329 -0.559530 0
M  V30 48 H -5.749440 -1.983356 0.996855 0
M  V30 49 H -3.566848 -2.475430 -1.988385 0
M  V30 50 H -2.551905 -4.573794 -2.582227 0
M  V30 51 H -4.758542 -4.033756 1.790042 0
M  V30 52 H 2.166517 0.220783 0.657491 0
M  V30 END ATOM
M  V30 BEGIN BOND
M  V30 1 1 1 2
M  V30 2 1 2 3
M  V30 3 2 3 4
M  V30 4 1 4 5
M  V30 5 2 5 6
M  V30 6 1 6 7
M  V30 7 2 7 8
M  V30 8 1 8 9
M  V30 9 2 9 10
M  V30 10 1 10 11
M  V30 11 3 11 12
M  V30 12 1 12 13
M  V30 13 1 13 14
M  V30 14 1 14 15
M  V30 15 2 15 16
M  V30 16 1 15 17
M  V30 17 2 17 18
M  V30 18 1 18 19
M  V30 19 2 19 20
M  V30 20 1 20 21
M  V30 21 1 21 22
M  V30 22 1 22 23
M  V30 23 2 23 24
M  V30 24 1 24 25
M  V30 25 2 25 26
M  V30 26 1 26 27
M  V30 27 1 26 28
M  V30 28 1 28 29
M  V30 29 2 28 30
M  V30 30 1 21 31
M  V30 31 2 31 32
M  V30 32 1 10 33
M  V30 33 2 33 34
M  V30 34 1 34 3
M  V30 35 1 34 7
M  V30 36 1 31 17
M  V30 37 1 30 23
M  V30 38 1 1 35
M  V30 39 1 1 36
M  V30 40 1 1 37
M  V30 41 1 4 38
M  V30 42 1 5 39
M  V30 43 1 8 40
M  V30 44 1 9 41
M  V30 45 1 13 42
M  V30 46 1 13 43
M  V30 47 1 14 44
M  V30 48 1 18 45
M  V30 49 1 20 46
M  V30 50 1 22 47
M  V30 51 1 22 48
M  V30 52 1 24 49
M  V30 53 1 25 50
M  V30 54 1 30 51
M  V30 55 1 33 52
M  V30 END BOND
M  V30 END CTAB
M  END
>  <Dataset>  (700) 
ChEMBL_Kinases

>  <Ligand_Instance>  (700) 
nan

>  <PDB_ID>  (700) 
nan

>  <Standardized_SMILES>  (700) 
COc1ccnc2ccc(C#CCNC(=O)c3cncn(Cc4ccc(F)c(F)c4)c3=O)cc12

>  <Name>  (700) 
nan

>  <Pocket>  (700) 
nan

>  <ATP_Site>  (700) 
nan

>  <Peripheral>  (700) 
nan

>  <Num_H_Atoms_ProtBoundConf>  (700) 
nan

>  <Num_Resolved_Atoms>  (700) 
nan

>  <Num_Not_Resolved_Atoms>  (700) 
nan

$$$$
CHEMBL3689259
     RDKit          3D

  0  0  0  0  0  0  0  0  0  0999 V3000
M  V30 BEGIN CTAB
M  V30 COUNTS 56 59 0 0 0
M  V30 BEGIN ATOM
M  V30 1 C 4.211331 0.232399 3.421029 0
M  V30 2 N 4.778042 0.519589 2.102378 0
M  V30 3 C 5.194095 -0.766227 1.553424 0
M  V30 4 C 4.913868 1.781198 1.452312 0
M  V30 5 C 6.171716 2.223385 1.102950 0
M  V30 6 C 6.319243 3.438693 0.475035 0
M  V30 7 N 5.253221 4.205878 0.195029 0
M  V30 8 C 3.989743 3.816212 0.518461 0
M  V30 9 C 2.914915 4.631783 0.214943 0
M  V30 10 C 1.639945 4.184548 0.568583 0
M  V30 11 C 1.471839 2.978514 1.193888 0
M  V30 12 C 0.185597 2.454153 1.587570 0
M  V30 13 C -0.890539 2.005993 1.898493 0
M  V30 14 C -2.211766 1.437770 2.261527 0
M  V30 15 N -2.631543 0.482100 1.226526 0
M  V30 16 C -1.717707 -0.587153 1.081779 0
M  V30 17 O -0.757641 -0.421315 1.911180 0
M  V30 18 C -1.790861 -1.714921 0.169620 0
M  V30 19 C -0.721925 -2.614808 0.267363 0
M  V30 20 N -0.656619 -3.695017 -0.507237 0
M  V30 21 C -1.591876 -3.995339 -1.420870 0
M  V30 22 N -2.614146 -3.150308 -1.526199 0
M  V30 23 C -3.653497 -3.424010 -2.495784 0
M  V30 24 C -4.754166 -4.259855 -1.902804 0
M  V30 25 C -4.607639 -5.640201 -2.008482 0
M  V30 26 C -5.514909 -6.553967 -1.523740 0
M  V30 27 C -6.657223 -6.062616 -0.883984 0
M  V30 28 F -7.595341 -6.906911 -0.380958 0
M  V30 29 C -6.798604 -4.688612 -0.781262 0
M  V30 30 F -7.897384 -4.191020 -0.165442 0
M  V30 31 C -5.880182 -3.786828 -1.272380 0
M  V30 32 C -2.728975 -2.052840 -0.774727 0
M  V30 33 O -3.676952 -1.248739 -0.856806 0
M  V30 34 C 2.564662 2.174204 1.489919 0
M  V30 35 C 3.838261 2.582853 1.155880 0
M  V30 36 H 3.880982 1.178726 3.940994 0
M  V30 37 H 4.957433 -0.210703 4.111631 0
M  V30 38 H 3.368626 -0.506155 3.359490 0
M  V30 39 H 6.110464 -1.041465 2.153082 0
M  V30 40 H 5.605633 -0.644610 0.511748 0
M  V30 41 H 4.424567 -1.537788 1.588750 0
M  V30 42 H 7.083967 1.672444 1.289299 0
M  V30 43 H 7.300314 3.824929 0.181686 0
M  V30 44 H 3.034883 5.579445 -0.275179 0
M  V30 45 H 0.741373 4.767986 0.364473 0
M  V30 46 H -2.169774 0.946097 3.251933 0
M  V30 47 H -2.909047 2.277652 2.326427 0
M  V30 48 H -3.473398 0.486436 0.613260 0
M  V30 49 H 0.111870 -2.510375 0.957537 0
M  V30 50 H -1.568472 -4.863043 -2.064377 0
M  V30 51 H -4.119863 -2.467865 -2.795786 0
M  V30 52 H -3.249508 -3.973054 -3.385016 0
M  V30 53 H -3.735665 -6.053869 -2.497527 0
M  V30 54 H -5.359517 -7.623480 -1.628744 0
M  V30 55 H -5.973479 -2.730483 -1.201916 0
M  V30 56 H 2.465131 1.234727 1.973867 0
M  V30 END ATOM
M  V30 BEGIN BOND
M  V30 1 1 1 2
M  V30 2 1 2 3
M  V30 3 1 2 4
M  V30 4 2 4 5
M  V30 5 1 5 6
M  V30 6 2 6 7
M  V30 7 1 7 8
M  V30 8 2 8 9
M  V30 9 1 9 10
M  V30 10 2 10 11
M  V30 11 1 11 12
M  V30 12 3 12 13
M  V30 13 1 13 14
M  V30 14 1 14 15
M  V30 15 1 15 16
M  V30 16 2 16 17
M  V30 17 1 16 18
M  V30 18 2 18 19
M  V30 19 1 19 20
M  V30 20 2 20 21
M  V30 21 1 21 22
M  V30 22 1 22 23
M  V30 23 1 23 24
M  V30 24 2 24 25
M  V30 25 1 25 26
M  V30 26 2 26 27
M  V30 27 1 27 28
M  V30 28 1 27 29
M  V30 29 1 29 30
M  V30 30 2 29 31
M  V30 31 1 22 32
M  V30 32 2 32 33
M  V30 33 1 11 34
M  V30 34 2 34 35
M  V30 35 1 35 4
M  V30 36 1 35 8
M  V30 37 1 32 18
M  V30 38 1 31 24
M  V30 39 1 1 36
M  V30 40 1 1 37
M  V30 41 1 1 38
M  V30 42 1 3 39
M  V30 43 1 3 40
M  V30 44 1 3 41
M  V30 45 1 5 42
M  V30 46 1 6 43
M  V30 47 1 9 44
M  V30 48 1 10 45
M  V30 49 1 14 46
M  V30 50 1 14 47
M  V30 51 1 15 48
M  V30 52 1 19 49
M  V30 53 1 21 50
M  V30 54 1 23 51
M  V30 55 1 23 52
M  V30 56 1 25 53
M  V30 57 1 26 54
M  V30 58 1 31 55
M  V30 59 1 34 56
M  V30 END BOND
M  V30 END CTAB
M  END
>  <Dataset>  (701) 
ChEMBL_Kinases

>  <Ligand_Instance>  (701) 
nan

>  <PDB_ID>  (701) 
nan

>  <Standardized_SMILES>  (701) 
CN(C)c1ccnc2ccc(C#CCNC(=O)c3cncn(Cc4ccc(F)c(F)c4)c3=O)cc12

>  <Name>  (701) 
nan

>  <Pocket>  (701) 
nan

>  <ATP_Site>  (701) 
nan

>  <Peripheral>  (701) 
nan

>  <Num_H_Atoms_ProtBoundConf>  (701) 
nan

>  <Num_Resolved_Atoms>  (701) 
nan

>  <Num_Not_Resolved_Atoms>  (701) 
nan

$$$$
CHEMBL3689258
     RDKit          3D

  0  0  0  0  0  0  0  0  0  0999 V3000
M  V30 BEGIN CTAB
M  V30 COUNTS 70 73 0 0 0
M  V30 BEGIN ATOM
M  V30 1 C 2.210102 -2.678459 3.098129 0
M  V30 2 N 2.375339 -3.696777 2.068727 0
M  V30 3 C 1.753979 -4.934372 2.504461 0
M  V30 4 C 1.821235 -3.252346 0.801878 0
M  V30 5 C 2.666669 -2.101703 0.258689 0
M  V30 6 C 2.115569 -1.635334 -1.038485 0
M  V30 7 N 2.829121 -0.541407 -1.663985 0
M  V30 8 C 2.330402 -0.114140 -2.981579 0
M  V30 9 C 3.937754 0.345169 -1.392241 0
M  V30 10 C 5.092056 0.196352 -2.142476 0
M  V30 11 C 6.130290 1.045632 -1.841286 0
M  V30 12 N 6.047362 1.981763 -0.868794 0
M  V30 13 C 4.941320 2.149687 -0.125568 0
M  V30 14 C 4.811711 3.099232 0.873774 0
M  V30 15 C 3.663544 3.253981 1.614651 0
M  V30 16 C 2.600648 2.429247 1.349285 0
M  V30 17 C 1.345662 2.468607 2.024617 0
M  V30 18 C 0.286875 2.482049 2.595941 0
M  V30 19 C -1.029657 2.482006 3.283353 0
M  V30 20 N -1.882671 1.459490 2.680295 0
M  V30 21 C -3.209197 1.189807 3.080768 0
M  V30 22 O -3.605294 1.925641 4.022401 0
M  V30 23 C -4.115585 0.194046 2.535509 0
M  V30 24 C -5.385892 0.092236 3.072505 0
M  V30 25 N -6.276576 -0.802406 2.620283 0
M  V30 26 C -5.985444 -1.651308 1.619005 0
M  V30 27 N -4.763044 -1.597813 1.057439 0
M  V30 28 C -4.438392 -2.508676 -0.019760 0
M  V30 29 C -4.790255 -1.903838 -1.324735 0
M  V30 30 C -6.043623 -2.038349 -1.903011 0
M  V30 31 C -6.402742 -1.496690 -3.107296 0
M  V30 32 C -5.494797 -0.763306 -3.826205 0
M  V30 33 F -5.790698 -0.206096 -5.017284 0
M  V30 34 C -4.231058 -0.593110 -3.304838 0
M  V30 35 F -3.320303 0.130031 -4.003588 0
M  V30 36 C -3.905491 -1.156359 -2.084418 0
M  V30 37 C -3.880503 -0.699799 1.517219 0
M  V30 38 O -2.774432 -0.689202 0.971426 0
M  V30 39 C 2.746298 1.487798 0.350398 0
M  V30 40 C 3.882785 1.309145 -0.407596 0
M  V30 41 H 2.181457 -3.247329 4.062079 0
M  V30 42 H 1.265338 -2.112074 2.984944 0
M  V30 43 H 3.120776 -2.054807 3.133646 0
M  V30 44 H 1.430005 -4.819336 3.563748 0
M  V30 45 H 2.491489 -5.735800 2.457623 0
M  V30 46 H 0.860819 -5.202031 1.895449 0
M  V30 47 H 0.753379 -2.984559 0.884873 0
M  V30 48 H 1.937529 -4.104040 0.092197 0
M  V30 49 H 2.732805 -1.290212 0.981317 0
M  V30 50 H 3.681247 -2.540209 0.036816 0
M  V30 51 H 1.056877 -1.279051 -0.932729 0
M  V30 52 H 2.081586 -2.443663 -1.815577 0
M  V30 53 H 1.484170 -0.733797 -3.297855 0
M  V30 54 H 2.110216 0.967081 -3.006876 0
M  V30 55 H 3.172152 -0.350009 -3.694541 0
M  V30 56 H 5.197308 -0.528405 -2.917206 0
M  V30 57 H 7.054371 0.966694 -2.401377 0
M  V30 58 H 5.659220 3.752490 1.080904 0
M  V30 59 H 3.519808 3.972449 2.393954 0
M  V30 60 H -1.498345 3.468898 3.194231 0
M  V30 61 H -0.827073 2.228737 4.329420 0
M  V30 62 H -1.477484 0.896675 1.904630 0
M  V30 63 H -5.697152 0.744726 3.886389 0
M  V30 64 H -6.753047 -2.345439 1.307119 0
M  V30 65 H -3.343204 -2.680411 -0.005677 0
M  V30 66 H -5.009768 -3.449699 0.106543 0
M  V30 67 H -6.799283 -2.613529 -1.366980 0
M  V30 68 H -7.374041 -1.604557 -3.549385 0
M  V30 69 H -2.915538 -0.986036 -1.744954 0
M  V30 70 H 1.923085 0.812490 0.108171 0
M  V30 END ATOM
M  V30 BEGIN BOND
M  V30 1 1 1 2
M  V30 2 1 2 3
M  V30 3 1 2 4
M  V30 4 1 4 5
M  V30 5 1 5 6
M  V30 6 1 6 7
M  V30 7 1 7 8
M  V30 8 1 7 9
M  V30 9 2 9 10
M  V30 10 1 10 11
M  V30 11 2 11 12
M  V30 12 1 12 13
M  V30 13 2 13 14
M  V30 14 1 14 15
M  V30 15 2 15 16
M  V30 16 1 16 17
M  V30 17 3 17 18
M  V30 18 1 18 19
M  V30 19 1 19 20
M  V30 20 1 20 21
M  V30 21 2 21 22
M  V30 22 1 21 23
M  V30 23 2 23 24
M  V30 24 1 24 25
M  V30 25 2 25 26
M  V30 26 1 26 27
M  V30 27 1 27 28
M  V30 28 1 28 29
M  V30 29 2 29 30
M  V30 30 1 30 31
M  V30 31 2 31 32
M  V30 32 1 32 33
M  V30 33 1 32 34
M  V30 34 1 34 35
M  V30 35 2 34 36
M  V30 36 1 27 37
M  V30 37 2 37 38
M  V30 38 1 16 39
M  V30 39 2 39 40
M  V30 40 1 40 9
M  V30 41 1 40 13
M  V30 42 1 37 23
M  V30 43 1 36 29
M  V30 44 1 1 41
M  V30 45 1 1 42
M  V30 46 1 1 43
M  V30 47 1 3 44
M  V30 48 1 3 45
M  V30 49 1 3 46
M  V30 50 1 4 47
M  V30 51 1 4 48
M  V30 52 1 5 49
M  V30 53 1 5 50
M  V30 54 1 6 51
M  V30 55 1 6 52
M  V30 56 1 8 53
M  V30 57 1 8 54
M  V30 58 1 8 55
M  V30 59 1 10 56
M  V30 60 1 11 57
M  V30 61 1 14 58
M  V30 62 1 15 59
M  V30 63 1 19 60
M  V30 64 1 19 61
M  V30 65 1 20 62
M  V30 66 1 24 63
M  V30 67 1 26 64
M  V30 68 1 28 65
M  V30 69 1 28 66
M  V30 70 1 30 67
M  V30 71 1 31 68
M  V30 72 1 36 69
M  V30 73 1 39 70
M  V30 END BOND
M  V30 END CTAB
M  END
>  <Dataset>  (702) 
ChEMBL_Kinases

>  <Ligand_Instance>  (702) 
nan

>  <PDB_ID>  (702) 
nan

>  <Standardized_SMILES>  (702) 
CN(C)CCCN(C)c1ccnc2ccc(C#CCNC(=O)c3cncn(Cc4ccc(F)c(F)c4)c3=O)cc12

>  <Name>  (702) 
nan

>  <Pocket>  (702) 
nan

>  <ATP_Site>  (702) 
nan

>  <Peripheral>  (702) 
nan

>  <Num_H_Atoms_ProtBoundConf>  (702) 
nan

>  <Num_Resolved_Atoms>  (702) 
nan

>  <Num_Not_Resolved_Atoms>  (702) 
nan

$$$$
CHEMBL3689257
     RDKit          3D

  0  0  0  0  0  0  0  0  0  0999 V3000
M  V30 BEGIN CTAB
M  V30 COUNTS 66 69 0 0 0
M  V30 BEGIN ATOM
M  V30 1 C 3.039154 -4.738506 3.379201 0
M  V30 2 N 2.909497 -3.394387 2.930490 0
M  V30 3 C 1.533325 -3.257783 2.362353 0
M  V30 4 C 3.777172 -2.951715 1.889240 0
M  V30 5 C 3.473095 -3.768816 0.629631 0
M  V30 6 C 4.228284 -3.226601 -0.571730 0
M  V30 7 O 3.840861 -1.862951 -0.708561 0
M  V30 8 C 4.324524 -1.015993 -1.677675 0
M  V30 9 C 5.220331 -1.338213 -2.636158 0
M  V30 10 C 5.726620 -0.521578 -3.623078 0
M  V30 11 N 5.214330 0.738041 -3.540621 0
M  V30 12 C 4.321127 1.137831 -2.614587 0
M  V30 13 C 3.982241 2.454967 -2.797982 0
M  V30 14 C 3.058614 2.871562 -1.872826 0
M  V30 15 C 2.509138 2.106104 -0.868073 0
M  V30 16 C 1.507095 2.540033 0.047111 0
M  V30 17 C 0.643614 2.917381 0.858308 0
M  V30 18 C -0.377557 3.355943 1.781360 0
M  V30 19 N -1.407795 2.335187 1.846847 0
M  V30 20 C -1.125488 0.929497 2.063834 0
M  V30 21 O 0.076232 0.670373 2.177025 0
M  V30 22 C -2.251142 0.038267 2.101781 0
M  V30 23 C -1.834138 -1.295364 1.838569 0
M  V30 24 N -2.612148 -2.410632 1.614956 0
M  V30 25 C -3.963178 -2.260293 1.647748 0
M  V30 26 N -4.461262 -1.036591 1.900993 0
M  V30 27 C -5.873789 -0.630834 2.160247 0
M  V30 28 C -6.394437 -0.058203 0.919089 0
M  V30 29 C -7.799221 0.309026 0.667897 0
M  V30 30 C -8.373110 0.835679 -0.522392 0
M  V30 31 C -7.375757 0.987598 -1.530565 0
M  V30 32 F -8.098761 1.504438 -2.603203 0
M  V30 33 C -6.039603 0.720865 -1.520780 0
M  V30 34 F -5.304537 0.941318 -2.588110 0
M  V30 35 C -5.905649 0.261288 -0.275766 0
M  V30 36 C -3.600281 -0.101213 2.083915 0
M  V30 37 O -4.018550 1.078522 2.334129 0
M  V30 38 C 2.897335 0.793275 -0.740708 0
M  V30 39 C 3.837014 0.298471 -1.654642 0
M  V30 40 H 3.667918 -4.918568 4.247561 0
M  V30 41 H 3.354012 -5.432168 2.562797 0
M  V30 42 H 1.995714 -5.123213 3.624271 0
M  V30 43 H 1.163550 -4.267945 2.110003 0
M  V30 44 H 0.855252 -2.790292 3.115786 0
M  V30 45 H 1.552944 -2.571127 1.499574 0
M  V30 46 H 4.841944 -2.922932 2.094535 0
M  V30 47 H 3.454791 -1.910180 1.580467 0
M  V30 48 H 4.052995 -4.779444 0.811467 0
M  V30 49 H 2.447701 -3.994754 0.505398 0
M  V30 50 H 4.003865 -3.833081 -1.478029 0
M  V30 51 H 5.305083 -3.281680 -0.364420 0
M  V30 52 H 5.537836 -2.358895 -2.554128 0
M  V30 53 H 6.445928 -0.817564 -4.368090 0
M  V30 54 H 4.365213 3.100765 -3.551156 0
M  V30 55 H 2.670435 3.904359 -1.831475 0
M  V30 56 H -0.069327 3.852892 2.659787 0
M  V30 57 H -0.945041 4.224576 1.186408 0
M  V30 58 H -2.437898 2.575360 1.719165 0
M  V30 59 H -0.850520 -1.800010 1.762595 0
M  V30 60 H -4.755481 -2.998596 1.492298 0
M  V30 61 H -5.924624 0.019927 3.026063 0
M  V30 62 H -6.401228 -1.634516 2.307324 0
M  V30 63 H -8.459403 0.159912 1.561583 0
M  V30 64 H -9.425915 1.014939 -0.425706 0
M  V30 65 H -4.771233 0.012904 -0.236959 0
M  V30 66 H 2.579072 0.039036 -0.027148 0
M  V30 END ATOM
M  V30 BEGIN BOND
M  V30 1 1 1 2
M  V30 2 1 2 3
M  V30 3 1 2 4
M  V30 4 1 4 5
M  V30 5 1 5 6
M  V30 6 1 6 7
M  V30 7 1 7 8
M  V30 8 2 8 9
M  V30 9 1 9 10
M  V30 10 2 10 11
M  V30 11 1 11 12
M  V30 12 2 12 13
M  V30 13 1 13 14
M  V30 14 2 14 15
M  V30 15 1 15 16
M  V30 16 3 16 17
M  V30 17 1 17 18
M  V30 18 1 18 19
M  V30 19 1 19 20
M  V30 20 2 20 21
M  V30 21 1 20 22
M  V30 22 2 22 23
M  V30 23 1 23 24
M  V30 24 2 24 25
M  V30 25 1 25 26
M  V30 26 1 26 27
M  V30 27 1 27 28
M  V30 28 2 28 29
M  V30 29 1 29 30
M  V30 30 2 30 31
M  V30 31 1 31 32
M  V30 32 1 31 33
M  V30 33 1 33 34
M  V30 34 2 33 35
M  V30 35 1 26 36
M  V30 36 2 36 37
M  V30 37 1 15 38
M  V30 38 2 38 39
M  V30 39 1 39 8
M  V30 40 1 39 12
M  V30 41 1 36 22
M  V30 42 1 35 28
M  V30 43 1 1 40
M  V30 44 1 1 41
M  V30 45 1 1 42
M  V30 46 1 3 43
M  V30 47 1 3 44
M  V30 48 1 3 45
M  V30 49 1 4 46
M  V30 50 1 4 47
M  V30 51 1 5 48
M  V30 52 1 5 49
M  V30 53 1 6 50
M  V30 54 1 6 51
M  V30 55 1 9 52
M  V30 56 1 10 53
M  V30 57 1 13 54
M  V30 58 1 14 55
M  V30 59 1 18 56
M  V30 60 1 18 57
M  V30 61 1 19 58
M  V30 62 1 23 59
M  V30 63 1 25 60
M  V30 64 1 27 61
M  V30 65 1 27 62
M  V30 66 1 29 63
M  V30 67 1 30 64
M  V30 68 1 35 65
M  V30 69 1 38 66
M  V30 END BOND
M  V30 END CTAB
M  END
>  <Dataset>  (703) 
ChEMBL_Kinases

>  <Ligand_Instance>  (703) 
nan

>  <PDB_ID>  (703) 
nan

>  <Standardized_SMILES>  (703) 
CN(C)CCCOc1ccnc2ccc(C#CCNC(=O)c3cncn(Cc4ccc(F)c(F)c4)c3=O)cc12

>  <Name>  (703) 
nan

>  <Pocket>  (703) 
nan

>  <ATP_Site>  (703) 
nan

>  <Peripheral>  (703) 
nan

>  <Num_H_Atoms_ProtBoundConf>  (703) 
nan

>  <Num_Resolved_Atoms>  (703) 
nan

>  <Num_Not_Resolved_Atoms>  (703) 
nan

$$$$
CHEMBL3689256
     RDKit          3D

  0  0  0  0  0  0  0  0  0  0999 V3000
M  V30 BEGIN CTAB
M  V30 COUNTS 64 68 0 0 0
M  V30 BEGIN ATOM
M  V30 1 O 3.761898 -1.925149 5.102208 0
M  V30 2 C 3.172699 -2.368961 4.062462 0
M  V30 3 N 2.579018 -1.259849 3.403580 0
M  V30 4 C 2.749730 0.060745 3.998268 0
M  V30 5 C 2.089449 1.091109 3.203889 0
M  V30 6 C 1.557928 1.948831 2.532044 0
M  V30 7 C 0.939840 2.956781 1.715237 0
M  V30 8 C 1.524493 4.181328 1.466808 0
M  V30 9 C 0.923410 5.138752 0.663986 0
M  V30 10 C -0.308133 4.789909 0.122322 0
M  V30 11 N -0.952005 5.649697 -0.669275 0
M  V30 12 C -2.155831 5.362244 -1.234876 0
M  V30 13 C -2.793214 4.132513 -1.014090 0
M  V30 14 O -3.992906 3.987071 -1.648345 0
M  V30 15 C -4.866004 2.901116 -1.600007 0
M  V30 16 C -4.847232 2.080471 -2.877762 0
M  V30 17 C -5.868271 0.959450 -2.615949 0
M  V30 18 N -7.155876 1.611240 -2.735953 0
M  V30 19 C -7.370962 2.513808 -1.658799 0
M  V30 20 C -6.228250 3.353257 -1.227615 0
M  V30 21 C -2.108472 3.262945 -0.193346 0
M  V30 22 C -0.888329 3.579024 0.367602 0
M  V30 23 C -0.282663 2.634507 1.167063 0
M  V30 24 C 3.126844 -3.756457 3.643107 0
M  V30 25 C 3.818663 -4.604857 4.520723 0
M  V30 26 N 3.872512 -5.923134 4.274802 0
M  V30 27 C 3.302708 -6.516813 3.227830 0
M  V30 28 N 2.645672 -5.727905 2.389851 0
M  V30 29 C 1.990561 -6.261416 1.228535 0
M  V30 30 C 2.858408 -6.296968 0.024633 0
M  V30 31 C 3.005204 -5.307994 -0.919301 0
M  V30 32 C 3.864048 -5.534599 -1.970770 0
M  V30 33 C 4.581524 -6.686401 -2.134605 0
M  V30 34 F 5.414444 -6.883322 -3.171432 0
M  V30 35 C 4.457622 -7.709993 -1.198663 0
M  V30 36 F 5.144669 -8.860927 -1.322588 0
M  V30 37 C 3.592285 -7.470613 -0.146495 0
M  V30 38 C 2.559205 -4.421098 2.581157 0
M  V30 39 O 1.950629 -3.599259 1.828621 0
M  V30 40 H 2.044134 -1.423259 2.520103 0
M  V30 41 H 3.858062 0.247840 4.010894 0
M  V30 42 H 2.405372 0.122384 5.042276 0
M  V30 43 H 2.488160 4.357826 1.937883 0
M  V30 44 H 1.390841 6.093373 0.477306 0
M  V30 45 H -2.505022 6.207346 -1.847980 0
M  V30 46 H -4.479895 2.197647 -0.815687 0
M  V30 47 H -5.209622 2.623422 -3.759198 0
M  V30 48 H -3.883654 1.580459 -3.006966 0
M  V30 49 H -5.794901 0.637457 -1.546933 0
M  V30 50 H -5.725379 0.158014 -3.342645 0
M  V30 51 H -7.288807 1.978267 -3.687833 0
M  V30 52 H -8.193652 3.212949 -1.998349 0
M  V30 53 H -7.837502 1.931666 -0.830927 0
M  V30 54 H -6.357073 4.413125 -1.542001 0
M  V30 55 H -6.253614 3.375795 -0.095386 0
M  V30 56 H -2.612487 2.319286 -0.031461 0
M  V30 57 H -0.785797 1.690794 1.330255 0
M  V30 58 H 4.359558 -4.378694 5.428189 0
M  V30 59 H 3.331236 -7.568466 3.006724 0
M  V30 60 H 1.656239 -7.304477 1.500016 0
M  V30 61 H 1.048450 -5.701877 1.074958 0
M  V30 62 H 2.421104 -4.410712 -0.754421 0
M  V30 63 H 3.945893 -4.727167 -2.687131 0
M  V30 64 H 3.523505 -8.297461 0.567173 0
M  V30 END ATOM
M  V30 BEGIN BOND
M  V30 1 2 1 2
M  V30 2 1 2 3
M  V30 3 1 3 4
M  V30 4 1 4 5
M  V30 5 3 5 6
M  V30 6 1 6 7
M  V30 7 2 7 8
M  V30 8 1 8 9
M  V30 9 2 9 10
M  V30 10 1 10 11
M  V30 11 2 11 12
M  V30 12 1 12 13
M  V30 13 1 13 14
M  V30 14 1 14 15
M  V30 15 1 15 16
M  V30 16 1 16 17
M  V30 17 1 17 18
M  V30 18 1 18 19
M  V30 19 1 19 20
M  V30 20 2 13 21
M  V30 21 1 21 22
M  V30 22 2 22 23
M  V30 23 1 2 24
M  V30 24 2 24 25
M  V30 25 1 25 26
M  V30 26 2 26 27
M  V30 27 1 27 28
M  V30 28 1 28 29
M  V30 29 1 29 30
M  V30 30 2 30 31
M  V30 31 1 31 32
M  V30 32 2 32 33
M  V30 33 1 33 34
M  V30 34 1 33 35
M  V30 35 1 35 36
M  V30 36 2 35 37
M  V30 37 1 28 38
M  V30 38 2 38 39
M  V30 39 1 23 7
M  V30 40 1 38 24
M  V30 41 1 22 10
M  V30 42 1 37 30
M  V30 43 1 20 15
M  V30 44 1 3 40
M  V30 45 1 4 41
M  V30 46 1 4 42
M  V30 47 1 8 43
M  V30 48 1 9 44
M  V30 49 1 12 45
M  V30 50 1 15 46
M  V30 51 1 16 47
M  V30 52 1 16 48
M  V30 53 1 17 49
M  V30 54 1 17 50
M  V30 55 1 18 51
M  V30 56 1 19 52
M  V30 57 1 19 53
M  V30 58 1 20 54
M  V30 59 1 20 55
M  V30 60 1 21 56
M  V30 61 1 23 57
M  V30 62 1 25 58
M  V30 63 1 27 59
M  V30 64 1 29 60
M  V30 65 1 29 61
M  V30 66 1 31 62
M  V30 67 1 32 63
M  V30 68 1 37 64
M  V30 END BOND
M  V30 END CTAB
M  END
>  <Dataset>  (704) 
ChEMBL_Kinases

>  <Ligand_Instance>  (704) 
nan

>  <PDB_ID>  (704) 
nan

>  <Standardized_SMILES>  (704) 
O=C(NCC#Cc1ccc2ncc(OC3CCNCC3)cc2c1)c1cncn(Cc2ccc(F)c(F)c2)c1=O

>  <Name>  (704) 
nan

>  <Pocket>  (704) 
nan

>  <ATP_Site>  (704) 
nan

>  <Peripheral>  (704) 
nan

>  <Num_H_Atoms_ProtBoundConf>  (704) 
nan

>  <Num_Resolved_Atoms>  (704) 
nan

>  <Num_Not_Resolved_Atoms>  (704) 
nan

$$$$
CHEMBL3689255
     RDKit          3D

  0  0  0  0  0  0  0  0  0  0999 V3000
M  V30 BEGIN CTAB
M  V30 COUNTS 49 52 0 0 0
M  V30 BEGIN ATOM
M  V30 1 O 0.573707 -1.267605 2.651058 0
M  V30 2 C 0.262223 -1.827116 1.543255 0
M  V30 3 N 1.450655 -2.032910 0.793559 0
M  V30 4 C 2.712674 -1.595164 1.392849 0
M  V30 5 C 2.704839 -0.150226 1.664341 0
M  V30 6 C 2.699760 1.048965 1.872843 0
M  V30 7 C 2.706267 2.470022 2.100580 0
M  V30 8 C 2.189413 3.032137 3.251270 0
M  V30 9 C 2.225440 4.414836 3.412283 0
M  V30 10 C 2.783557 5.190870 2.404358 0
M  V30 11 N 2.831882 6.523577 2.531799 0
M  V30 12 C 3.363058 7.313915 1.581326 0
M  V30 13 C 3.888259 6.764150 0.415684 0
M  V30 14 O 4.460743 7.471374 -0.633236 0
M  V30 15 C 3.859032 5.385629 0.241474 0
M  V30 16 C 3.300461 4.609034 1.250217 0
M  V30 17 C 3.271399 3.237018 1.076795 0
M  V30 18 C -1.100490 -2.170506 1.171074 0
M  V30 19 C -2.056930 -1.833910 2.138031 0
M  V30 20 N -3.347361 -2.079113 1.955706 0
M  V30 21 C -3.823809 -2.660197 0.845396 0
M  V30 22 N -2.919173 -2.989436 -0.092287 0
M  V30 23 C -3.388479 -3.619382 -1.306855 0
M  V30 24 C -3.396030 -5.113057 -1.129914 0
M  V30 25 C -4.597552 -5.607669 -0.616986 0
M  V30 26 C -4.702765 -6.969060 -0.419298 0
M  V30 27 C -3.669014 -7.833293 -0.711116 0
M  V30 28 F -3.692116 -9.179188 -0.546353 0
M  V30 29 C -2.483253 -7.319619 -1.220287 0
M  V30 30 F -1.406032 -8.079830 -1.540641 0
M  V30 31 C -2.353571 -5.964932 -1.426482 0
M  V30 32 C -1.601800 -2.766263 0.036072 0
M  V30 33 O -0.742230 -3.055841 -0.805663 0
M  V30 34 H 1.360291 -2.483947 -0.141707 0
M  V30 35 H 3.529736 -1.769811 0.670287 0
M  V30 36 H 2.918761 -2.145784 2.340727 0
M  V30 37 H 1.759246 2.380241 4.019010 0
M  V30 38 H 1.817993 4.859766 4.319708 0
M  V30 39 H 3.428629 8.400863 1.631861 0
M  V30 40 H 4.128881 8.388000 -0.938574 0
M  V30 41 H 4.258420 4.904528 -0.655628 0
M  V30 42 H 3.675013 2.808010 0.179895 0
M  V30 43 H -1.799457 -1.353659 3.091501 0
M  V30 44 H -4.883923 -2.827275 0.768681 0
M  V30 45 H -2.704502 -3.319025 -2.123405 0
M  V30 46 H -4.403847 -3.260301 -1.594848 0
M  V30 47 H -5.465005 -5.041213 -0.353718 0
M  V30 48 H -5.573010 -7.488801 -0.029075 0
M  V30 49 H -1.457088 -5.506251 -1.819967 0
M  V30 END ATOM
M  V30 BEGIN BOND
M  V30 1 2 1 2
M  V30 2 1 2 3
M  V30 3 1 3 4
M  V30 4 1 4 5
M  V30 5 3 5 6
M  V30 6 1 6 7
M  V30 7 2 7 8
M  V30 8 1 8 9
M  V30 9 2 9 10
M  V30 10 1 10 11
M  V30 11 2 11 12
M  V30 12 1 12 13
M  V30 13 1 13 14
M  V30 14 2 13 15
M  V30 15 1 15 16
M  V30 16 2 16 17
M  V30 17 1 2 18
M  V30 18 2 18 19
M  V30 19 1 19 20
M  V30 20 2 20 21
M  V30 21 1 21 22
M  V30 22 1 22 23
M  V30 23 1 23 24
M  V30 24 2 24 25
M  V30 25 1 25 26
M  V30 26 2 26 27
M  V30 27 1 27 28
M  V30 28 1 27 29
M  V30 29 1 29 30
M  V30 30 2 29 31
M  V30 31 1 22 32
M  V30 32 2 32 33
M  V30 33 1 17 7
M  V30 34 1 32 18
M  V30 35 1 16 10
M  V30 36 1 31 24
M  V30 37 1 3 34
M  V30 38 1 4 35
M  V30 39 1 4 36
M  V30 40 1 8 37
M  V30 41 1 9 38
M  V30 42 1 12 39
M  V30 43 1 14 40
M  V30 44 1 15 41
M  V30 45 1 17 42
M  V30 46 1 19 43
M  V30 47 1 21 44
M  V30 48 1 23 45
M  V30 49 1 23 46
M  V30 50 1 25 47
M  V30 51 1 26 48
M  V30 52 1 31 49
M  V30 END BOND
M  V30 END CTAB
M  END
>  <Dataset>  (705) 
ChEMBL_Kinases

>  <Ligand_Instance>  (705) 
nan

>  <PDB_ID>  (705) 
nan

>  <Standardized_SMILES>  (705) 
O=C(NCC#Cc1ccc2ncc(O)cc2c1)c1cncn(Cc2ccc(F)c(F)c2)c1=O

>  <Name>  (705) 
nan

>  <Pocket>  (705) 
nan

>  <ATP_Site>  (705) 
nan

>  <Peripheral>  (705) 
nan

>  <Num_H_Atoms_ProtBoundConf>  (705) 
nan

>  <Num_Resolved_Atoms>  (705) 
nan

>  <Num_Not_Resolved_Atoms>  (705) 
nan

$$$$
CHEMBL3689254
     RDKit          3D

  0  0  0  0  0  0  0  0  0  0999 V3000
M  V30 BEGIN CTAB
M  V30 COUNTS 61 64 0 0 0
M  V30 BEGIN ATOM
M  V30 1 C 0.625473 -1.038933 1.099118 0
M  V30 2 C 0.801664 -2.538683 1.240520 0
M  V30 3 C 1.431889 -3.188788 2.335861 0
M  V30 4 C 2.196856 -2.172665 3.017344 0
M  V30 5 C 2.838683 -1.316190 3.561872 0
M  V30 6 C 3.644459 -0.211893 4.238449 0
M  V30 7 N 3.338817 0.908008 3.210443 0
M  V30 8 C 3.118519 1.923696 2.293900 0
M  V30 9 O 4.181967 2.478479 2.027614 0
M  V30 10 C 1.874373 2.238344 1.728321 0
M  V30 11 C 2.021388 2.575913 0.328484 0
M  V30 12 N 0.920094 2.746948 -0.542219 0
M  V30 13 C -0.351678 2.572133 0.008059 0
M  V30 14 N -0.637908 2.236042 1.386390 0
M  V30 15 C -2.021843 2.150422 1.522227 0
M  V30 16 C -2.798166 0.978163 1.290510 0
M  V30 17 C -3.078977 0.307397 0.150943 0
M  V30 18 C -3.873576 -0.784952 -0.111712 0
M  V30 19 C -4.501636 -1.278095 1.002581 0
M  V30 20 F -5.334611 -2.344156 0.900569 0
M  V30 21 C -4.371479 -0.770155 2.256927 0
M  V30 22 F -5.002369 -1.260708 3.366465 0
M  V30 23 C -3.508143 0.353088 2.341835 0
M  V30 24 C 0.584148 2.246986 1.511156 0
M  V30 25 O 0.366139 1.945036 2.859639 0
M  V30 26 C 1.390729 -4.532968 2.421174 0
M  V30 27 C 0.748934 -5.245521 1.417944 0
M  V30 28 C 0.125026 -4.653446 0.300704 0
M  V30 29 N -0.410583 -5.350488 -0.721835 0
M  V30 30 C -0.902094 -4.681822 -1.794802 0
M  V30 31 C -0.928690 -3.320812 -1.985962 0
M  V30 32 C -1.276323 -2.237220 -2.893185 0
M  V30 33 O -2.444022 -1.914570 -3.269765 0
M  V30 34 N -0.132138 -1.468944 -3.391171 0
M  V30 35 C 0.023949 -0.291232 -4.232805 0
M  V30 36 C 1.204303 -1.971047 -3.080251 0
M  V30 37 C -0.352047 -2.693787 -0.867695 0
M  V30 38 C 0.179521 -3.298104 0.267843 0
M  V30 39 H -0.439521 -0.797024 0.885295 0
M  V30 40 H 1.363223 -0.690230 0.384356 0
M  V30 41 H 0.871491 -0.624238 2.119191 0
M  V30 42 H 3.299690 0.042270 5.166778 0
M  V30 43 H 4.687614 -0.409630 4.039316 0
M  V30 44 H 2.292481 0.679207 3.346397 0
M  V30 45 H 2.989454 2.727850 -0.228458 0
M  V30 46 H -0.983816 2.749503 -0.911105 0
M  V30 47 H -2.525089 3.035806 1.006564 0
M  V30 48 H -2.246885 2.446496 2.653918 0
M  V30 49 H -2.577022 0.680051 -0.753978 0
M  V30 50 H -3.999051 -1.224766 -1.118917 0
M  V30 51 H -3.431745 0.743670 3.387213 0
M  V30 52 H 1.880189 -4.858333 3.284858 0
M  V30 53 H 0.728803 -6.310896 1.553244 0
M  V30 54 H -1.358871 -5.120485 -2.657082 0
M  V30 55 H -0.943531 0.185945 -4.466273 0
M  V30 56 H 0.628926 -0.544913 -5.101832 0
M  V30 57 H 0.644241 0.442566 -3.602493 0
M  V30 58 H 1.958949 -1.748370 -3.854455 0
M  V30 59 H 1.558247 -1.449304 -2.141112 0
M  V30 60 H 1.179245 -3.112831 -2.939705 0
M  V30 61 H -0.295484 -1.598438 -0.811782 0
M  V30 END ATOM
M  V30 BEGIN BOND
M  V30 1 1 1 2
M  V30 2 2 2 3
M  V30 3 1 3 4
M  V30 4 3 4 5
M  V30 5 1 5 6
M  V30 6 1 6 7
M  V30 7 1 7 8
M  V30 8 2 8 9
M  V30 9 1 8 10
M  V30 10 2 10 11
M  V30 11 1 11 12
M  V30 12 2 12 13
M  V30 13 1 13 14
M  V30 14 1 14 15
M  V30 15 1 15 16
M  V30 16 2 16 17
M  V30 17 1 17 18
M  V30 18 2 18 19
M  V30 19 1 19 20
M  V30 20 1 19 21
M  V30 21 1 21 22
M  V30 22 2 21 23
M  V30 23 1 14 24
M  V30 24 2 24 25
M  V30 25 1 3 26
M  V30 26 2 26 27
M  V30 27 1 27 28
M  V30 28 2 28 29
M  V30 29 1 29 30
M  V30 30 2 30 31
M  V30 31 1 31 32
M  V30 32 2 32 33
M  V30 33 1 32 34
M  V30 34 1 34 35
M  V30 35 1 34 36
M  V30 36 1 31 37
M  V30 37 2 37 38
M  V30 38 1 38 2
M  V30 39 1 24 10
M  V30 40 1 38 28
M  V30 41 1 23 16
M  V30 42 1 1 39
M  V30 43 1 1 40
M  V30 44 1 1 41
M  V30 45 1 6 42
M  V30 46 1 6 43
M  V30 47 1 7 44
M  V30 48 1 11 45
M  V30 49 1 13 46
M  V30 50 1 15 47
M  V30 51 1 15 48
M  V30 52 1 17 49
M  V30 53 1 18 50
M  V30 54 1 23 51
M  V30 55 1 26 52
M  V30 56 1 27 53
M  V30 57 1 30 54
M  V30 58 1 35 55
M  V30 59 1 35 56
M  V30 60 1 35 57
M  V30 61 1 36 58
M  V30 62 1 36 59
M  V30 63 1 36 60
M  V30 64 1 37 61
M  V30 END BOND
M  V30 END CTAB
M  END
>  <Dataset>  (706) 
ChEMBL_Kinases

>  <Ligand_Instance>  (706) 
nan

>  <PDB_ID>  (706) 
nan

>  <Standardized_SMILES>  (706) 
Cc1c(C#CCNC(=O)c2cncn(Cc3ccc(F)c(F)c3)c2=O)ccc2ncc(C(=O)N(C)C)cc12

>  <Name>  (706) 
nan

>  <Pocket>  (706) 
nan

>  <ATP_Site>  (706) 
nan

>  <Peripheral>  (706) 
nan

>  <Num_H_Atoms_ProtBoundConf>  (706) 
nan

>  <Num_Resolved_Atoms>  (706) 
nan

>  <Num_Not_Resolved_Atoms>  (706) 
nan

$$$$
CHEMBL3689253
     RDKit          3D

  0  0  0  0  0  0  0  0  0  0999 V3000
M  V30 BEGIN CTAB
M  V30 COUNTS 58 61 0 0 0
M  V30 BEGIN ATOM
M  V30 1 C 3.269413 -3.871920 4.658349 0
M  V30 2 N 3.079180 -2.687210 3.827937 0
M  V30 3 C 4.196371 -1.999493 3.303010 0
M  V30 4 O 5.329543 -2.453068 3.583427 0
M  V30 5 C 4.121295 -0.818848 2.471826 0
M  V30 6 C 5.273299 -0.248159 1.976642 0
M  V30 7 N 5.278967 0.861166 1.190805 0
M  V30 8 C 4.137612 1.475291 0.845298 0
M  V30 9 C 4.113498 2.600084 0.049015 0
M  V30 10 C 2.936393 3.251746 -0.321799 0
M  V30 11 C 1.751154 2.726358 0.144025 0
M  V30 12 C 0.433087 3.234708 -0.121895 0
M  V30 13 C -0.672772 3.647212 -0.360832 0
M  V30 14 C -2.047289 4.132686 -0.651664 0
M  V30 15 N -2.996781 3.075716 -0.235967 0
M  V30 16 C -2.762153 1.922194 -0.957169 0
M  V30 17 O -1.922325 1.651422 -1.871254 0
M  V30 18 C -3.176854 0.620564 -1.123416 0
M  V30 19 C -4.198582 0.572094 -0.008972 0
M  V30 20 N -5.003575 -0.506229 0.368091 0
M  V30 21 C -4.869243 -1.680272 -0.349358 0
M  V30 22 N -3.960818 -1.790837 -1.416080 0
M  V30 23 C -3.733578 -2.921993 -2.225868 0
M  V30 24 C -2.641158 -3.786486 -1.666211 0
M  V30 25 C -2.917370 -4.778277 -0.731867 0
M  V30 26 C -1.824901 -5.528577 -0.281009 0
M  V30 27 C -0.555625 -5.281204 -0.749456 0
M  V30 28 F 0.491033 -6.011198 -0.310404 0
M  V30 29 C -0.287210 -4.296456 -1.675505 0
M  V30 30 F 0.975828 -4.091119 -2.106651 0
M  V30 31 C -1.374534 -3.547893 -2.125231 0
M  V30 32 C -3.572679 -0.595969 -1.270705 0
M  V30 33 O -2.639309 -0.590385 -2.306257 0
M  V30 34 C 1.780118 1.590552 0.947735 0
M  V30 35 C 0.543125 0.961917 1.481847 0
M  V30 36 C 2.962616 0.939660 1.317142 0
M  V30 37 C 2.945977 -0.186167 2.116077 0
M  V30 38 H 3.794212 -4.665318 4.062582 0
M  V30 39 H 3.898514 -3.697094 5.540546 0
M  V30 40 H 2.269048 -4.176308 5.010900 0
M  V30 41 H 2.131732 -2.315196 3.600399 0
M  V30 42 H 6.236994 -0.703249 2.222405 0
M  V30 43 H 5.009897 3.028296 -0.323976 0
M  V30 44 H 2.853320 4.114696 -0.926995 0
M  V30 45 H -2.092954 4.325090 -1.719286 0
M  V30 46 H -2.327335 5.011905 -0.082045 0
M  V30 47 H -3.771372 2.936447 0.417357 0
M  V30 48 H -4.634808 1.256254 0.805374 0
M  V30 49 H -5.478998 -2.566931 -0.098605 0
M  V30 50 H -3.463722 -2.654464 -3.276873 0
M  V30 51 H -4.678464 -3.511990 -2.239145 0
M  V30 52 H -3.944895 -4.892249 -0.426175 0
M  V30 53 H -2.043705 -6.304965 0.447159 0
M  V30 54 H -1.096429 -2.781466 -2.859078 0
M  V30 55 H -0.302927 1.617528 1.198893 0
M  V30 56 H 0.326621 -0.027022 1.048168 0
M  V30 57 H 0.585465 0.964181 2.599615 0
M  V30 58 H 2.012663 -0.587605 2.472388 0
M  V30 END ATOM
M  V30 BEGIN BOND
M  V30 1 1 1 2
M  V30 2 1 2 3
M  V30 3 2 3 4
M  V30 4 1 3 5
M  V30 5 2 5 6
M  V30 6 1 6 7
M  V30 7 2 7 8
M  V30 8 1 8 9
M  V30 9 2 9 10
M  V30 10 1 10 11
M  V30 11 1 11 12
M  V30 12 3 12 13
M  V30 13 1 13 14
M  V30 14 1 14 15
M  V30 15 1 15 16
M  V30 16 2 16 17
M  V30 17 1 16 18
M  V30 18 2 18 19
M  V30 19 1 19 20
M  V30 20 2 20 21
M  V30 21 1 21 22
M  V30 22 1 22 23
M  V30 23 1 23 24
M  V30 24 2 24 25
M  V30 25 1 25 26
M  V30 26 2 26 27
M  V30 27 1 27 28
M  V30 28 1 27 29
M  V30 29 1 29 30
M  V30 30 2 29 31
M  V30 31 1 22 32
M  V30 32 2 32 33
M  V30 33 2 11 34
M  V30 34 1 34 35
M  V30 35 1 34 36
M  V30 36 2 36 37
M  V30 37 1 37 5
M  V30 38 1 36 8
M  V30 39 1 32 18
M  V30 40 1 31 24
M  V30 41 1 1 38
M  V30 42 1 1 39
M  V30 43 1 1 40
M  V30 44 1 2 41
M  V30 45 1 6 42
M  V30 46 1 9 43
M  V30 47 1 10 44
M  V30 48 1 14 45
M  V30 49 1 14 46
M  V30 50 1 15 47
M  V30 51 1 19 48
M  V30 52 1 21 49
M  V30 53 1 23 50
M  V30 54 1 23 51
M  V30 55 1 25 52
M  V30 56 1 26 53
M  V30 57 1 31 54
M  V30 58 1 35 55
M  V30 59 1 35 56
M  V30 60 1 35 57
M  V30 61 1 37 58
M  V30 END BOND
M  V30 END CTAB
M  END
>  <Dataset>  (707) 
ChEMBL_Kinases

>  <Ligand_Instance>  (707) 
nan

>  <PDB_ID>  (707) 
nan

>  <Standardized_SMILES>  (707) 
CNC(=O)c1cnc2ccc(C#CCNC(=O)c3cncn(Cc4ccc(F)c(F)c4)c3=O)c(C)c2c1

>  <Name>  (707) 
nan

>  <Pocket>  (707) 
nan

>  <ATP_Site>  (707) 
nan

>  <Peripheral>  (707) 
nan

>  <Num_H_Atoms_ProtBoundConf>  (707) 
nan

>  <Num_Resolved_Atoms>  (707) 
nan

>  <Num_Not_Resolved_Atoms>  (707) 
nan

$$$$
CHEMBL3689252
     RDKit          3D

  0  0  0  0  0  0  0  0  0  0999 V3000
M  V30 BEGIN CTAB
M  V30 COUNTS 54 57 0 0 0
M  V30 BEGIN ATOM
M  V30 1 C 0.033943 -2.836384 -0.340466 0
M  V30 2 C 0.999305 -3.651216 -1.110061 0
M  V30 3 C 2.351842 -3.696284 -0.764115 0
M  V30 4 C 2.792073 -2.914388 0.383169 0
M  V30 5 C 3.145158 -2.259822 1.338974 0
M  V30 6 C 3.565229 -1.447053 2.483162 0
M  V30 7 N 2.654890 -0.313985 2.686324 0
M  V30 8 C 2.484900 0.634181 1.668499 0
M  V30 9 O 3.215495 0.306199 0.672276 0
M  V30 10 C 1.649848 1.807694 1.662545 0
M  V30 11 C 1.685419 2.575673 0.491270 0
M  V30 12 N 0.950545 3.692924 0.365405 0
M  V30 13 C 0.144818 4.139911 1.341636 0
M  V30 14 N 0.084796 3.429861 2.478981 0
M  V30 15 C -0.757414 3.841660 3.577862 0
M  V30 16 C -2.132275 3.263958 3.495410 0
M  V30 17 C -3.015779 4.076387 2.780587 0
M  V30 18 C -4.335617 3.702057 2.600877 0
M  V30 19 C -4.778712 2.522412 3.130019 0
M  V30 20 F -6.060248 2.039947 3.022027 0
M  V30 21 C -3.904821 1.723700 3.834335 0
M  V30 22 F -4.296879 0.539616 4.380963 0
M  V30 23 C -2.567985 2.078025 4.030249 0
M  V30 24 C 0.809070 2.309516 2.630556 0
M  V30 25 O 0.761435 1.644145 3.679120 0
M  V30 26 C 3.251689 -4.459599 -1.486378 0
M  V30 27 C 2.809221 -5.197445 -2.576988 0
M  V30 28 C 1.467985 -5.148080 -2.913973 0
M  V30 29 N 1.068487 -5.883484 -3.988519 0
M  V30 30 C -0.239108 -5.881150 -4.376487 0
M  V30 31 C -1.122600 -5.113394 -3.643562 0
M  V30 32 C -2.511852 -5.139879 -4.093326 0
M  V30 33 O -2.848878 -5.830937 -5.091557 0
M  V30 34 O -3.550118 -4.439609 -3.494349 0
M  V30 35 C -0.795227 -4.342902 -2.545019 0
M  V30 36 C 0.563103 -4.388627 -2.198228 0
M  V30 37 H -0.815067 -3.416232 0.066039 0
M  V30 38 H -0.264356 -1.994396 -0.985530 0
M  V30 39 H 0.564259 -2.405170 0.539550 0
M  V30 40 H 4.562559 -0.968432 2.284518 0
M  V30 41 H 3.576333 -2.092995 3.364522 0
M  V30 42 H 2.121956 -0.186562 3.573514 0
M  V30 43 H 2.296931 2.313607 -0.360117 0
M  V30 44 H -0.473186 5.024490 1.314519 0
M  V30 45 H -0.795390 4.950947 3.679859 0
M  V30 46 H -0.316505 3.452793 4.540960 0
M  V30 47 H -2.744244 5.032702 2.325788 0
M  V30 48 H -5.046920 4.296759 2.058598 0
M  V30 49 H -1.839275 1.515505 4.559821 0
M  V30 50 H 4.309564 -4.484067 -1.201796 0
M  V30 51 H 3.482506 -5.811302 -3.172884 0
M  V30 52 H -0.551776 -6.464475 -5.227558 0
M  V30 53 H -4.226265 -3.908152 -4.054270 0
M  V30 54 H -1.521908 -3.762098 -2.008050 0
M  V30 END ATOM
M  V30 BEGIN BOND
M  V30 1 1 1 2
M  V30 2 2 2 3
M  V30 3 1 3 4
M  V30 4 3 4 5
M  V30 5 1 5 6
M  V30 6 1 6 7
M  V30 7 1 7 8
M  V30 8 2 8 9
M  V30 9 1 8 10
M  V30 10 2 10 11
M  V30 11 1 11 12
M  V30 12 2 12 13
M  V30 13 1 13 14
M  V30 14 1 14 15
M  V30 15 1 15 16
M  V30 16 2 16 17
M  V30 17 1 17 18
M  V30 18 2 18 19
M  V30 19 1 19 20
M  V30 20 1 19 21
M  V30 21 1 21 22
M  V30 22 2 21 23
M  V30 23 1 14 24
M  V30 24 2 24 25
M  V30 25 1 3 26
M  V30 26 2 26 27
M  V30 27 1 27 28
M  V30 28 2 28 29
M  V30 29 1 29 30
M  V30 30 2 30 31
M  V30 31 1 31 32
M  V30 32 2 32 33
M  V30 33 1 32 34
M  V30 34 1 31 35
M  V30 35 2 35 36
M  V30 36 1 36 2
M  V30 37 1 24 10
M  V30 38 1 36 28
M  V30 39 1 23 16
M  V30 40 1 1 37
M  V30 41 1 1 38
M  V30 42 1 1 39
M  V30 43 1 6 40
M  V30 44 1 6 41
M  V30 45 1 7 42
M  V30 46 1 11 43
M  V30 47 1 13 44
M  V30 48 1 15 45
M  V30 49 1 15 46
M  V30 50 1 17 47
M  V30 51 1 18 48
M  V30 52 1 23 49
M  V30 53 1 26 50
M  V30 54 1 27 51
M  V30 55 1 30 52
M  V30 56 1 34 53
M  V30 57 1 35 54
M  V30 END BOND
M  V30 END CTAB
M  END
>  <Dataset>  (708) 
ChEMBL_Kinases

>  <Ligand_Instance>  (708) 
nan

>  <PDB_ID>  (708) 
nan

>  <Standardized_SMILES>  (708) 
Cc1c(C#CCNC(=O)c2cncn(Cc3ccc(F)c(F)c3)c2=O)ccc2ncc(C(=O)O)cc12

>  <Name>  (708) 
nan

>  <Pocket>  (708) 
nan

>  <ATP_Site>  (708) 
nan

>  <Peripheral>  (708) 
nan

>  <Num_H_Atoms_ProtBoundConf>  (708) 
nan

>  <Num_Resolved_Atoms>  (708) 
nan

>  <Num_Not_Resolved_Atoms>  (708) 
nan

$$$$
CHEMBL3689251
     RDKit          3D

  0  0  0  0  0  0  0  0  0  0999 V3000
M  V30 BEGIN CTAB
M  V30 COUNTS 57 60 0 0 0
M  V30 BEGIN ATOM
M  V30 1 C 6.207785 -4.235241 5.178226 0
M  V30 2 O 6.324230 -2.998981 4.478660 0
M  V30 3 C 5.209996 -2.400511 3.870693 0
M  V30 4 O 4.182267 -3.109390 4.050774 0
M  V30 5 C 5.296002 -1.131871 3.145089 0
M  V30 6 C 6.433002 -0.369205 2.958425 0
M  V30 7 N 6.339853 0.778390 2.262158 0
M  V30 8 C 5.180119 1.204129 1.744851 0
M  V30 9 C 5.101558 2.384674 1.032731 0
M  V30 10 C 3.921741 2.873076 0.474053 0
M  V30 11 C 2.779497 2.114668 0.657068 0
M  V30 12 C 1.498360 2.505613 0.133112 0
M  V30 13 C 0.414063 2.815156 -0.308017 0
M  V30 14 C -0.926254 3.174289 -0.837353 0
M  V30 15 N -1.624002 1.986548 -1.291423 0
M  V30 16 C -2.913715 2.035015 -1.838977 0
M  V30 17 O -3.316301 3.236872 -1.855465 0
M  V30 18 C -3.716232 0.951439 -2.324683 0
M  V30 19 C -4.971326 1.277166 -2.821181 0
M  V30 20 N -5.802956 0.356626 -3.298066 0
M  V30 21 C -5.501533 -0.953990 -3.339207 0
M  V30 22 N -4.294876 -1.311878 -2.867703 0
M  V30 23 C -3.923395 -2.709466 -2.888735 0
M  V30 24 C -4.364596 -3.320293 -1.611966 0
M  V30 25 C -5.658606 -3.840700 -1.597699 0
M  V30 26 C -6.191481 -4.437782 -0.471617 0
M  V30 27 C -5.429406 -4.530787 0.689093 0
M  V30 28 F -5.977552 -5.121801 1.779741 0
M  V30 29 C -4.134573 -4.016001 0.692247 0
M  V30 30 F -3.385103 -4.099024 1.809870 0
M  V30 31 C -3.636482 -3.428172 -0.447339 0
M  V30 32 C -3.444363 -0.397148 -2.383499 0
M  V30 33 O -2.318834 -0.739148 -1.945020 0
M  V30 34 C 2.823724 0.925077 1.366618 0
M  V30 35 C 1.606842 0.099329 1.572031 0
M  V30 36 C 4.010717 0.461532 1.912290 0
M  V30 37 C 4.079967 -0.721463 2.623832 0
M  V30 38 H 6.169040 -5.106000 4.494881 0
M  V30 39 H 6.956345 -4.338050 5.967672 0
M  V30 40 H 5.194032 -4.190321 5.672299 0
M  V30 41 H 7.341845 -0.763314 3.399393 0
M  V30 42 H 5.984736 2.993029 0.878320 0
M  V30 43 H 3.842254 3.777649 -0.076085 0
M  V30 44 H -0.752839 3.899757 -1.648349 0
M  V30 45 H -1.526447 3.586786 0.004329 0
M  V30 46 H -1.140852 1.066732 -1.203525 0
M  V30 47 H -5.335841 2.305189 -2.843921 0
M  V30 48 H -6.149022 -1.726066 -3.717623 0
M  V30 49 H -4.373095 -3.250960 -3.759393 0
M  V30 50 H -2.810015 -2.745823 -2.983433 0
M  V30 51 H -6.326587 -3.807971 -2.472246 0
M  V30 52 H -7.205012 -4.842485 -0.468796 0
M  V30 53 H -2.649938 -3.028033 -0.470651 0
M  V30 54 H 0.709812 0.601693 1.193294 0
M  V30 55 H 1.683646 -0.876856 1.057070 0
M  V30 56 H 1.441465 -0.111242 2.639838 0
M  V30 57 H 3.130351 -1.264212 2.724405 0
M  V30 END ATOM
M  V30 BEGIN BOND
M  V30 1 1 1 2
M  V30 2 1 2 3
M  V30 3 2 3 4
M  V30 4 1 3 5
M  V30 5 2 5 6
M  V30 6 1 6 7
M  V30 7 2 7 8
M  V30 8 1 8 9
M  V30 9 2 9 10
M  V30 10 1 10 11
M  V30 11 1 11 12
M  V30 12 3 12 13
M  V30 13 1 13 14
M  V30 14 1 14 15
M  V30 15 1 15 16
M  V30 16 2 16 17
M  V30 17 1 16 18
M  V30 18 2 18 19
M  V30 19 1 19 20
M  V30 20 2 20 21
M  V30 21 1 21 22
M  V30 22 1 22 23
M  V30 23 1 23 24
M  V30 24 2 24 25
M  V30 25 1 25 26
M  V30 26 2 26 27
M  V30 27 1 27 28
M  V30 28 1 27 29
M  V30 29 1 29 30
M  V30 30 2 29 31
M  V30 31 1 22 32
M  V30 32 2 32 33
M  V30 33 2 11 34
M  V30 34 1 34 35
M  V30 35 1 34 36
M  V30 36 2 36 37
M  V30 37 1 37 5
M  V30 38 1 36 8
M  V30 39 1 32 18
M  V30 40 1 31 24
M  V30 41 1 1 38
M  V30 42 1 1 39
M  V30 43 1 1 40
M  V30 44 1 6 41
M  V30 45 1 9 42
M  V30 46 1 10 43
M  V30 47 1 14 44
M  V30 48 1 14 45
M  V30 49 1 15 46
M  V30 50 1 19 47
M  V30 51 1 21 48
M  V30 52 1 23 49
M  V30 53 1 23 50
M  V30 54 1 25 51
M  V30 55 1 26 52
M  V30 56 1 31 53
M  V30 57 1 35 54
M  V30 58 1 35 55
M  V30 59 1 35 56
M  V30 60 1 37 57
M  V30 END BOND
M  V30 END CTAB
M  END
>  <Dataset>  (709) 
ChEMBL_Kinases

>  <Ligand_Instance>  (709) 
nan

>  <PDB_ID>  (709) 
nan

>  <Standardized_SMILES>  (709) 
COC(=O)c1cnc2ccc(C#CCNC(=O)c3cncn(Cc4ccc(F)c(F)c4)c3=O)c(C)c2c1

>  <Name>  (709) 
nan

>  <Pocket>  (709) 
nan

>  <ATP_Site>  (709) 
nan

>  <Peripheral>  (709) 
nan

>  <Num_H_Atoms_ProtBoundConf>  (709) 
nan

>  <Num_Resolved_Atoms>  (709) 
nan

>  <Num_Not_Resolved_Atoms>  (709) 
nan

$$$$
CHEMBL3689250
     RDKit          3D

  0  0  0  0  0  0  0  0  0  0999 V3000
M  V30 BEGIN CTAB
M  V30 COUNTS 58 62 0 0 0
M  V30 BEGIN ATOM
M  V30 1 O 2.343090 -4.934311 3.855563 0
M  V30 2 C 2.127206 -4.514863 2.669566 0
M  V30 3 N 2.007148 -3.102547 2.697630 0
M  V30 4 C 2.122429 -2.327986 3.911336 0
M  V30 5 C 1.957272 -0.894720 3.659577 0
M  V30 6 C 1.810964 0.286931 3.433646 0
M  V30 7 C 1.647904 1.687092 3.144981 0
M  V30 8 C 2.517104 2.640944 3.578776 0
M  V30 9 C 2.248319 3.955228 3.234239 0
M  V30 10 C 1.172295 4.376450 2.487714 0
M  V30 11 N 0.925989 5.639411 2.164468 0
M  V30 12 C -0.148060 5.997398 1.427681 0
M  V30 13 C -1.013930 5.004896 1.001050 0
M  V30 14 C -2.193708 5.322962 0.201271 0
M  V30 15 C -2.923470 6.490442 0.292025 0
M  V30 16 C -4.036949 6.710163 -0.511884 0
M  V30 17 C -4.450358 5.763507 -1.430854 0
M  V30 18 C -3.752079 4.572898 -1.562013 0
M  V30 19 C -2.656045 4.403347 -0.742497 0
M  V30 20 C -0.802902 3.670461 1.310987 0
M  V30 21 C 0.310168 3.367602 2.065641 0
M  V30 22 C 0.552117 2.033193 2.395578 0
M  V30 23 C 2.026874 -5.375177 1.503034 0
M  V30 24 C 2.186578 -6.725563 1.783721 0
M  V30 25 N 2.120332 -7.644715 0.815127 0
M  V30 26 C 1.898976 -7.334696 -0.473709 0
M  V30 27 N 1.743946 -6.029882 -0.749519 0
M  V30 28 C 1.502546 -5.622501 -2.116428 0
M  V30 29 C 0.073318 -5.572249 -2.475358 0
M  V30 30 C -0.544973 -6.692060 -2.979072 0
M  V30 31 C -1.879608 -6.709410 -3.334407 0
M  V30 32 C -2.663411 -5.559416 -3.189250 0
M  V30 33 F -3.977717 -5.521128 -3.522283 0
M  V30 34 C -2.055640 -4.429446 -2.685252 0
M  V30 35 F -2.796734 -3.291991 -2.532772 0
M  V30 36 C -0.719373 -4.451778 -2.341596 0
M  V30 37 C 1.802398 -5.080587 0.184730 0
M  V30 38 O 1.661389 -3.876684 -0.057272 0
M  V30 39 H 1.827685 -2.585764 1.811266 0
M  V30 40 H 3.132163 -2.444191 4.353583 0
M  V30 41 H 1.407819 -2.712546 4.684678 0
M  V30 42 H 3.369646 2.360080 4.163073 0
M  V30 43 H 2.925646 4.727519 3.568437 0
M  V30 44 H -0.367977 7.018680 1.153104 0
M  V30 45 H -2.577521 7.209803 1.017125 0
M  V30 46 H -4.560998 7.638637 -0.392521 0
M  V30 47 H -5.314465 5.914045 -2.067140 0
M  V30 48 H -4.032170 3.801821 -2.262942 0
M  V30 49 H -2.114282 3.472004 -0.848739 0
M  V30 50 H -1.463358 2.875836 0.990423 0
M  V30 51 H -0.153829 1.275983 2.041021 0
M  V30 52 H 2.373414 -7.214684 2.740251 0
M  V30 53 H 1.842399 -8.060372 -1.267549 0
M  V30 54 H 2.085732 -6.251140 -2.839639 0
M  V30 55 H 1.941406 -4.592980 -2.268196 0
M  V30 56 H 0.006298 -7.602122 -3.112183 0
M  V30 57 H -2.430195 -7.550232 -3.735103 0
M  V30 58 H -0.296209 -3.549442 -1.955861 0
M  V30 END ATOM
M  V30 BEGIN BOND
M  V30 1 2 1 2
M  V30 2 1 2 3
M  V30 3 1 3 4
M  V30 4 1 4 5
M  V30 5 3 5 6
M  V30 6 1 6 7
M  V30 7 2 7 8
M  V30 8 1 8 9
M  V30 9 2 9 10
M  V30 10 1 10 11
M  V30 11 2 11 12
M  V30 12 1 12 13
M  V30 13 1 13 14
M  V30 14 2 14 15
M  V30 15 1 15 16
M  V30 16 2 16 17
M  V30 17 1 17 18
M  V30 18 2 18 19
M  V30 19 2 13 20
M  V30 20 1 20 21
M  V30 21 2 21 22
M  V30 22 1 2 23
M  V30 23 2 23 24
M  V30 24 1 24 25
M  V30 25 2 25 26
M  V30 26 1 26 27
M  V30 27 1 27 28
M  V30 28 1 28 29
M  V30 29 2 29 30
M  V30 30 1 30 31
M  V30 31 2 31 32
M  V30 32 1 32 33
M  V30 33 1 32 34
M  V30 34 1 34 35
M  V30 35 2 34 36
M  V30 36 1 27 37
M  V30 37 2 37 38
M  V30 38 1 22 7
M  V30 39 1 37 23
M  V30 40 1 21 10
M  V30 41 1 36 29
M  V30 42 1 19 14
M  V30 43 1 3 39
M  V30 44 1 4 40
M  V30 45 1 4 41
M  V30 46 1 8 42
M  V30 47 1 9 43
M  V30 48 1 12 44
M  V30 49 1 15 45
M  V30 50 1 16 46
M  V30 51 1 17 47
M  V30 52 1 18 48
M  V30 53 1 19 49
M  V30 54 1 20 50
M  V30 55 1 22 51
M  V30 56 1 24 52
M  V30 57 1 26 53
M  V30 58 1 28 54
M  V30 59 1 28 55
M  V30 60 1 30 56
M  V30 61 1 31 57
M  V30 62 1 36 58
M  V30 END BOND
M  V30 END CTAB
M  END
>  <Dataset>  (710) 
ChEMBL_Kinases

>  <Ligand_Instance>  (710) 
nan

>  <PDB_ID>  (710) 
nan

>  <Standardized_SMILES>  (710) 
O=C(NCC#Cc1ccc2ncc(-c3ccccc3)cc2c1)c1cncn(Cc2ccc(F)c(F)c2)c1=O

>  <Name>  (710) 
nan

>  <Pocket>  (710) 
nan

>  <ATP_Site>  (710) 
nan

>  <Peripheral>  (710) 
nan

>  <Num_H_Atoms_ProtBoundConf>  (710) 
nan

>  <Num_Resolved_Atoms>  (710) 
nan

>  <Num_Not_Resolved_Atoms>  (710) 
nan

$$$$
CHEMBL3689249
     RDKit          3D

  0  0  0  0  0  0  0  0  0  0999 V3000
M  V30 BEGIN CTAB
M  V30 COUNTS 48 51 0 0 0
M  V30 BEGIN ATOM
M  V30 1 O 1.626844 -1.823768 1.054201 0
M  V30 2 C 0.440149 -1.663473 1.505491 0
M  V30 3 N 0.527745 -1.350802 2.887166 0
M  V30 4 C 1.952118 -1.332978 3.262185 0
M  V30 5 C 2.689308 -0.328213 2.487815 0
M  V30 6 C 3.302765 0.492578 1.828908 0
M  V30 7 C 4.017458 1.459164 1.027124 0
M  V30 8 C 5.197595 1.002034 0.476543 0
M  V30 9 C 5.946235 1.878117 -0.311922 0
M  V30 10 C 5.472458 3.154020 -0.502326 0
M  V30 11 N 6.153332 4.041250 -1.253480 0
M  V30 12 C 5.741598 5.302600 -1.476394 0
M  V30 13 C 4.546135 5.742449 -0.909919 0
M  V30 14 C 3.806723 4.862189 -0.125539 0
M  V30 15 C 4.287856 3.577601 0.063625 0
M  V30 16 C 3.511174 2.730884 0.858204 0
M  V30 17 C -0.763455 -1.791086 0.697843 0
M  V30 18 C -0.505349 -2.110793 -0.642380 0
M  V30 19 N -1.475356 -2.270375 -1.540671 0
M  V30 20 C -2.759846 -2.126519 -1.181382 0
M  V30 21 N -3.040369 -1.820729 0.093540 0
M  V30 22 C -4.416653 -1.662087 0.502863 0
M  V30 23 C -4.937191 -2.981133 0.947242 0
M  V30 24 C -4.901778 -3.478693 2.232403 0
M  V30 25 C -5.393199 -4.697299 2.587483 0
M  V30 26 C -5.961440 -5.479461 1.594413 0
M  V30 27 F -6.454120 -6.698099 1.943481 0
M  V30 28 C -6.030412 -5.043395 0.285007 0
M  V30 29 F -6.592734 -5.834476 -0.659456 0
M  V30 30 C -5.515785 -3.801284 -0.010699 0
M  V30 31 C -2.085996 -1.654502 1.017404 0
M  V30 32 O -2.292364 -1.372846 2.201885 0
M  V30 33 H -0.364094 -1.189698 3.403515 0
M  V30 34 H 2.339811 -2.355391 3.091131 0
M  V30 35 H 2.054286 -1.105192 4.349701 0
M  V30 36 H 5.569586 0.001966 0.625393 0
M  V30 37 H 6.880180 1.622519 -0.787634 0
M  V30 38 H 6.352938 5.966595 -2.100883 0
M  V30 39 H 4.287037 6.761968 -1.135230 0
M  V30 40 H 2.888969 5.235469 0.295929 0
M  V30 41 H 2.585896 3.050121 1.304638 0
M  V30 42 H 0.487840 -2.251815 -1.050033 0
M  V30 43 H -3.552889 -2.255319 -1.908522 0
M  V30 44 H -4.527975 -0.897822 1.301668 0
M  V30 45 H -4.993764 -1.337271 -0.398529 0
M  V30 46 H -4.462596 -2.863024 2.978209 0
M  V30 47 H -5.325022 -5.013336 3.624320 0
M  V30 48 H -5.569625 -3.457860 -1.039606 0
M  V30 END ATOM
M  V30 BEGIN BOND
M  V30 1 2 1 2
M  V30 2 1 2 3
M  V30 3 1 3 4
M  V30 4 1 4 5
M  V30 5 3 5 6
M  V30 6 1 6 7
M  V30 7 2 7 8
M  V30 8 1 8 9
M  V30 9 2 9 10
M  V30 10 1 10 11
M  V30 11 2 11 12
M  V30 12 1 12 13
M  V30 13 2 13 14
M  V30 14 1 14 15
M  V30 15 2 15 16
M  V30 16 1 2 17
M  V30 17 2 17 18
M  V30 18 1 18 19
M  V30 19 2 19 20
M  V30 20 1 20 21
M  V30 21 1 21 22
M  V30 22 1 22 23
M  V30 23 2 23 24
M  V30 24 1 24 25
M  V30 25 2 25 26
M  V30 26 1 26 27
M  V30 27 1 26 28
M  V30 28 1 28 29
M  V30 29 2 28 30
M  V30 30 1 21 31
M  V30 31 2 31 32
M  V30 32 1 16 7
M  V30 33 1 31 17
M  V30 34 1 15 10
M  V30 35 1 30 23
M  V30 36 1 3 33
M  V30 37 1 4 34
M  V30 38 1 4 35
M  V30 39 1 8 36
M  V30 40 1 9 37
M  V30 41 1 12 38
M  V30 42 1 13 39
M  V30 43 1 14 40
M  V30 44 1 16 41
M  V30 45 1 18 42
M  V30 46 1 20 43
M  V30 47 1 22 44
M  V30 48 1 22 45
M  V30 49 1 24 46
M  V30 50 1 25 47
M  V30 51 1 30 48
M  V30 END BOND
M  V30 END CTAB
M  END
>  <Dataset>  (711) 
ChEMBL_Kinases

>  <Ligand_Instance>  (711) 
nan

>  <PDB_ID>  (711) 
nan

>  <Standardized_SMILES>  (711) 
O=C(NCC#Cc1ccc2ncccc2c1)c1cncn(Cc2ccc(F)c(F)c2)c1=O

>  <Name>  (711) 
nan

>  <Pocket>  (711) 
nan

>  <ATP_Site>  (711) 
nan

>  <Peripheral>  (711) 
nan

>  <Num_H_Atoms_ProtBoundConf>  (711) 
nan

>  <Num_Resolved_Atoms>  (711) 
nan

>  <Num_Not_Resolved_Atoms>  (711) 
nan

$$$$
CHEMBL3689248
     RDKit          3D

  0  0  0  0  0  0  0  0  0  0999 V3000
M  V30 BEGIN CTAB
M  V30 COUNTS 61 65 0 0 0
M  V30 BEGIN ATOM
M  V30 1 C 1.868399 -2.024121 -0.146756 0
M  V30 2 C 1.949385 -3.359833 0.478378 0
M  V30 3 C 2.018730 -3.473976 1.850817 0
M  V30 4 C 2.013034 -2.275808 2.651174 0
M  V30 5 C 2.011879 -1.257640 3.306719 0
M  V30 6 C 2.000753 -0.012211 4.083517 0
M  V30 7 N 1.051028 0.945280 3.509434 0
M  V30 8 C 0.851238 2.215498 4.065300 0
M  V30 9 O 1.614516 2.322491 5.085286 0
M  V30 10 C -0.057756 3.243565 3.584062 0
M  V30 11 C -0.026047 4.397397 4.361956 0
M  V30 12 N -0.792595 5.465364 4.086863 0
M  V30 13 C -1.630434 5.461766 3.037065 0
M  V30 14 N -1.674500 4.356747 2.274686 0
M  V30 15 C -2.546593 4.298216 1.143037 0
M  V30 16 C -3.896443 3.775629 1.417824 0
M  V30 17 C -4.251525 2.446869 1.310595 0
M  V30 18 C -5.550836 2.047534 1.591254 0
M  V30 19 C -6.486412 2.985950 1.978184 0
M  V30 20 F -7.761479 2.592812 2.252346 0
M  V30 21 C -6.152741 4.323692 2.092678 0
M  V30 22 F -7.040256 5.275972 2.469723 0
M  V30 23 C -4.853383 4.702923 1.808826 0
M  V30 24 C -0.922906 3.258493 2.511515 0
M  V30 25 O -0.915752 2.202609 1.844286 0
M  V30 26 C 2.093626 -4.740677 2.422231 0
M  V30 27 C 2.098481 -5.879259 1.615321 0
M  V30 28 C 2.026684 -5.716501 0.229451 0
M  V30 29 N 2.031164 -6.818042 -0.567648 0
M  V30 30 C 1.965980 -6.750499 -1.901679 0
M  V30 31 C 1.890472 -5.476930 -2.474690 0
M  V30 32 C 1.820183 -5.445330 -3.935547 0
M  V30 33 C 1.199448 -6.458940 -4.640227 0
M  V30 34 C 1.162571 -6.374825 -6.030595 0
M  V30 35 C 1.742554 -5.287172 -6.686275 0
M  V30 36 C 2.350131 -4.303553 -5.916553 0
M  V30 37 C 2.415411 -4.337003 -4.533757 0
M  V30 38 C 1.881997 -4.323432 -1.719157 0
M  V30 39 C 1.951974 -4.464358 -0.347551 0
M  V30 40 H 2.039995 -1.203116 0.583355 0
M  V30 41 H 0.859442 -1.918318 -0.590710 0
M  V30 42 H 2.639087 -1.927339 -0.949496 0
M  V30 43 H 3.037779 0.372509 4.043337 0
M  V30 44 H 1.731702 -0.291226 5.121146 0
M  V30 45 H 0.518874 0.651942 2.662628 0
M  V30 46 H 0.586201 4.589523 5.250641 0
M  V30 47 H -2.264372 6.304458 2.783395 0
M  V30 48 H -2.034947 3.714031 0.326400 0
M  V30 49 H -2.621779 5.344079 0.722592 0
M  V30 50 H -3.491700 1.738147 1.003736 0
M  V30 51 H -5.828600 1.003616 1.506075 0
M  V30 52 H -4.602074 5.741637 1.900225 0
M  V30 53 H 2.147379 -4.805754 3.504526 0
M  V30 54 H 2.157053 -6.850994 2.066069 0
M  V30 55 H 1.971877 -7.645707 -2.527593 0
M  V30 56 H 0.750704 -7.300776 -4.126919 0
M  V30 57 H 0.688037 -7.143209 -6.628774 0
M  V30 58 H 1.726750 -5.200691 -7.767859 0
M  V30 59 H 2.792382 -3.472390 -6.439946 0
M  V30 60 H 2.895390 -3.554514 -3.974997 0
M  V30 61 H 1.823026 -3.345219 -2.194493 0
M  V30 END ATOM
M  V30 BEGIN BOND
M  V30 1 1 1 2
M  V30 2 2 2 3
M  V30 3 1 3 4
M  V30 4 3 4 5
M  V30 5 1 5 6
M  V30 6 1 6 7
M  V30 7 1 7 8
M  V30 8 2 8 9
M  V30 9 1 8 10
M  V30 10 2 10 11
M  V30 11 1 11 12
M  V30 12 2 12 13
M  V30 13 1 13 14
M  V30 14 1 14 15
M  V30 15 1 15 16
M  V30 16 2 16 17
M  V30 17 1 17 18
M  V30 18 2 18 19
M  V30 19 1 19 20
M  V30 20 1 19 21
M  V30 21 1 21 22
M  V30 22 2 21 23
M  V30 23 1 14 24
M  V30 24 2 24 25
M  V30 25 1 3 26
M  V30 26 2 26 27
M  V30 27 1 27 28
M  V30 28 2 28 29
M  V30 29 1 29 30
M  V30 30 2 30 31
M  V30 31 1 31 32
M  V30 32 2 32 33
M  V30 33 1 33 34
M  V30 34 2 34 35
M  V30 35 1 35 36
M  V30 36 2 36 37
M  V30 37 1 31 38
M  V30 38 2 38 39
M  V30 39 1 39 2
M  V30 40 1 24 10
M  V30 41 1 39 28
M  V30 42 1 23 16
M  V30 43 1 37 32
M  V30 44 1 1 40
M  V30 45 1 1 41
M  V30 46 1 1 42
M  V30 47 1 6 43
M  V30 48 1 6 44
M  V30 49 1 7 45
M  V30 50 1 11 46
M  V30 51 1 13 47
M  V30 52 1 15 48
M  V30 53 1 15 49
M  V30 54 1 17 50
M  V30 55 1 18 51
M  V30 56 1 23 52
M  V30 57 1 26 53
M  V30 58 1 27 54
M  V30 59 1 30 55
M  V30 60 1 33 56
M  V30 61 1 34 57
M  V30 62 1 35 58
M  V30 63 1 36 59
M  V30 64 1 37 60
M  V30 65 1 38 61
M  V30 END BOND
M  V30 END CTAB
M  END
>  <Dataset>  (712) 
ChEMBL_Kinases

>  <Ligand_Instance>  (712) 
nan

>  <PDB_ID>  (712) 
nan

>  <Standardized_SMILES>  (712) 
Cc1c(C#CCNC(=O)c2cncn(Cc3ccc(F)c(F)c3)c2=O)ccc2ncc(-c3ccccc3)cc12

>  <Name>  (712) 
nan

>  <Pocket>  (712) 
nan

>  <ATP_Site>  (712) 
nan

>  <Peripheral>  (712) 
nan

>  <Num_H_Atoms_ProtBoundConf>  (712) 
nan

>  <Num_Resolved_Atoms>  (712) 
nan

>  <Num_Not_Resolved_Atoms>  (712) 
nan

$$$$
CHEMBL3689461
     RDKit          3D

  0  0  0  0  0  0  0  0  0  0999 V3000
M  V30 BEGIN CTAB
M  V30 COUNTS 56 59 0 0 0
M  V30 BEGIN ATOM
M  V30 1 C 0.930275 -3.828583 4.047676 0
M  V30 2 C 1.164822 -2.958579 2.811619 0
M  V30 3 S 2.847168 -3.155797 2.333805 0
M  V30 4 O 3.049880 -4.640236 2.069581 0
M  V30 5 O 3.738996 -2.815377 3.495207 0
M  V30 6 N 3.296836 -2.247958 0.955087 0
M  V30 7 C 3.224228 -0.828583 0.956687 0
M  V30 8 C 3.688313 -0.117955 2.045105 0
M  V30 9 C 3.628581 1.260276 2.070772 0
M  V30 10 C 3.085079 1.870225 0.958277 0
M  V30 11 C 2.597350 1.214317 -0.175462 0
M  V30 12 C 2.047652 2.025242 -1.285585 0
M  V30 13 N 0.672949 2.307809 -1.239889 0
M  V30 14 C 0.137055 3.006765 -0.142894 0
M  V30 15 C -1.320877 2.643145 0.109648 0
M  V30 16 C -1.487710 1.125017 0.060118 0
M  V30 17 C -0.905971 0.506837 -1.165542 0 CFG=1
M  V30 18 N -1.961889 -0.195059 -1.909450 0
M  V30 19 C -2.737361 -1.273765 -1.413534 0
M  V30 20 C -3.716546 -1.864973 -2.198368 0
M  V30 21 C -4.469720 -2.910132 -1.722931 0
M  V30 22 C -4.294819 -3.419601 -0.459123 0
M  V30 23 N -4.918100 -4.427392 0.195894 0
M  V30 24 N -4.369215 -4.518246 1.407037 0
M  V30 25 C -3.397406 -3.566027 1.517578 0
M  V30 26 C -3.324791 -2.840416 0.329986 0
M  V30 27 C -2.573997 -1.795345 -0.149435 0
M  V30 28 C -0.217816 1.521498 -2.007810 0
M  V30 29 C 2.685749 -0.165273 -0.138730 0
M  V30 30 H 0.085106 -3.436091 4.636778 0
M  V30 31 H 0.713806 -4.882452 3.771813 0
M  V30 32 H 1.857692 -3.849481 4.678249 0
M  V30 33 H 0.480457 -3.335313 2.028702 0
M  V30 34 H 0.995769 -1.916583 3.094583 0
M  V30 35 H 3.633206 -2.729293 0.087485 0
M  V30 36 H 4.117939 -0.581683 2.925841 0
M  V30 37 H 3.978166 1.861899 2.898569 0
M  V30 38 H 3.042885 2.970142 0.987178 0
M  V30 39 H 2.597638 3.013329 -1.266924 0
M  V30 40 H 2.381584 1.569589 -2.249972 0
M  V30 41 H 0.658925 2.853120 0.822323 0
M  V30 42 H 0.156620 4.098952 -0.337443 0
M  V30 43 H -1.567091 2.953017 1.147455 0
M  V30 44 H -2.013856 3.170894 -0.554756 0
M  V30 45 H -2.560769 0.899788 0.125184 0
M  V30 46 H -0.931685 0.759392 0.970195 0
M  V30 47 H -0.178335 -0.280246 -0.911386 0
M  V30 48 H -2.143129 0.140773 -2.881931 0
M  V30 49 H -3.863928 -1.480542 -3.180653 0
M  V30 50 H -5.228589 -3.354531 -2.355577 0
M  V30 51 H -5.697872 -5.010264 -0.223740 0
M  V30 52 H -2.760798 -3.369701 2.370889 0
M  V30 53 H -1.846661 -1.402929 0.516466 0
M  V30 54 H 0.302830 1.092375 -2.887757 0
M  V30 55 H -0.994556 2.223747 -2.427249 0
M  V30 56 H 2.309434 -0.695604 -1.016801 0
M  V30 END ATOM
M  V30 BEGIN BOND
M  V30 1 1 1 2
M  V30 2 1 2 3
M  V30 3 2 3 4
M  V30 4 2 3 5
M  V30 5 1 3 6
M  V30 6 1 6 7
M  V30 7 2 7 8
M  V30 8 1 8 9
M  V30 9 2 9 10
M  V30 10 1 10 11
M  V30 11 1 11 12
M  V30 12 1 12 13
M  V30 13 1 13 14
M  V30 14 1 14 15
M  V30 15 1 15 16
M  V30 16 1 16 17
M  V30 17 1 17 18
M  V30 18 1 18 19
M  V30 19 2 19 20
M  V30 20 1 20 21
M  V30 21 2 21 22
M  V30 22 1 22 23
M  V30 23 1 23 24
M  V30 24 2 24 25
M  V30 25 1 25 26
M  V30 26 2 26 27
M  V30 27 1 17 28
M  V30 28 2 11 29
M  V30 29 1 29 7
M  V30 30 1 28 13
M  V30 31 1 27 19
M  V30 32 1 26 22
M  V30 33 1 1 30
M  V30 34 1 1 31
M  V30 35 1 1 32
M  V30 36 1 2 33
M  V30 37 1 2 34
M  V30 38 1 6 35
M  V30 39 1 8 36
M  V30 40 1 9 37
M  V30 41 1 10 38
M  V30 42 1 12 39
M  V30 43 1 12 40
M  V30 44 1 14 41
M  V30 45 1 14 42
M  V30 46 1 15 43
M  V30 47 1 15 44
M  V30 48 1 16 45
M  V30 49 1 16 46
M  V30 50 1 17 47 CFG=1
M  V30 51 1 18 48
M  V30 52 1 20 49
M  V30 53 1 21 50
M  V30 54 1 23 51
M  V30 55 1 25 52
M  V30 56 1 27 53
M  V30 57 1 28 54
M  V30 58 1 28 55
M  V30 59 1 29 56
M  V30 END BOND
M  V30 END CTAB
M  END
>  <Dataset>  (713) 
ChEMBL_Kinases

>  <Ligand_Instance>  (713) 
nan

>  <PDB_ID>  (713) 
nan

>  <Standardized_SMILES>  (713) 
CCS(=O)(=O)Nc1cccc(CN2CCC[C@@H](Nc3ccc4[nH]ncc4c3)C2)c1

>  <Name>  (713) 
nan

>  <Pocket>  (713) 
nan

>  <ATP_Site>  (713) 
nan

>  <Peripheral>  (713) 
nan

>  <Num_H_Atoms_ProtBoundConf>  (713) 
nan

>  <Num_Resolved_Atoms>  (713) 
nan

>  <Num_Not_Resolved_Atoms>  (713) 
nan

$$$$
CHEMBL3689231
     RDKit          3D

  0  0  0  0  0  0  0  0  0  0999 V3000
M  V30 BEGIN CTAB
M  V30 COUNTS 94 100 0 0 0
M  V30 BEGIN ATOM
M  V30 1 O 2.864550 -3.875564 -1.481732 0
M  V30 2 C 2.374847 -4.564026 -0.516616 0
M  V30 3 N 3.063553 -4.927261 0.598683 0
M  V30 4 C 4.445848 -4.464478 0.579671 0
M  V30 5 C 4.560037 -3.017922 0.438974 0
M  V30 6 C 4.670343 -1.829980 0.309963 0
M  V30 7 C 4.817811 -0.405779 0.134712 0
M  V30 8 C 6.094126 0.011788 -0.237221 0
M  V30 9 C 6.405681 1.341254 -0.466697 0
M  V30 10 C 5.391914 2.260329 -0.312641 0
M  V30 11 N 5.579989 3.588068 -0.520040 0
M  V30 12 C 4.557354 4.442390 -0.363952 0
M  V30 13 C 3.289200 4.044590 0.004889 0
M  V30 14 N 2.198023 4.978482 0.155691 0
M  V30 15 C 0.957209 4.356998 0.583584 0 CFG=1
M  V30 16 C 1.119665 3.742670 1.953275 0
M  V30 17 C -0.074122 3.948929 2.839191 0
M  V30 18 C -1.382063 3.726222 2.134331 0 CFG=2
M  V30 19 N -1.683315 2.359066 1.881849 0
M  V30 20 C -1.759123 1.532407 3.057200 0
M  V30 21 C -2.142876 0.139035 2.541489 0
M  V30 22 N -3.573207 0.094442 2.260191 0
M  V30 23 C -3.738116 -0.772120 1.101569 0
M  V30 24 C -3.389419 -2.193784 1.492304 0
M  V30 25 C -3.471764 -3.278025 0.500296 0
M  V30 26 C -2.103137 -2.788480 0.926952 0
M  V30 27 C -3.971810 1.423633 1.873735 0
M  V30 28 C -2.881383 2.137033 1.115692 0
M  V30 29 C -1.443252 4.490150 0.821827 0
M  V30 30 C -0.187175 5.329726 0.638013 0
M  V30 31 N 3.160636 2.722070 0.196340 0
M  V30 32 C 4.141769 1.849440 0.052804 0
M  V30 33 C 3.817409 0.517139 0.286043 0
M  V30 34 C 1.288549 -4.463857 -1.397003 0
M  V30 35 C 0.573710 -5.446689 -0.503129 0
M  V30 36 C -0.735550 -6.006501 -0.610168 0
M  V30 37 C -1.506871 -5.591005 -1.722157 0
M  V30 38 N -0.922674 -4.713433 -2.555335 0
M  V30 39 C -1.482114 -4.160027 -3.723667 0 CFG=2
M  V30 40 C -0.600861 -3.557211 -4.744063 0
M  V30 41 O 0.336245 -4.475272 -5.259126 0
M  V30 42 C -2.581658 -3.167996 -3.434866 0
M  V30 43 C -2.173994 -1.880513 -3.149165 0
M  V30 44 C -3.135951 -0.933020 -2.889332 0
M  V30 45 C -4.481756 -1.210652 -2.900659 0
M  V30 46 C -4.806155 -2.501928 -3.190070 0
M  V30 47 F -6.128620 -2.839696 -3.216033 0
M  V30 48 C -3.930219 -3.545369 -3.469773 0
M  V30 49 C 0.267103 -4.369947 -2.224336 0
M  V30 50 O 0.995486 -3.529756 -2.902825 0
M  V30 51 H 2.376816 -5.439793 1.151105 0
M  V30 52 H 5.016174 -4.932390 -0.265833 0
M  V30 53 H 4.925073 -4.789877 1.518539 0
M  V30 54 H 6.919063 -0.669612 -0.369071 0
M  V30 55 H 7.408096 1.661852 -0.759439 0
M  V30 56 H 4.759453 5.485138 -0.542101 0
M  V30 57 H 2.424649 5.973255 -0.056928 0
M  V30 58 H 0.671332 3.586675 -0.170775 0
M  V30 59 H 1.377073 2.642206 1.862277 0
M  V30 60 H 2.043450 4.175296 2.392172 0
M  V30 61 H -0.063897 3.301071 3.714979 0
M  V30 62 H -0.064335 4.995795 3.197901 0
M  V30 63 H -2.179774 4.142407 2.776533 0
M  V30 64 H -0.806658 1.410022 3.588746 0
M  V30 65 H -2.561640 1.794081 3.756127 0
M  V30 66 H -1.551581 -0.031318 1.619277 0
M  V30 67 H -1.831637 -0.646793 3.277382 0
M  V30 68 H -3.088926 -0.488521 0.252851 0
M  V30 69 H -4.784124 -0.678039 0.746194 0
M  V30 70 H -3.661729 -2.430989 2.540959 0
M  V30 71 H -3.852657 -2.977152 -0.497179 0
M  V30 72 H -3.751330 -4.296030 0.813696 0
M  V30 73 H -1.535987 -3.473153 1.620563 0
M  V30 74 H -1.548797 -2.194896 0.179597 0
M  V30 75 H -4.359097 2.021613 2.722472 0
M  V30 76 H -4.816717 1.322488 1.155675 0
M  V30 77 H -2.670542 1.506111 0.202272 0
M  V30 78 H -3.323667 3.129858 0.815079 0
M  V30 79 H -1.495330 3.807137 -0.055718 0
M  V30 80 H -2.301929 5.176755 0.750043 0
M  V30 81 H -0.090364 6.047224 1.475028 0
M  V30 82 H -0.254421 5.842437 -0.345698 0
M  V30 83 H 2.848683 0.135605 0.575313 0
M  V30 84 H 0.718515 -6.055020 0.449369 0
M  V30 85 H -1.414022 -6.701385 -0.093055 0
M  V30 86 H -2.502790 -5.829273 -2.067030 0
M  V30 87 H -2.016596 -5.016991 -4.245325 0
M  V30 88 H -1.284659 -3.395909 -5.649734 0
M  V30 89 H -0.204945 -2.560842 -4.563147 0
M  V30 90 H -0.119440 -5.132460 -5.846224 0
M  V30 91 H -1.172478 -1.525352 -3.103987 0
M  V30 92 H -2.865679 0.107246 -2.657369 0
M  V30 93 H -5.273725 -0.489822 -2.700122 0
M  V30 94 H -4.204529 -4.543163 -3.693068 0
M  V30 END ATOM
M  V30 BEGIN BOND
M  V30 1 2 1 2
M  V30 2 1 2 3
M  V30 3 1 3 4
M  V30 4 1 4 5
M  V30 5 3 5 6
M  V30 6 1 6 7
M  V30 7 2 7 8
M  V30 8 1 8 9
M  V30 9 2 9 10
M  V30 10 1 10 11
M  V30 11 2 11 12
M  V30 12 1 12 13
M  V30 13 1 13 14
M  V30 14 1 14 15
M  V30 15 1 15 16
M  V30 16 1 16 17
M  V30 17 1 17 18
M  V30 18 1 18 19
M  V30 19 1 19 20
M  V30 20 1 20 21
M  V30 21 1 21 22
M  V30 22 1 22 23
M  V30 23 1 23 24
M  V30 24 1 24 25
M  V30 25 1 25 26
M  V30 26 1 22 27
M  V30 27 1 27 28
M  V30 28 1 18 29
M  V30 29 1 29 30
M  V30 30 2 13 31
M  V30 31 1 31 32
M  V30 32 2 32 33
M  V30 33 1 2 34
M  V30 34 2 34 35
M  V30 35 1 35 36
M  V30 36 2 36 37
M  V30 37 1 37 38
M  V30 38 1 38 39
M  V30 39 1 39 40
M  V30 40 1 40 41
M  V30 41 1 39 42
M  V30 42 2 42 43
M  V30 43 1 43 44
M  V30 44 2 44 45
M  V30 45 1 45 46
M  V30 46 1 46 47
M  V30 47 2 46 48
M  V30 48 1 38 49
M  V30 49 2 49 50
M  V30 50 1 33 7
M  V30 51 1 49 34
M  V30 52 1 32 10
M  V30 53 1 48 42
M  V30 54 1 30 15
M  V30 55 1 28 19
M  V30 56 1 26 24
M  V30 57 1 3 51
M  V30 58 1 4 52
M  V30 59 1 4 53
M  V30 60 1 8 54
M  V30 61 1 9 55
M  V30 62 1 12 56
M  V30 63 1 14 57
M  V30 64 1 15 58 CFG=3
M  V30 65 1 16 59
M  V30 66 1 16 60
M  V30 67 1 17 61
M  V30 68 1 17 62
M  V30 69 1 18 63 CFG=1
M  V30 70 1 20 64
M  V30 71 1 20 65
M  V30 72 1 21 66
M  V30 73 1 21 67
M  V30 74 1 23 68
M  V30 75 1 23 69
M  V30 76 1 24 70
M  V30 77 1 25 71
M  V30 78 1 25 72
M  V30 79 1 26 73
M  V30 80 1 26 74
M  V30 81 1 27 75
M  V30 82 1 27 76
M  V30 83 1 28 77
M  V30 84 1 28 78
M  V30 85 1 29 79
M  V30 86 1 29 80
M  V30 87 1 30 81
M  V30 88 1 30 82
M  V30 89 1 33 83
M  V30 90 1 35 84
M  V30 91 1 36 85
M  V30 92 1 37 86
M  V30 93 1 39 87 CFG=3
M  V30 94 1 40 88
M  V30 95 1 40 89
M  V30 96 1 41 90
M  V30 97 1 43 91
M  V30 98 1 44 92
M  V30 99 1 45 93
M  V30 100 1 48 94
M  V30 END BOND
M  V30 END CTAB
M  END
>  <Dataset>  (714) 
ChEMBL_Kinases

>  <Ligand_Instance>  (714) 
nan

>  <PDB_ID>  (714) 
nan

>  <Standardized_SMILES>  (714) 
O=C(NCC#Cc1ccc2ncc(N[C@H]3CC[C@H](N4CCN(CC5CC5)CC4)CC3)nc2c1)c1cccn([C@H](CO)c2cccc(F)c2)c1=O

>  <Name>  (714) 
nan

>  <Pocket>  (714) 
nan

>  <ATP_Site>  (714) 
nan

>  <Peripheral>  (714) 
nan

>  <Num_H_Atoms_ProtBoundConf>  (714) 
nan

>  <Num_Resolved_Atoms>  (714) 
nan

>  <Num_Not_Resolved_Atoms>  (714) 
nan

$$$$
CHEMBL3689232
     RDKit          3D

  0  0  0  0  0  0  0  0  0  0999 V3000
M  V30 BEGIN CTAB
M  V30 COUNTS 89 95 0 0 0
M  V30 BEGIN ATOM
M  V30 1 O -1.910339 -5.952846 -1.413238 0
M  V30 2 C -2.836495 -5.277862 -0.883786 0
M  V30 3 N -2.723972 -3.929735 -1.269075 0
M  V30 4 C -1.657139 -3.500431 -2.151334 0
M  V30 5 C -1.798697 -2.041641 -2.365595 0
M  V30 6 C -1.902977 -0.849109 -2.522953 0
M  V30 7 C -2.041198 0.570948 -2.689442 0
M  V30 8 C -3.085202 1.175538 -3.357924 0
M  V30 9 C -3.116885 2.560590 -3.456364 0
M  V30 10 C -2.131476 3.349912 -2.903026 0
M  V30 11 N -2.102167 4.694179 -2.960567 0
M  V30 12 C -1.122340 5.441172 -2.406849 0
M  V30 13 C -0.084555 4.821939 -1.741168 0
M  V30 14 N 1.001582 5.498261 -1.120205 0
M  V30 15 C 2.083968 4.785660 -0.424311 0 CFG=1
M  V30 16 C 3.102977 5.771259 0.121430 0
M  V30 17 C 4.258972 4.922473 0.581340 0
M  V30 18 C 3.894678 3.911306 1.624709 0 CFG=2
M  V30 19 N 4.629767 2.737098 1.409612 0
M  V30 20 C 4.509227 2.017879 0.204642 0
M  V30 21 C 4.656791 0.514797 0.401486 0
M  V30 22 N 5.797258 0.149314 1.202584 0
M  V30 23 C 6.852822 -0.452022 0.407029 0
M  V30 24 C 6.477088 -1.793013 -0.139731 0
M  V30 25 C 6.115800 -2.938996 0.706433 0
M  V30 26 C 7.478635 -2.930230 0.073356 0
M  V30 27 C 6.356736 1.249706 1.959662 0
M  V30 28 C 5.201028 2.059791 2.512070 0
M  V30 29 C 2.445302 3.663703 1.816907 0
M  V30 30 C 1.497006 4.127658 0.788985 0
M  V30 31 N -0.129459 3.478333 -1.693204 0
M  V30 32 C -1.097375 2.720136 -2.239062 0
M  V30 33 C -1.050329 1.345862 -2.132288 0
M  V30 34 C -3.826832 -5.892139 -0.017587 0
M  V30 35 C -3.693028 -7.267873 0.201204 0
M  V30 36 C -4.586070 -7.915081 1.008631 0
M  V30 37 N -5.596657 -7.279562 1.606859 0
M  V30 38 N -5.750975 -5.972937 1.419034 0
M  V30 39 C -6.835035 -5.294717 2.059758 0
M  V30 40 C -8.022505 -5.312649 1.203433 0
M  V30 41 C -8.929317 -6.365917 1.309554 0
M  V30 42 C -10.079469 -6.461401 0.539285 0
M  V30 43 C -10.363772 -5.485982 -0.380248 0
M  V30 44 F -11.460717 -5.505493 -1.167185 0
M  V30 45 C -9.506973 -4.416573 -0.534746 0
M  V30 46 F -9.764240 -3.438032 -1.434462 0
M  V30 47 C -8.385396 -4.378778 0.256581 0
M  V30 48 C -4.883224 -5.322908 0.629619 0
M  V30 49 O -5.049308 -4.108706 0.471399 0
M  V30 50 H -3.430966 -3.258919 -0.897082 0
M  V30 51 H -1.837458 -3.977516 -3.142795 0
M  V30 52 H -0.669813 -3.793060 -1.792133 0
M  V30 53 H -3.848682 0.543726 -3.785232 0
M  V30 54 H -3.925230 3.056307 -3.976753 0
M  V30 55 H -1.120971 6.504876 -2.464995 0
M  V30 56 H 0.981973 6.539481 -1.189595 0
M  V30 57 H 2.510797 4.118072 -1.172664 0
M  V30 58 H 2.618280 6.330183 0.921601 0
M  V30 59 H 3.466085 6.387461 -0.725788 0
M  V30 60 H 5.043881 5.637266 0.910483 0
M  V30 61 H 4.677506 4.438309 -0.325979 0
M  V30 62 H 4.290446 4.335651 2.586379 0
M  V30 63 H 5.325569 2.318978 -0.487092 0
M  V30 64 H 3.559646 2.136715 -0.354705 0
M  V30 65 H 3.734046 0.132915 0.905981 0
M  V30 66 H 4.657922 0.070475 -0.615266 0
M  V30 67 H 7.723259 -0.595429 1.108681 0
M  V30 68 H 7.205387 0.213242 -0.399654 0
M  V30 69 H 6.108071 -1.725184 -1.204035 0
M  V30 70 H 5.437900 -3.716748 0.309259 0
M  V30 71 H 6.087786 -2.737638 1.797168 0
M  V30 72 H 7.682603 -3.620832 -0.774660 0
M  V30 73 H 8.356343 -2.774327 0.712533 0
M  V30 74 H 6.925409 1.868587 1.219859 0
M  V30 75 H 6.986695 0.841618 2.753784 0
M  V30 76 H 4.465150 1.302421 2.898066 0
M  V30 77 H 5.568074 2.719498 3.294527 0
M  V30 78 H 2.077041 4.037365 2.821179 0
M  V30 79 H 2.316923 2.550787 1.943121 0
M  V30 80 H 0.792025 3.300444 0.480526 0
M  V30 81 H 0.784015 4.898313 1.210222 0
M  V30 82 H -0.230829 0.915727 -1.610750 0
M  V30 83 H -2.929223 -7.900485 -0.217020 0
M  V30 84 H -4.530622 -8.973812 1.211500 0
M  V30 85 H -7.086936 -5.864322 2.996992 0
M  V30 86 H -6.566271 -4.266343 2.385253 0
M  V30 87 H -8.787934 -7.178869 2.007557 0
M  V30 88 H -10.763638 -7.294892 0.648948 0
M  V30 89 H -7.709191 -3.532282 0.131871 0
M  V30 END ATOM
M  V30 BEGIN BOND
M  V30 1 2 1 2
M  V30 2 1 2 3
M  V30 3 1 3 4
M  V30 4 1 4 5
M  V30 5 3 5 6
M  V30 6 1 6 7
M  V30 7 2 7 8
M  V30 8 1 8 9
M  V30 9 2 9 10
M  V30 10 1 10 11
M  V30 11 2 11 12
M  V30 12 1 12 13
M  V30 13 1 13 14
M  V30 14 1 14 15
M  V30 15 1 15 16
M  V30 16 1 16 17
M  V30 17 1 17 18
M  V30 18 1 18 19
M  V30 19 1 19 20
M  V30 20 1 20 21
M  V30 21 1 21 22
M  V30 22 1 22 23
M  V30 23 1 23 24
M  V30 24 1 24 25
M  V30 25 1 25 26
M  V30 26 1 22 27
M  V30 27 1 27 28
M  V30 28 1 18 29
M  V30 29 1 29 30
M  V30 30 2 13 31
M  V30 31 1 31 32
M  V30 32 2 32 33
M  V30 33 1 2 34
M  V30 34 2 34 35
M  V30 35 1 35 36
M  V30 36 2 36 37
M  V30 37 1 37 38
M  V30 38 1 38 39
M  V30 39 1 39 40
M  V30 40 2 40 41
M  V30 41 1 41 42
M  V30 42 2 42 43
M  V30 43 1 43 44
M  V30 44 1 43 45
M  V30 45 1 45 46
M  V30 46 2 45 47
M  V30 47 1 38 48
M  V30 48 2 48 49
M  V30 49 1 33 7
M  V30 50 1 48 34
M  V30 51 1 32 10
M  V30 52 1 47 40
M  V30 53 1 30 15
M  V30 54 1 28 19
M  V30 55 1 26 24
M  V30 56 1 3 50
M  V30 57 1 4 51
M  V30 58 1 4 52
M  V30 59 1 8 53
M  V30 60 1 9 54
M  V30 61 1 12 55
M  V30 62 1 14 56
M  V30 63 1 15 57 CFG=3
M  V30 64 1 16 58
M  V30 65 1 16 59
M  V30 66 1 17 60
M  V30 67 1 17 61
M  V30 68 1 18 62 CFG=1
M  V30 69 1 20 63
M  V30 70 1 20 64
M  V30 71 1 21 65
M  V30 72 1 21 66
M  V30 73 1 23 67
M  V30 74 1 23 68
M  V30 75 1 24 69
M  V30 76 1 25 70
M  V30 77 1 25 71
M  V30 78 1 26 72
M  V30 79 1 26 73
M  V30 80 1 27 74
M  V30 81 1 27 75
M  V30 82 1 28 76
M  V30 83 1 28 77
M  V30 84 1 29 78
M  V30 85 1 29 79
M  V30 86 1 30 80
M  V30 87 1 30 81
M  V30 88 1 33 82
M  V30 89 1 35 83
M  V30 90 1 36 84
M  V30 91 1 39 85
M  V30 92 1 39 86
M  V30 93 1 41 87
M  V30 94 1 42 88
M  V30 95 1 47 89
M  V30 END BOND
M  V30 END CTAB
M  END
>  <Dataset>  (715) 
ChEMBL_Kinases

>  <Ligand_Instance>  (715) 
nan

>  <PDB_ID>  (715) 
nan

>  <Standardized_SMILES>  (715) 
O=C(NCC#Cc1ccc2ncc(N[C@H]3CC[C@H](N4CCN(CC5CC5)CC4)CC3)nc2c1)c1ccnn(Cc2ccc(F)c(F)c2)c1=O

>  <Name>  (715) 
nan

>  <Pocket>  (715) 
nan

>  <ATP_Site>  (715) 
nan

>  <Peripheral>  (715) 
nan

>  <Num_H_Atoms_ProtBoundConf>  (715) 
nan

>  <Num_Resolved_Atoms>  (715) 
nan

>  <Num_Not_Resolved_Atoms>  (715) 
nan

$$$$
CHEMBL3689233
     RDKit          3D

  0  0  0  0  0  0  0  0  0  0999 V3000
M  V30 BEGIN CTAB
M  V30 COUNTS 77 82 0 0 0
M  V30 BEGIN ATOM
M  V30 1 O 5.625816 -2.873154 3.323009 0
M  V30 2 C 4.488619 -2.878202 2.728882 0
M  V30 3 N 4.220153 -4.135931 2.438548 0
M  V30 4 C 3.958157 -5.495489 2.139131 0
M  V30 5 C 2.615745 -5.518393 1.465863 0
M  V30 6 C 1.541004 -5.513759 0.927205 0
M  V30 7 C 0.264749 -5.484937 0.298166 0
M  V30 8 C -0.611868 -6.492980 0.092399 0
M  V30 9 C -1.814521 -6.173675 -0.522478 0
M  V30 10 C -2.184333 -4.907028 -0.938508 0
M  V30 11 N -3.353257 -4.643693 -1.521817 0
M  V30 12 C -3.616686 -3.371705 -1.886322 0
M  V30 13 C -2.755658 -2.319488 -1.698379 0
M  V30 14 N -2.925370 -0.958114 -2.030513 0
M  V30 15 C -3.967656 -0.230717 -2.624578 0
M  V30 16 C -4.366223 -0.590824 -4.034136 0
M  V30 17 C -5.705630 0.127501 -4.252662 0
M  V30 18 N -6.027993 1.104468 -3.288940 0
M  V30 19 C -7.137979 0.897954 -2.448748 0
M  V30 20 C -7.429372 1.901446 -1.366164 0
M  V30 21 O -8.804153 1.686008 -1.657788 0
M  V30 22 C -8.387175 1.596973 -3.000761 0
M  V30 23 C -5.005122 1.989482 -2.866310 0
M  V30 24 C -3.671019 1.276144 -2.672591 0
M  V30 25 N -1.601743 -2.687670 -1.101737 0
M  V30 26 C -1.270576 -3.903094 -0.715758 0
M  V30 27 C -0.045540 -4.186383 -0.099477 0
M  V30 28 C 4.312330 -1.494629 2.801974 0
M  V30 29 C 3.004631 -1.606117 2.045444 0
M  V30 30 C 2.030923 -0.653015 1.612677 0
M  V30 31 C 2.330173 0.691786 1.951483 0
M  V30 32 N 3.467823 0.854973 2.616498 0
M  V30 33 C 4.012171 2.107829 3.042303 0 CFG=2
M  V30 34 C 3.757585 3.199471 2.005415 0
M  V30 35 O 4.326687 2.874149 0.766475 0
M  V30 36 C 5.410062 2.099260 3.453015 0
M  V30 37 C 5.725975 2.137812 4.822251 0
M  V30 38 C 7.060133 2.101231 5.200057 0
M  V30 39 C 8.116961 2.029979 4.287202 0
M  V30 40 C 7.812583 1.992244 2.951782 0
M  V30 41 F 8.828211 1.922330 2.060751 0
M  V30 42 C 6.486256 2.027479 2.603190 0
M  V30 43 C 4.147398 -0.211932 2.868955 0
M  V30 44 O 5.302011 -0.254286 3.520390 0
M  V30 45 H 3.327609 -3.815911 2.031483 0
M  V30 46 H 3.874364 -6.145029 3.027456 0
M  V30 47 H 4.712923 -5.936343 1.473002 0
M  V30 48 H -0.235339 -7.420727 0.450315 0
M  V30 49 H -2.484486 -7.025096 -0.663447 0
M  V30 50 H -4.559904 -3.115438 -2.358753 0
M  V30 51 H -2.108315 -0.313169 -1.795693 0
M  V30 52 H -4.912714 -0.348534 -2.025823 0
M  V30 53 H -3.642118 -0.107514 -4.750051 0
M  V30 54 H -4.467918 -1.664835 -4.222344 0
M  V30 55 H -5.689188 0.600172 -5.248884 0
M  V30 56 H -6.478056 -0.670160 -4.265847 0
M  V30 57 H -7.322727 -0.134090 -2.075845 0
M  V30 58 H -7.211599 1.563563 -0.332996 0
M  V30 59 H -7.178728 2.934138 -1.621087 0
M  V30 60 H -8.103093 2.591796 -3.367707 0
M  V30 61 H -9.027648 0.968918 -3.635712 0
M  V30 62 H -5.252898 2.433971 -1.897201 0
M  V30 63 H -4.945167 2.813021 -3.611467 0
M  V30 64 H -3.098307 1.443698 -3.600946 0
M  V30 65 H -3.092610 1.620019 -1.824350 0
M  V30 66 H 0.557509 -3.288034 0.002499 0
M  V30 67 H 2.323794 -2.414868 1.549877 0
M  V30 68 H 1.068230 -0.593947 1.079999 0
M  V30 69 H 1.831870 1.634091 1.794554 0
M  V30 70 H 3.371018 2.437622 3.911056 0
M  V30 71 H 2.702098 3.441593 1.902820 0
M  V30 72 H 4.294403 4.105017 2.379220 0
M  V30 73 H 3.747723 2.119054 0.418685 0
M  V30 74 H 4.945020 2.203408 5.603928 0
M  V30 75 H 7.313069 2.130311 6.269811 0
M  V30 76 H 9.115729 2.008690 4.687320 0
M  V30 77 H 6.322913 1.998322 1.526403 0
M  V30 END ATOM
M  V30 BEGIN BOND
M  V30 1 2 1 2
M  V30 2 1 2 3
M  V30 3 1 3 4
M  V30 4 1 4 5
M  V30 5 3 5 6
M  V30 6 1 6 7
M  V30 7 2 7 8
M  V30 8 1 8 9
M  V30 9 2 9 10
M  V30 10 1 10 11
M  V30 11 2 11 12
M  V30 12 1 12 13
M  V30 13 1 13 14
M  V30 14 1 14 15
M  V30 15 1 15 16
M  V30 16 1 16 17
M  V30 17 1 17 18
M  V30 18 1 18 19
M  V30 19 1 19 20
M  V30 20 1 20 21
M  V30 21 1 21 22
M  V30 22 1 18 23
M  V30 23 1 23 24
M  V30 24 2 13 25
M  V30 25 1 25 26
M  V30 26 2 26 27
M  V30 27 1 2 28
M  V30 28 2 28 29
M  V30 29 1 29 30
M  V30 30 2 30 31
M  V30 31 1 31 32
M  V30 32 1 32 33
M  V30 33 1 33 34
M  V30 34 1 34 35
M  V30 35 1 33 36
M  V30 36 2 36 37
M  V30 37 1 37 38
M  V30 38 2 38 39
M  V30 39 1 39 40
M  V30 40 1 40 41
M  V30 41 2 40 42
M  V30 42 1 32 43
M  V30 43 2 43 44
M  V30 44 1 27 7
M  V30 45 1 43 28
M  V30 46 1 26 10
M  V30 47 1 42 36
M  V30 48 1 24 15
M  V30 49 1 22 19
M  V30 50 1 3 45
M  V30 51 1 4 46
M  V30 52 1 4 47
M  V30 53 1 8 48
M  V30 54 1 9 49
M  V30 55 1 12 50
M  V30 56 1 14 51
M  V30 57 1 15 52
M  V30 58 1 16 53
M  V30 59 1 16 54
M  V30 60 1 17 55
M  V30 61 1 17 56
M  V30 62 1 19 57
M  V30 63 1 20 58
M  V30 64 1 20 59
M  V30 65 1 22 60
M  V30 66 1 22 61
M  V30 67 1 23 62
M  V30 68 1 23 63
M  V30 69 1 24 64
M  V30 70 1 24 65
M  V30 71 1 27 66
M  V30 72 1 29 67
M  V30 73 1 30 68
M  V30 74 1 31 69
M  V30 75 1 33 70 CFG=1
M  V30 76 1 34 71
M  V30 77 1 34 72
M  V30 78 1 35 73
M  V30 79 1 37 74
M  V30 80 1 38 75
M  V30 81 1 39 76
M  V30 82 1 42 77
M  V30 END BOND
M  V30 END CTAB
M  END
>  <Dataset>  (716) 
ChEMBL_Kinases

>  <Ligand_Instance>  (716) 
nan

>  <PDB_ID>  (716) 
nan

>  <Standardized_SMILES>  (716) 
O=C(NCC#Cc1ccc2ncc(NC3CCN(C4COC4)CC3)nc2c1)c1cccn([C@H](CO)c2cccc(F)c2)c1=O

>  <Name>  (716) 
nan

>  <Pocket>  (716) 
nan

>  <ATP_Site>  (716) 
nan

>  <Peripheral>  (716) 
nan

>  <Num_H_Atoms_ProtBoundConf>  (716) 
nan

>  <Num_Resolved_Atoms>  (716) 
nan

>  <Num_Not_Resolved_Atoms>  (716) 
nan

$$$$
CHEMBL3689234
     RDKit          3D

  0  0  0  0  0  0  0  0  0  0999 V3000
M  V30 BEGIN CTAB
M  V30 COUNTS 83 88 0 0 0
M  V30 BEGIN ATOM
M  V30 1 O 2.885634 -1.895986 3.945759 0
M  V30 2 C 2.660868 -1.300342 2.857681 0
M  V30 3 N 2.558331 -2.151647 1.806921 0
M  V30 4 C 2.581610 -3.551819 1.502854 0
M  V30 5 C 2.398106 -3.731157 0.070030 0
M  V30 6 C 2.221729 -3.889055 -1.144805 0
M  V30 7 C 1.994275 -4.060002 -2.541894 0
M  V30 8 C 2.781467 -4.559619 -3.503022 0
M  V30 9 C 2.348287 -4.564676 -4.838090 0
M  V30 10 C 1.090291 -4.041539 -5.132503 0
M  V30 11 N 0.703156 -4.049935 -6.399963 0
M  V30 12 C -0.459660 -3.588555 -6.861427 0
M  V30 13 C -1.301017 -3.063998 -5.866463 0
M  V30 14 N -2.622094 -2.454899 -5.826049 0
M  V30 15 C -3.413392 -1.990118 -4.720137 0 CFG=1
M  V30 16 C -3.695721 -3.045891 -3.714811 0
M  V30 17 C -3.347540 -2.767879 -2.295365 0
M  V30 18 C -3.486497 -1.382842 -1.794367 0 CFG=2
M  V30 19 N -4.602230 -1.293534 -0.904133 0
M  V30 20 C -4.965437 0.050880 -0.512521 0
M  V30 21 C -4.046556 0.693798 0.492895 0
M  V30 22 O -4.057699 -0.097212 1.625831 0
M  V30 23 C -3.518273 -1.340543 1.313790 0
M  V30 24 C -4.450654 -2.035009 0.330268 0
M  V30 25 C -3.585626 -0.337726 -2.863888 0
M  V30 26 C -2.844200 -0.731377 -4.126498 0
M  V30 27 N -0.892881 -3.061519 -4.584567 0
M  V30 28 C 0.265342 -3.519067 -4.125186 0
M  V30 29 C 0.731212 -3.537013 -2.840481 0
M  V30 30 C 2.613974 0.069645 3.172502 0
M  V30 31 C 1.613229 0.334839 2.064735 0
M  V30 32 C 0.961295 1.534624 1.621133 0
M  V30 33 C 1.282038 2.710483 2.318156 0
M  V30 34 N 2.191595 2.546303 3.337123 0
M  V30 35 C 2.589055 3.700030 4.041338 0 CFG=2
M  V30 36 C 3.235445 4.714166 3.052541 0
M  V30 37 O 4.314992 4.018857 2.520794 0
M  V30 38 C 3.438879 3.574301 5.211957 0
M  V30 39 C 2.835626 3.465578 6.474893 0
M  V30 40 C 3.453448 3.348870 7.707734 0
M  V30 41 C 4.852574 3.339812 7.691729 0
M  V30 42 C 5.514742 3.440713 6.504523 0
M  V30 43 F 6.872766 3.437806 6.423583 0
M  V30 44 C 4.817429 3.551493 5.325144 0
M  V30 45 C 2.570393 1.290111 3.445614 0
M  V30 46 O 3.439881 1.070544 4.398209 0
M  V30 47 H 2.439761 -1.570997 0.907862 0
M  V30 48 H 1.746797 -4.081296 2.033360 0
M  V30 49 H 3.566492 -3.987394 1.834472 0
M  V30 50 H 3.710443 -4.921490 -3.116171 0
M  V30 51 H 3.029013 -4.967374 -5.565602 0
M  V30 52 H -0.994176 -3.469303 -7.782505 0
M  V30 53 H -2.892247 -2.422712 -6.842758 0
M  V30 54 H -4.386995 -1.678316 -5.169296 0
M  V30 55 H -3.044226 -3.933912 -4.006747 0
M  V30 56 H -4.749267 -3.430628 -3.867005 0
M  V30 57 H -3.996966 -3.470485 -1.687832 0
M  V30 58 H -2.307959 -3.120997 -2.037542 0
M  V30 59 H -2.570577 -1.121390 -1.163494 0
M  V30 60 H -5.950952 -0.080482 0.037642 0
M  V30 61 H -5.196683 0.713677 -1.364245 0
M  V30 62 H -4.541015 1.681499 0.744409 0
M  V30 63 H -3.007162 0.843496 0.142752 0
M  V30 64 H -3.531730 -1.944624 2.251121 0
M  V30 65 H -2.494401 -1.245316 0.965199 0
M  V30 66 H -5.476262 -2.014476 0.803870 0
M  V30 67 H -4.170655 -3.080979 0.210824 0
M  V30 68 H -4.654923 -0.155300 -3.102625 0
M  V30 69 H -3.118254 0.587983 -2.496061 0
M  V30 70 H -1.763129 -0.867593 -3.972216 0
M  V30 71 H -2.967957 0.108933 -4.825397 0
M  V30 72 H -0.025531 -3.098228 -2.172554 0
M  V30 73 H 1.054016 -0.295339 1.260128 0
M  V30 74 H 0.220038 1.785096 0.834375 0
M  V30 75 H 0.899924 3.688988 2.134968 0
M  V30 76 H 1.616187 4.249571 4.300450 0
M  V30 77 H 3.484202 5.634633 3.581614 0
M  V30 78 H 2.518264 4.894387 2.194202 0
M  V30 79 H 3.939886 3.273169 1.981517 0
M  V30 80 H 1.758720 3.474088 6.545048 0
M  V30 81 H 2.935121 3.262440 8.645459 0
M  V30 82 H 5.474905 3.264472 8.592632 0
M  V30 83 H 5.395562 3.627642 4.417980 0
M  V30 END ATOM
M  V30 BEGIN BOND
M  V30 1 2 1 2
M  V30 2 1 2 3
M  V30 3 1 3 4
M  V30 4 1 4 5
M  V30 5 3 5 6
M  V30 6 1 6 7
M  V30 7 2 7 8
M  V30 8 1 8 9
M  V30 9 2 9 10
M  V30 10 1 10 11
M  V30 11 2 11 12
M  V30 12 1 12 13
M  V30 13 1 13 14
M  V30 14 1 14 15
M  V30 15 1 15 16
M  V30 16 1 16 17
M  V30 17 1 17 18
M  V30 18 1 18 19
M  V30 19 1 19 20
M  V30 20 1 20 21
M  V30 21 1 21 22
M  V30 22 1 22 23
M  V30 23 1 23 24
M  V30 24 1 18 25
M  V30 25 1 25 26
M  V30 26 2 13 27
M  V30 27 1 27 28
M  V30 28 2 28 29
M  V30 29 1 2 30
M  V30 30 2 30 31
M  V30 31 1 31 32
M  V30 32 2 32 33
M  V30 33 1 33 34
M  V30 34 1 34 35
M  V30 35 1 35 36
M  V30 36 1 36 37
M  V30 37 1 35 38
M  V30 38 2 38 39
M  V30 39 1 39 40
M  V30 40 2 40 41
M  V30 41 1 41 42
M  V30 42 1 42 43
M  V30 43 2 42 44
M  V30 44 1 34 45
M  V30 45 2 45 46
M  V30 46 1 29 7
M  V30 47 1 45 30
M  V30 48 1 28 10
M  V30 49 1 44 38
M  V30 50 1 26 15
M  V30 51 1 24 19
M  V30 52 1 3 47
M  V30 53 1 4 48
M  V30 54 1 4 49
M  V30 55 1 8 50
M  V30 56 1 9 51
M  V30 57 1 12 52
M  V30 58 1 14 53
M  V30 59 1 15 54 CFG=3
M  V30 60 1 16 55
M  V30 61 1 16 56
M  V30 62 1 17 57
M  V30 63 1 17 58
M  V30 64 1 18 59 CFG=1
M  V30 65 1 20 60
M  V30 66 1 20 61
M  V30 67 1 21 62
M  V30 68 1 21 63
M  V30 69 1 23 64
M  V30 70 1 23 65
M  V30 71 1 24 66
M  V30 72 1 24 67
M  V30 73 1 25 68
M  V30 74 1 25 69
M  V30 75 1 26 70
M  V30 76 1 26 71
M  V30 77 1 29 72
M  V30 78 1 31 73
M  V30 79 1 32 74
M  V30 80 1 33 75
M  V30 81 1 35 76 CFG=1
M  V30 82 1 36 77
M  V30 83 1 36 78
M  V30 84 1 37 79
M  V30 85 1 39 80
M  V30 86 1 40 81
M  V30 87 1 41 82
M  V30 88 1 44 83
M  V30 END BOND
M  V30 END CTAB
M  END
>  <Dataset>  (717) 
ChEMBL_Kinases

>  <Ligand_Instance>  (717) 
nan

>  <PDB_ID>  (717) 
nan

>  <Standardized_SMILES>  (717) 
O=C(NCC#Cc1ccc2ncc(N[C@H]3CC[C@H](N4CCOCC4)CC3)nc2c1)c1cccn([C@H](CO)c2cccc(F)c2)c1=O

>  <Name>  (717) 
nan

>  <Pocket>  (717) 
nan

>  <ATP_Site>  (717) 
nan

>  <Peripheral>  (717) 
nan

>  <Num_H_Atoms_ProtBoundConf>  (717) 
nan

>  <Num_Resolved_Atoms>  (717) 
nan

>  <Num_Not_Resolved_Atoms>  (717) 
nan

$$$$
CHEMBL3689235
     RDKit          3D

  0  0  0  0  0  0  0  0  0  0999 V3000
M  V30 BEGIN CTAB
M  V30 COUNTS 94 100 0 0 0
M  V30 BEGIN ATOM
M  V30 1 O 0.198486 -5.781458 -0.353514 0
M  V30 2 C -0.042380 -4.647354 -0.904470 0
M  V30 3 N 0.910900 -3.820972 -1.335124 0
M  V30 4 C 2.336067 -4.145249 -1.214441 0
M  V30 5 C 3.077501 -2.981667 -1.765480 0
M  V30 6 C 3.660490 -2.034141 -2.197171 0
M  V30 7 C 4.345019 -0.874374 -2.712473 0
M  V30 8 C 5.277426 -0.839158 -3.718697 0
M  V30 9 C 5.845276 0.356554 -4.084530 0
M  V30 10 C 5.546386 1.562734 -3.505433 0
M  V30 11 N 6.031697 2.769870 -3.766895 0
M  V30 12 C 5.642434 3.881620 -3.097987 0
M  V30 13 C 4.716408 3.827114 -2.104425 0
M  V30 14 N 4.236350 4.931817 -1.305478 0
M  V30 15 C 3.210044 4.594385 -0.327752 0 CFG=1
M  V30 16 C 3.632818 3.490795 0.574853 0
M  V30 17 C 3.402837 3.796477 2.018142 0
M  V30 18 C 1.991657 4.230939 2.310673 0 CFG=2
M  V30 19 N 0.984608 3.260823 2.302029 0
M  V30 20 C -0.348230 3.811622 2.615998 0
M  V30 21 C -1.358944 2.756778 2.212460 0
M  V30 22 N -0.804034 1.579991 1.671696 0
M  V30 23 C -1.325170 1.042049 0.490949 0
M  V30 24 C -1.102265 1.847775 -0.756071 0
M  V30 25 C -1.665316 1.291378 -2.089376 0
M  V30 26 C -0.210332 1.308852 -1.827045 0
M  V30 27 C 0.318712 0.993111 2.261955 0
M  V30 28 C 1.084931 2.065335 3.023515 0
M  V30 29 C 1.560987 5.320062 1.311380 0
M  V30 30 C 2.752926 5.770412 0.461189 0
M  V30 31 N 4.230857 2.595777 -1.849343 0
M  V30 32 C 4.609569 1.491744 -2.502773 0
M  V30 33 C 3.994476 0.327702 -2.080052 0
M  V30 34 C -1.328059 -5.116268 -0.643313 0
M  V30 35 C -1.825592 -3.795627 -1.215943 0
M  V30 36 C -3.203743 -3.387105 -1.344565 0
M  V30 37 C -4.226981 -4.205032 -0.936689 0
M  V30 38 N -3.798639 -5.390515 -0.422905 0
M  V30 39 C -4.608966 -6.452048 0.094070 0 CFG=2
M  V30 40 C -4.724540 -7.643668 -0.832966 0
M  V30 41 O -5.548285 -8.579185 -0.163738 0
M  V30 42 C -5.967782 -5.946732 0.434478 0
M  V30 43 C -6.212743 -5.433004 1.709451 0
M  V30 44 C -7.472556 -4.945776 2.052182 0
M  V30 45 C -8.505030 -4.963567 1.129515 0
M  V30 46 C -8.222537 -5.477140 -0.114589 0
M  V30 47 C -6.988832 -5.967838 -0.489300 0
M  V30 48 C -2.504620 -5.544741 -0.404636 0
M  V30 49 O -1.980831 -6.655798 0.072344 0
M  V30 50 H 0.416013 -2.999645 -1.724731 0
M  V30 51 H 2.578958 -4.206535 -0.140444 0
M  V30 52 H 2.635871 -5.043775 -1.746233 0
M  V30 53 H 5.499924 -1.776641 -4.157602 0
M  V30 54 H 6.587807 0.395255 -4.883179 0
M  V30 55 H 6.049914 4.847612 -3.323591 0
M  V30 56 H 4.691482 5.848196 -1.531670 0
M  V30 57 H 2.339658 4.257375 -0.935513 0
M  V30 58 H 4.699718 3.261363 0.369938 0
M  V30 59 H 3.102956 2.566407 0.237995 0
M  V30 60 H 3.672524 2.996736 2.704979 0
M  V30 61 H 4.059680 4.647706 2.295555 0
M  V30 62 H 2.010187 4.734820 3.298295 0
M  V30 63 H -0.410846 3.874501 3.741622 0
M  V30 64 H -0.526498 4.778451 2.159046 0
M  V30 65 H -2.067188 3.176852 1.457436 0
M  V30 66 H -2.013263 2.442527 3.064719 0
M  V30 67 H -2.413708 0.873825 0.598433 0
M  V30 68 H -0.899946 0.029528 0.345297 0
M  V30 69 H -1.112528 2.934557 -0.644210 0
M  V30 70 H -2.104492 2.034566 -2.773982 0
M  V30 71 H -2.185269 0.320495 -1.974728 0
M  V30 72 H 0.387107 2.017416 -2.435846 0
M  V30 73 H 0.288368 0.320774 -1.717483 0
M  V30 74 H 1.056516 0.553683 1.558796 0
M  V30 75 H 0.052354 0.186846 3.004934 0
M  V30 76 H 2.075206 1.675594 3.286285 0
M  V30 77 H 0.542858 2.180328 4.004363 0
M  V30 78 H 1.154028 6.207955 1.792905 0
M  V30 79 H 0.804311 4.943261 0.592926 0
M  V30 80 H 2.366535 6.574396 -0.213030 0
M  V30 81 H 3.505624 6.197845 1.154910 0
M  V30 82 H 3.260044 0.357220 -1.281783 0
M  V30 83 H -1.472934 -2.807444 -1.674282 0
M  V30 84 H -3.746406 -2.489513 -1.722910 0
M  V30 85 H -5.290311 -4.155217 -0.914297 0
M  V30 86 H -4.201387 -6.850098 1.041781 0
M  V30 87 H -5.110948 -7.399188 -1.827099 0
M  V30 88 H -3.745931 -8.160851 -0.918242 0
M  V30 89 H -5.182699 -8.751153 0.723967 0
M  V30 90 H -5.480645 -5.380191 2.485725 0
M  V30 91 H -7.699371 -4.541206 3.030706 0
M  V30 92 H -9.468180 -4.582925 1.419182 0
M  V30 93 H -8.978509 -5.514624 -0.859112 0
M  V30 94 H -6.830785 -6.363314 -1.488527 0
M  V30 END ATOM
M  V30 BEGIN BOND
M  V30 1 2 1 2
M  V30 2 1 2 3
M  V30 3 1 3 4
M  V30 4 1 4 5
M  V30 5 3 5 6
M  V30 6 1 6 7
M  V30 7 2 7 8
M  V30 8 1 8 9
M  V30 9 2 9 10
M  V30 10 1 10 11
M  V30 11 2 11 12
M  V30 12 1 12 13
M  V30 13 1 13 14
M  V30 14 1 14 15
M  V30 15 1 15 16
M  V30 16 1 16 17
M  V30 17 1 17 18
M  V30 18 1 18 19
M  V30 19 1 19 20
M  V30 20 1 20 21
M  V30 21 1 21 22
M  V30 22 1 22 23
M  V30 23 1 23 24
M  V30 24 1 24 25
M  V30 25 1 25 26
M  V30 26 1 22 27
M  V30 27 1 27 28
M  V30 28 1 18 29
M  V30 29 1 29 30
M  V30 30 2 13 31
M  V30 31 1 31 32
M  V30 32 2 32 33
M  V30 33 1 2 34
M  V30 34 2 34 35
M  V30 35 1 35 36
M  V30 36 2 36 37
M  V30 37 1 37 38
M  V30 38 1 38 39
M  V30 39 1 39 40
M  V30 40 1 40 41
M  V30 41 1 39 42
M  V30 42 2 42 43
M  V30 43 1 43 44
M  V30 44 2 44 45
M  V30 45 1 45 46
M  V30 46 2 46 47
M  V30 47 1 38 48
M  V30 48 2 48 49
M  V30 49 1 33 7
M  V30 50 1 48 34
M  V30 51 1 32 10
M  V30 52 1 47 42
M  V30 53 1 30 15
M  V30 54 1 28 19
M  V30 55 1 26 24
M  V30 56 1 3 50
M  V30 57 1 4 51
M  V30 58 1 4 52
M  V30 59 1 8 53
M  V30 60 1 9 54
M  V30 61 1 12 55
M  V30 62 1 14 56
M  V30 63 1 15 57 CFG=3
M  V30 64 1 16 58
M  V30 65 1 16 59
M  V30 66 1 17 60
M  V30 67 1 17 61
M  V30 68 1 18 62 CFG=1
M  V30 69 1 20 63
M  V30 70 1 20 64
M  V30 71 1 21 65
M  V30 72 1 21 66
M  V30 73 1 23 67
M  V30 74 1 23 68
M  V30 75 1 24 69
M  V30 76 1 25 70
M  V30 77 1 25 71
M  V30 78 1 26 72
M  V30 79 1 26 73
M  V30 80 1 27 74
M  V30 81 1 27 75
M  V30 82 1 28 76
M  V30 83 1 28 77
M  V30 84 1 29 78
M  V30 85 1 29 79
M  V30 86 1 30 80
M  V30 87 1 30 81
M  V30 88 1 33 82
M  V30 89 1 35 83
M  V30 90 1 36 84
M  V30 91 1 37 85
M  V30 92 1 39 86 CFG=1
M  V30 93 1 40 87
M  V30 94 1 40 88
M  V30 95 1 41 89
M  V30 96 1 43 90
M  V30 97 1 44 91
M  V30 98 1 45 92
M  V30 99 1 46 93
M  V30 100 1 47 94
M  V30 END BOND
M  V30 END CTAB
M  END
>  <Dataset>  (718) 
ChEMBL_Kinases

>  <Ligand_Instance>  (718) 
nan

>  <PDB_ID>  (718) 
nan

>  <Standardized_SMILES>  (718) 
O=C(NCC#Cc1ccc2ncc(N[C@H]3CC[C@H](N4CCN(CC5CC5)CC4)CC3)nc2c1)c1cccn([C@H](CO)c2ccccc2)c1=O

>  <Name>  (718) 
nan

>  <Pocket>  (718) 
nan

>  <ATP_Site>  (718) 
nan

>  <Peripheral>  (718) 
nan

>  <Num_H_Atoms_ProtBoundConf>  (718) 
nan

>  <Num_Resolved_Atoms>  (718) 
nan

>  <Num_Not_Resolved_Atoms>  (718) 
nan

$$$$
CHEMBL3689236
     RDKit          3D

  0  0  0  0  0  0  0  0  0  0999 V3000
M  V30 BEGIN CTAB
M  V30 COUNTS 65 69 0 0 0
M  V30 BEGIN ATOM
M  V30 1 O 4.726032 -1.995200 4.921533 0
M  V30 2 C 3.813424 -2.351301 4.099212 0
M  V30 3 N 3.131541 -1.206880 3.626318 0
M  V30 4 C 3.537365 0.106540 4.107661 0
M  V30 5 C 2.662552 1.100597 3.452909 0
M  V30 6 C 1.929038 1.903034 2.917435 0
M  V30 7 C 1.049823 2.836134 2.269922 0
M  V30 8 C 1.344139 4.176867 2.134266 0
M  V30 9 C 0.426613 4.995405 1.491343 0
M  V30 10 C -0.741571 4.464887 1.008133 0
M  V30 11 N -1.645256 5.240377 0.381342 0
M  V30 12 C -2.802857 4.749896 -0.105097 0
M  V30 13 C -3.116227 3.403873 0.021983 0
M  V30 14 C -4.318312 2.701548 -0.441924 0
M  V30 15 C -4.200773 2.148878 -1.849875 0
M  V30 16 C -5.466336 1.434613 -2.279707 0
M  V30 17 C -6.476565 2.402472 -2.858790 0
M  V30 18 N -6.020107 3.043243 -4.055638 0
M  V30 19 C -4.585714 3.004807 -4.173838 0
M  V30 20 C -4.000973 3.310134 -2.812712 0
M  V30 21 N -2.201443 2.629378 0.654224 0
M  V30 22 C -1.047902 3.125495 1.137375 0
M  V30 23 C -0.142102 2.293923 1.777097 0
M  V30 24 C 3.575145 -3.743418 3.754089 0
M  V30 25 C 4.419280 -4.661770 4.389020 0
M  V30 26 N 4.300254 -5.978833 4.153791 0
M  V30 27 C 3.384908 -6.492156 3.313301 0
M  V30 28 N 2.569869 -5.617245 2.699071 0
M  V30 29 C 1.570901 -6.132700 1.785944 0
M  V30 30 C 2.109956 -6.217207 0.386372 0
M  V30 31 C 2.028199 -5.205665 -0.548028 0
M  V30 32 C 2.524777 -5.306360 -1.810484 0
M  V30 33 C 3.154925 -6.483035 -2.208356 0
M  V30 34 F 3.633654 -6.536354 -3.475703 0
M  V30 35 C 3.260874 -7.523194 -1.308252 0
M  V30 36 F 3.882880 -8.635499 -1.757446 0
M  V30 37 C 2.746449 -7.387189 -0.036816 0
M  V30 38 C 2.648028 -4.292754 2.899842 0
M  V30 39 O 1.902227 -3.484278 2.338664 0
M  V30 40 H 2.366866 -1.339135 2.954100 0
M  V30 41 H 3.426711 0.181916 5.200238 0
M  V30 42 H 4.578764 0.300004 3.780732 0
M  V30 43 H 2.291013 4.542473 2.539649 0
M  V30 44 H 0.658713 6.049123 1.385151 0
M  V30 45 H -3.554576 5.333395 -0.613344 0
M  V30 46 H -5.148180 3.459587 -0.477976 0
M  V30 47 H -4.608664 1.937402 0.281615 0
M  V30 48 H -3.371328 1.416719 -1.936301 0
M  V30 49 H -5.191338 0.720377 -3.079574 0
M  V30 50 H -5.940265 0.870518 -1.470611 0
M  V30 51 H -6.766129 3.101832 -2.048571 0
M  V30 52 H -7.366683 1.782032 -3.141105 0
M  V30 53 H -6.456743 2.686022 -4.924259 0
M  V30 54 H -4.199667 2.078959 -4.605807 0
M  V30 55 H -4.306144 3.875671 -4.820834 0
M  V30 56 H -4.614602 4.170314 -2.425591 0
M  V30 57 H -2.945844 3.610264 -2.897636 0
M  V30 58 H -0.382972 1.246438 1.877527 0
M  V30 59 H 5.208692 -4.388846 5.096801 0
M  V30 60 H 3.342975 -7.562138 3.169444 0
M  V30 61 H 1.172199 -7.114035 2.114179 0
M  V30 62 H 0.736894 -5.402179 1.769803 0
M  V30 63 H 1.551158 -4.302034 -0.261880 0
M  V30 64 H 2.429779 -4.473261 -2.503272 0
M  V30 65 H 2.841589 -8.210290 0.644133 0
M  V30 END ATOM
M  V30 BEGIN BOND
M  V30 1 2 1 2
M  V30 2 1 2 3
M  V30 3 1 3 4
M  V30 4 1 4 5
M  V30 5 3 5 6
M  V30 6 1 6 7
M  V30 7 2 7 8
M  V30 8 1 8 9
M  V30 9 2 9 10
M  V30 10 1 10 11
M  V30 11 2 11 12
M  V30 12 1 12 13
M  V30 13 1 13 14
M  V30 14 1 14 15
M  V30 15 1 15 16
M  V30 16 1 16 17
M  V30 17 1 17 18
M  V30 18 1 18 19
M  V30 19 1 19 20
M  V30 20 2 13 21
M  V30 21 1 21 22
M  V30 22 2 22 23
M  V30 23 1 2 24
M  V30 24 2 24 25
M  V30 25 1 25 26
M  V30 26 2 26 27
M  V30 27 1 27 28
M  V30 28 1 28 29
M  V30 29 1 29 30
M  V30 30 2 30 31
M  V30 31 1 31 32
M  V30 32 2 32 33
M  V30 33 1 33 34
M  V30 34 1 33 35
M  V30 35 1 35 36
M  V30 36 2 35 37
M  V30 37 1 28 38
M  V30 38 2 38 39
M  V30 39 1 23 7
M  V30 40 1 38 24
M  V30 41 1 22 10
M  V30 42 1 37 30
M  V30 43 1 20 15
M  V30 44 1 3 40
M  V30 45 1 4 41
M  V30 46 1 4 42
M  V30 47 1 8 43
M  V30 48 1 9 44
M  V30 49 1 12 45
M  V30 50 1 14 46
M  V30 51 1 14 47
M  V30 52 1 15 48
M  V30 53 1 16 49
M  V30 54 1 16 50
M  V30 55 1 17 51
M  V30 56 1 17 52
M  V30 57 1 18 53
M  V30 58 1 19 54
M  V30 59 1 19 55
M  V30 60 1 20 56
M  V30 61 1 20 57
M  V30 62 1 23 58
M  V30 63 1 25 59
M  V30 64 1 27 60
M  V30 65 1 29 61
M  V30 66 1 29 62
M  V30 67 1 31 63
M  V30 68 1 32 64
M  V30 69 1 37 65
M  V30 END BOND
M  V30 END CTAB
M  END
>  <Dataset>  (719) 
ChEMBL_Kinases

>  <Ligand_Instance>  (719) 
nan

>  <PDB_ID>  (719) 
nan

>  <Standardized_SMILES>  (719) 
O=C(NCC#Cc1ccc2ncc(CC3CCNCC3)nc2c1)c1cncn(Cc2ccc(F)c(F)c2)c1=O

>  <Name>  (719) 
nan

>  <Pocket>  (719) 
nan

>  <ATP_Site>  (719) 
nan

>  <Peripheral>  (719) 
nan

>  <Num_H_Atoms_ProtBoundConf>  (719) 
nan

>  <Num_Resolved_Atoms>  (719) 
nan

>  <Num_Not_Resolved_Atoms>  (719) 
nan

$$$$
CHEMBL3689237
     RDKit          3D

  0  0  0  0  0  0  0  0  0  0999 V3000
M  V30 BEGIN CTAB
M  V30 COUNTS 68 72 0 0 0
M  V30 BEGIN ATOM
M  V30 1 C 1.798546 -3.665548 4.689894 0
M  V30 2 N 2.255796 -3.676296 3.311765 0
M  V30 3 C 1.682543 -2.630249 2.528168 0
M  V30 4 C 2.633369 -1.819480 1.724018 0
M  V30 5 C 3.984437 -1.574636 2.256392 0
M  V30 6 C 5.124866 -1.813862 1.286869 0
M  V30 7 C 4.971472 -0.917502 0.114657 0
M  V30 8 C 5.781328 -0.795991 -0.981986 0
M  V30 9 N 5.520311 0.075361 -1.984136 0
M  V30 10 C 4.444044 0.876937 -1.962344 0
M  V30 11 C 4.105509 1.782837 -2.942319 0
M  V30 12 C 2.963604 2.575734 -2.848311 0
M  V30 13 C 2.150620 2.453443 -1.749970 0
M  V30 14 C 0.932451 3.169464 -1.495940 0
M  V30 15 C -0.099723 3.754959 -1.271257 0
M  V30 16 C -1.387400 4.456896 -0.983227 0
M  V30 17 N -2.098016 3.647318 0.044958 0
M  V30 18 C -2.312653 2.384280 -0.480165 0
M  V30 19 O -1.994091 1.965307 -1.643362 0
M  V30 20 C -2.844872 1.103025 -0.203536 0
M  V30 21 C -3.164411 1.344846 1.257466 0
M  V30 22 N -3.736752 0.396975 2.112695 0
M  V30 23 C -4.038695 -0.847883 1.607682 0
M  V30 24 N -3.779743 -1.161981 0.263809 0
M  V30 25 C -4.100352 -2.392961 -0.367451 0
M  V30 26 C -5.499911 -2.356273 -0.860022 0
M  V30 27 C -6.558013 -2.801606 -0.096726 0
M  V30 28 C -7.832381 -2.737106 -0.635849 0
M  V30 29 C -7.978475 -2.230614 -1.907913 0
M  V30 30 F -9.255106 -2.187341 -2.399955 0
M  V30 31 C -6.922222 -1.773657 -2.698306 0
M  V30 32 F -7.186549 -1.288155 -3.948775 0
M  V30 33 C -5.639717 -1.848177 -2.133825 0
M  V30 34 C -3.311156 -0.019291 0.039011 0
M  V30 35 O -3.016718 -0.239789 -1.298560 0
M  V30 36 C 2.474750 1.537427 -0.736921 0
M  V30 37 C 3.615622 0.770520 -0.867901 0
M  V30 38 N 3.900987 -0.104895 0.113855 0
M  V30 39 C 4.246085 -2.406606 3.488409 0
M  V30 40 C 3.685235 -3.761562 3.239043 0
M  V30 41 H 1.019590 -2.881545 4.775157 0
M  V30 42 H 2.678762 -3.482075 5.323763 0
M  V30 43 H 1.442996 -4.678626 4.930172 0
M  V30 44 H 0.929084 -3.084580 1.854590 0
M  V30 45 H 1.118567 -1.970893 3.219669 0
M  V30 46 H 2.147625 -0.822523 1.505912 0
M  V30 47 H 2.747197 -2.245760 0.681891 0
M  V30 48 H 4.077883 -0.473401 2.532225 0
M  V30 49 H 5.092444 -2.872310 0.953817 0
M  V30 50 H 6.077948 -1.523889 1.771032 0
M  V30 51 H 6.648395 -1.449181 -0.991245 0
M  V30 52 H 4.730752 1.877978 -3.792279 0
M  V30 53 H 2.649297 3.299001 -3.580734 0
M  V30 54 H -2.032164 4.503648 -1.848403 0
M  V30 55 H -1.164373 5.400881 -0.466485 0
M  V30 56 H -2.497401 3.663435 1.000304 0
M  V30 57 H -3.103913 2.157246 2.078730 0
M  V30 58 H -4.497496 -1.619635 2.276513 0
M  V30 59 H -3.400201 -2.648853 -1.198089 0
M  V30 60 H -4.051861 -3.192862 0.416286 0
M  V30 61 H -6.273526 -3.169855 0.883600 0
M  V30 62 H -8.630676 -3.091411 -0.023864 0
M  V30 63 H -4.914453 -1.476285 -2.818715 0
M  V30 64 H 1.877301 1.386323 0.161752 0
M  V30 65 H 3.676658 -1.952956 4.329980 0
M  V30 66 H 5.342386 -2.398970 3.660681 0
M  V30 67 H 4.041339 -4.451630 4.034808 0
M  V30 68 H 3.935998 -4.226006 2.283765 0
M  V30 END ATOM
M  V30 BEGIN BOND
M  V30 1 1 1 2
M  V30 2 1 2 3
M  V30 3 1 3 4
M  V30 4 1 4 5
M  V30 5 1 5 6
M  V30 6 1 6 7
M  V30 7 2 7 8
M  V30 8 1 8 9
M  V30 9 2 9 10
M  V30 10 1 10 11
M  V30 11 2 11 12
M  V30 12 1 12 13
M  V30 13 1 13 14
M  V30 14 3 14 15
M  V30 15 1 15 16
M  V30 16 1 16 17
M  V30 17 1 17 18
M  V30 18 2 18 19
M  V30 19 1 18 20
M  V30 20 2 20 21
M  V30 21 1 21 22
M  V30 22 2 22 23
M  V30 23 1 23 24
M  V30 24 1 24 25
M  V30 25 1 25 26
M  V30 26 2 26 27
M  V30 27 1 27 28
M  V30 28 2 28 29
M  V30 29 1 29 30
M  V30 30 1 29 31
M  V30 31 1 31 32
M  V30 32 2 31 33
M  V30 33 1 24 34
M  V30 34 2 34 35
M  V30 35 2 13 36
M  V30 36 1 36 37
M  V30 37 2 37 38
M  V30 38 1 5 39
M  V30 39 1 39 40
M  V30 40 1 40 2
M  V30 41 1 38 7
M  V30 42 1 37 10
M  V30 43 1 34 20
M  V30 44 1 33 26
M  V30 45 1 1 41
M  V30 46 1 1 42
M  V30 47 1 1 43
M  V30 48 1 3 44
M  V30 49 1 3 45
M  V30 50 1 4 46
M  V30 51 1 4 47
M  V30 52 1 5 48
M  V30 53 1 6 49
M  V30 54 1 6 50
M  V30 55 1 8 51
M  V30 56 1 11 52
M  V30 57 1 12 53
M  V30 58 1 16 54
M  V30 59 1 16 55
M  V30 60 1 17 56
M  V30 61 1 21 57
M  V30 62 1 23 58
M  V30 63 1 25 59
M  V30 64 1 25 60
M  V30 65 1 27 61
M  V30 66 1 28 62
M  V30 67 1 33 63
M  V30 68 1 36 64
M  V30 69 1 39 65
M  V30 70 1 39 66
M  V30 71 1 40 67
M  V30 72 1 40 68
M  V30 END BOND
M  V30 END CTAB
M  END
>  <Dataset>  (720) 
ChEMBL_Kinases

>  <Ligand_Instance>  (720) 
nan

>  <PDB_ID>  (720) 
nan

>  <Standardized_SMILES>  (720) 
CN1CCC(Cc2cnc3ccc(C#CCNC(=O)c4cncn(Cc5ccc(F)c(F)c5)c4=O)cc3n2)CC1

>  <Name>  (720) 
nan

>  <Pocket>  (720) 
nan

>  <ATP_Site>  (720) 
nan

>  <Peripheral>  (720) 
nan

>  <Num_H_Atoms_ProtBoundConf>  (720) 
nan

>  <Num_Resolved_Atoms>  (720) 
nan

>  <Num_Not_Resolved_Atoms>  (720) 
nan

$$$$
CHEMBL3689247
     RDKit          3D

  0  0  0  0  0  0  0  0  0  0999 V3000
M  V30 BEGIN CTAB
M  V30 COUNTS 79 83 0 0 0
M  V30 BEGIN ATOM
M  V30 1 C -3.543266 -1.135659 -2.763741 0
M  V30 2 O -2.277262 -0.596381 -2.949148 0
M  V30 3 C -1.541299 -1.288589 -3.903466 0
M  V30 4 C -0.148933 -0.680144 -4.094871 0
M  V30 5 N -0.304124 0.669331 -4.520832 0
M  V30 6 C -0.842469 1.560744 -3.569836 0
M  V30 7 C -0.064218 2.848598 -3.495712 0
M  V30 8 C 1.397489 2.440455 -3.615315 0
M  V30 9 N 2.237590 3.438629 -3.047592 0
M  V30 10 C 2.305546 3.819560 -1.692547 0
M  V30 11 C 3.157957 4.841795 -1.261484 0
M  V30 12 N 3.233723 5.201140 0.032968 0
M  V30 13 C 2.504804 4.610418 0.990298 0
M  V30 14 C 2.564392 4.961587 2.331695 0
M  V30 15 C 1.795898 4.331125 3.308052 0
M  V30 16 C 0.938431 3.317004 2.942271 0
M  V30 17 C 0.099128 2.595872 3.856208 0
M  V30 18 C -0.594039 1.973592 4.622272 0
M  V30 19 C -1.441700 1.186893 5.551065 0
M  V30 20 N -1.683118 -0.146110 4.977768 0
M  V30 21 C -0.429204 -0.787919 4.801181 0
M  V30 22 O 0.487295 0.010051 5.201925 0
M  V30 23 C -0.143379 -2.100549 4.273464 0
M  V30 24 C 1.201708 -2.442078 4.230192 0
M  V30 25 C 1.642383 -3.652006 3.757219 0
M  V30 26 C 0.717726 -4.571269 3.304667 0
M  V30 27 N -0.587060 -4.249472 3.342688 0
M  V30 28 C -1.493270 -5.239535 2.859474 0 CFG=1
M  V30 29 C -2.858099 -4.751983 2.504247 0
M  V30 30 C -0.927643 -6.053491 1.729747 0
M  V30 31 C -0.229071 -7.246494 1.846256 0
M  V30 32 C 0.219894 -7.858366 0.697390 0
M  V30 33 C 0.016662 -7.355780 -0.566531 0
M  V30 34 F 0.502339 -8.037732 -1.653040 0
M  V30 35 C -0.683532 -6.158785 -0.692755 0
M  V30 36 F -0.896649 -5.644045 -1.935680 0
M  V30 37 C -1.129821 -5.552033 0.461469 0
M  V30 38 C -0.998656 -3.070668 3.804858 0
M  V30 39 O -2.207478 -2.771615 3.840691 0
M  V30 40 C 0.879803 2.968126 1.606933 0
M  V30 41 C 1.641210 3.594536 0.646282 0
M  V30 42 C 1.572909 3.235549 -0.684102 0
M  V30 43 C 1.622044 2.140274 -5.057503 0
M  V30 44 C 0.572627 1.153645 -5.509382 0
M  V30 45 H -3.474307 -2.201663 -2.423568 0
M  V30 46 H -4.147933 -1.100397 -3.686859 0
M  V30 47 H -4.064078 -0.521911 -1.998366 0
M  V30 48 H -1.498086 -2.372375 -3.671664 0
M  V30 49 H -2.142894 -1.202702 -4.855471 0
M  V30 50 H 0.352477 -0.783683 -3.105155 0
M  V30 51 H 0.368864 -1.274899 -4.856076 0
M  V30 52 H -1.923227 1.693021 -3.685862 0
M  V30 53 H -0.712411 1.086191 -2.552340 0
M  V30 54 H -0.291467 3.492633 -2.654603 0
M  V30 55 H -0.333433 3.401199 -4.446854 0
M  V30 56 H 1.570015 1.462219 -3.075381 0
M  V30 57 H 2.860571 3.927432 -3.725823 0
M  V30 58 H 3.788260 5.376654 -1.978538 0
M  V30 59 H 3.239958 5.759232 2.615535 0
M  V30 60 H 1.828198 4.587136 4.342439 0
M  V30 61 H -0.916826 1.127505 6.514140 0
M  V30 62 H -2.426616 1.681219 5.670897 0
M  V30 63 H -2.530666 -0.684261 4.691575 0
M  V30 64 H 1.981206 -1.746982 4.578569 0
M  V30 65 H 2.685976 -3.876616 3.740887 0
M  V30 66 H 1.121266 -5.507550 2.943177 0
M  V30 67 H -1.642106 -5.992771 3.688047 0
M  V30 68 H -3.364037 -5.529312 1.864448 0
M  V30 69 H -3.528871 -4.637126 3.377778 0
M  V30 70 H -2.781401 -3.866719 1.862665 0
M  V30 71 H -0.092718 -7.603829 2.857455 0
M  V30 72 H 0.764312 -8.798345 0.864001 0
M  V30 73 H -1.675047 -4.613091 0.304248 0
M  V30 74 H 0.201884 2.160250 1.288623 0
M  V30 75 H 0.886819 2.432213 -0.901642 0
M  V30 76 H 2.663118 1.803083 -5.237739 0
M  V30 77 H 1.512991 3.078085 -5.662228 0
M  V30 78 H -0.001404 1.496885 -6.395748 0
M  V30 79 H 1.154801 0.264771 -5.894509 0
M  V30 END ATOM
M  V30 BEGIN BOND
M  V30 1 1 1 2
M  V30 2 1 2 3
M  V30 3 1 3 4
M  V30 4 1 4 5
M  V30 5 1 5 6
M  V30 6 1 6 7
M  V30 7 1 7 8
M  V30 8 1 8 9
M  V30 9 1 9 10
M  V30 10 2 10 11
M  V30 11 1 11 12
M  V30 12 2 12 13
M  V30 13 1 13 14
M  V30 14 2 14 15
M  V30 15 1 15 16
M  V30 16 1 16 17
M  V30 17 3 17 18
M  V30 18 1 18 19
M  V30 19 1 19 20
M  V30 20 1 20 21
M  V30 21 2 21 22
M  V30 22 1 21 23
M  V30 23 2 23 24
M  V30 24 1 24 25
M  V30 25 2 25 26
M  V30 26 1 26 27
M  V30 27 1 27 28
M  V30 28 1 28 29
M  V30 29 1 28 30
M  V30 30 2 30 31
M  V30 31 1 31 32
M  V30 32 2 32 33
M  V30 33 1 33 34
M  V30 34 1 33 35
M  V30 35 1 35 36
M  V30 36 2 35 37
M  V30 37 1 27 38
M  V30 38 2 38 39
M  V30 39 2 16 40
M  V30 40 1 40 41
M  V30 41 2 41 42
M  V30 42 1 8 43
M  V30 43 1 43 44
M  V30 44 1 44 5
M  V30 45 1 42 10
M  V30 46 1 41 13
M  V30 47 1 38 23
M  V30 48 1 37 30
M  V30 49 1 1 45
M  V30 50 1 1 46
M  V30 51 1 1 47
M  V30 52 1 3 48
M  V30 53 1 3 49
M  V30 54 1 4 50
M  V30 55 1 4 51
M  V30 56 1 6 52
M  V30 57 1 6 53
M  V30 58 1 7 54
M  V30 59 1 7 55
M  V30 60 1 8 56
M  V30 61 1 9 57
M  V30 62 1 11 58
M  V30 63 1 14 59
M  V30 64 1 15 60
M  V30 65 1 19 61
M  V30 66 1 19 62
M  V30 67 1 20 63
M  V30 68 1 24 64
M  V30 69 1 25 65
M  V30 70 1 26 66
M  V30 71 1 28 67 CFG=1
M  V30 72 1 29 68
M  V30 73 1 29 69
M  V30 74 1 29 70
M  V30 75 1 31 71
M  V30 76 1 32 72
M  V30 77 1 37 73
M  V30 78 1 40 74
M  V30 79 1 42 75
M  V30 80 1 43 76
M  V30 81 1 43 77
M  V30 82 1 44 78
M  V30 83 1 44 79
M  V30 END BOND
M  V30 END CTAB
M  END
>  <Dataset>  (721) 
ChEMBL_Kinases

>  <Ligand_Instance>  (721) 
nan

>  <PDB_ID>  (721) 
nan

>  <Standardized_SMILES>  (721) 
COCCN1CCC(Nc2cnc3ccc(C#CCNC(=O)c4cccn([C@@H](C)c5ccc(F)c(F)c5)c4=O)cc3c2)CC1

>  <Name>  (721) 
nan

>  <Pocket>  (721) 
nan

>  <ATP_Site>  (721) 
nan

>  <Peripheral>  (721) 
nan

>  <Num_H_Atoms_ProtBoundConf>  (721) 
nan

>  <Num_Resolved_Atoms>  (721) 
nan

>  <Num_Not_Resolved_Atoms>  (721) 
nan

$$$$
CHEMBL3689239
     RDKit          3D

  0  0  0  0  0  0  0  0  0  0999 V3000
M  V30 BEGIN CTAB
M  V30 COUNTS 68 72 0 0 0
M  V30 BEGIN ATOM
M  V30 1 C 4.016272 -1.629756 4.722154 0
M  V30 2 N 4.323798 -2.656574 3.778496 0
M  V30 3 C 3.612229 -2.599736 2.541835 0
M  V30 4 C 4.551835 -2.100841 1.439212 0
M  V30 5 C 5.286158 -0.923766 2.014337 0
M  V30 6 N 5.899265 -0.059253 1.051227 0
M  V30 7 C 5.271158 0.763088 0.083362 0
M  V30 8 C 6.024152 1.532095 -0.811603 0
M  V30 9 N 5.443304 2.324076 -1.727141 0
M  V30 10 C 4.111359 2.431071 -1.845123 0
M  V30 11 C 3.556253 3.257048 -2.800357 0
M  V30 12 C 2.164055 3.346083 -2.897205 0
M  V30 13 C 1.326361 2.623831 -2.055843 0
M  V30 14 C -0.107449 2.702545 -2.140282 0
M  V30 15 C -1.316307 2.763287 -2.196470 0
M  V30 16 C -2.779680 2.834103 -2.242884 0
M  V30 17 N -3.377979 1.770539 -1.420661 0
M  V30 18 C -3.028883 0.453550 -1.824802 0
M  V30 19 O -2.251798 0.518938 -2.841532 0
M  V30 20 C -3.455201 -0.789234 -1.219898 0
M  V30 21 C -2.946107 -1.939317 -1.840006 0
M  V30 22 N -3.232933 -3.159161 -1.418421 0
M  V30 23 C -4.021552 -3.390943 -0.379981 0
M  V30 24 N -4.528662 -2.311356 0.240276 0
M  V30 25 C -5.399737 -2.480448 1.383698 0
M  V30 26 C -6.833974 -2.581694 1.012238 0
M  V30 27 C -7.379432 -3.826007 0.743153 0
M  V30 28 C -8.696194 -4.052489 0.388338 0
M  V30 29 C -9.502729 -2.936498 0.304162 0
M  V30 30 F -10.807603 -3.093196 -0.040315 0
M  V30 31 C -9.028365 -1.658763 0.558936 0
M  V30 32 F -9.808943 -0.557652 0.479723 0
M  V30 33 C -7.695966 -1.512322 0.909201 0
M  V30 34 C -4.272432 -1.050065 -0.142978 0
M  V30 35 O -4.718238 -0.022084 0.399301 0
M  V30 36 C 1.935307 1.813946 -1.119494 0
M  V30 37 C 3.305530 1.702338 -0.996366 0
M  V30 38 C 3.909942 0.892630 -0.060177 0
M  V30 39 C 6.277843 -1.472503 3.015591 0
M  V30 40 C 5.734459 -2.767716 3.566440 0
M  V30 41 H 3.806969 -2.159201 5.698118 0
M  V30 42 H 3.111110 -1.044197 4.451891 0
M  V30 43 H 4.815522 -0.922680 4.951984 0
M  V30 44 H 2.804313 -1.832363 2.645943 0
M  V30 45 H 3.144209 -3.575662 2.256716 0
M  V30 46 H 5.240649 -2.919470 1.129576 0
M  V30 47 H 3.927574 -1.890600 0.561853 0
M  V30 48 H 4.525038 -0.372840 2.634681 0
M  V30 49 H 6.946100 -0.039015 1.072145 0
M  V30 50 H 7.103866 1.468698 -0.742966 0
M  V30 51 H 4.212106 3.814767 -3.450109 0
M  V30 52 H 1.707902 3.991568 -3.643620 0
M  V30 53 H -3.100453 2.579876 -3.289832 0
M  V30 54 H -3.165149 3.806247 -1.924511 0
M  V30 55 H -3.997720 1.892129 -0.616672 0
M  V30 56 H -2.278854 -1.885570 -2.713144 0
M  V30 57 H -4.218873 -4.401564 -0.083297 0
M  V30 58 H -5.232447 -1.701209 2.162099 0
M  V30 59 H -5.118910 -3.459216 1.864072 0
M  V30 60 H -6.758457 -4.716544 0.804611 0
M  V30 61 H -9.069164 -5.047294 0.189048 0
M  V30 62 H -7.323435 -0.537943 1.106372 0
M  V30 63 H 1.282165 1.248948 -0.461287 0
M  V30 64 H 3.243113 0.362155 0.568706 0
M  V30 65 H 6.506244 -0.774626 3.826564 0
M  V30 66 H 7.231957 -1.647726 2.467374 0
M  V30 67 H 6.261796 -2.959692 4.544071 0
M  V30 68 H 6.016485 -3.615633 2.914238 0
M  V30 END ATOM
M  V30 BEGIN BOND
M  V30 1 1 1 2
M  V30 2 1 2 3
M  V30 3 1 3 4
M  V30 4 1 4 5
M  V30 5 1 5 6
M  V30 6 1 6 7
M  V30 7 2 7 8
M  V30 8 1 8 9
M  V30 9 2 9 10
M  V30 10 1 10 11
M  V30 11 2 11 12
M  V30 12 1 12 13
M  V30 13 1 13 14
M  V30 14 3 14 15
M  V30 15 1 15 16
M  V30 16 1 16 17
M  V30 17 1 17 18
M  V30 18 2 18 19
M  V30 19 1 18 20
M  V30 20 2 20 21
M  V30 21 1 21 22
M  V30 22 2 22 23
M  V30 23 1 23 24
M  V30 24 1 24 25
M  V30 25 1 25 26
M  V30 26 2 26 27
M  V30 27 1 27 28
M  V30 28 2 28 29
M  V30 29 1 29 30
M  V30 30 1 29 31
M  V30 31 1 31 32
M  V30 32 2 31 33
M  V30 33 1 24 34
M  V30 34 2 34 35
M  V30 35 2 13 36
M  V30 36 1 36 37
M  V30 37 2 37 38
M  V30 38 1 5 39
M  V30 39 1 39 40
M  V30 40 1 40 2
M  V30 41 1 38 7
M  V30 42 1 37 10
M  V30 43 1 34 20
M  V30 44 1 33 26
M  V30 45 1 1 41
M  V30 46 1 1 42
M  V30 47 1 1 43
M  V30 48 1 3 44
M  V30 49 1 3 45
M  V30 50 1 4 46
M  V30 51 1 4 47
M  V30 52 1 5 48
M  V30 53 1 6 49
M  V30 54 1 8 50
M  V30 55 1 11 51
M  V30 56 1 12 52
M  V30 57 1 16 53
M  V30 58 1 16 54
M  V30 59 1 17 55
M  V30 60 1 21 56
M  V30 61 1 23 57
M  V30 62 1 25 58
M  V30 63 1 25 59
M  V30 64 1 27 60
M  V30 65 1 28 61
M  V30 66 1 33 62
M  V30 67 1 36 63
M  V30 68 1 38 64
M  V30 69 1 39 65
M  V30 70 1 39 66
M  V30 71 1 40 67
M  V30 72 1 40 68
M  V30 END BOND
M  V30 END CTAB
M  END
>  <Dataset>  (722) 
ChEMBL_Kinases

>  <Ligand_Instance>  (722) 
nan

>  <PDB_ID>  (722) 
nan

>  <Standardized_SMILES>  (722) 
CN1CCC(Nc2cnc3ccc(C#CCNC(=O)c4cncn(Cc5ccc(F)c(F)c5)c4=O)cc3c2)CC1

>  <Name>  (722) 
nan

>  <Pocket>  (722) 
nan

>  <ATP_Site>  (722) 
nan

>  <Peripheral>  (722) 
nan

>  <Num_H_Atoms_ProtBoundConf>  (722) 
nan

>  <Num_Resolved_Atoms>  (722) 
nan

>  <Num_Not_Resolved_Atoms>  (722) 
nan

$$$$
CHEMBL3689240
     RDKit          3D

  0  0  0  0  0  0  0  0  0  0999 V3000
M  V30 BEGIN CTAB
M  V30 COUNTS 71 75 0 0 0
M  V30 BEGIN ATOM
M  V30 1 C 0.596342 -6.537693 2.461944 0
M  V30 2 C 0.437609 -6.297008 0.961779 0
M  V30 3 N 1.655397 -5.827796 0.395184 0
M  V30 4 C 2.710559 -6.819301 0.383210 0
M  V30 5 C 4.057944 -6.205744 0.076673 0
M  V30 6 C 3.810362 -4.703389 -0.139943 0
M  V30 7 N 5.015643 -3.980706 -0.418943 0
M  V30 8 C 5.195243 -2.566807 -0.579667 0
M  V30 9 C 6.420316 -2.006155 -0.873574 0
M  V30 10 N 6.526064 -0.671697 -1.001083 0
M  V30 11 C 5.484963 0.167390 -0.855780 0
M  V30 12 C 5.631051 1.541388 -0.995162 0
M  V30 13 C 4.518520 2.371274 -0.834486 0
M  V30 14 C 3.256491 1.872052 -0.537754 0
M  V30 15 C 2.144783 2.780400 -0.381334 0
M  V30 16 C 1.221563 3.546019 -0.267515 0
M  V30 17 C 0.114617 4.492966 -0.138190 0
M  V30 18 N -1.184302 3.856296 -0.113867 0
M  V30 19 C -1.528276 2.921690 0.870938 0
M  V30 20 O -0.537635 2.768492 1.663863 0
M  V30 21 C -2.781555 2.204223 1.029970 0
M  V30 22 C -2.825962 1.325424 2.120635 0
M  V30 23 N -3.924111 0.598737 2.382408 0
M  V30 24 C -5.036472 0.661745 1.631713 0
M  V30 25 N -4.997030 1.503629 0.585965 0
M  V30 26 C -6.177197 1.611974 -0.253358 0
M  V30 27 C -7.058871 2.675116 0.292905 0
M  V30 28 C -8.013576 2.315791 1.245539 0
M  V30 29 C -8.870531 3.238790 1.803890 0
M  V30 30 C -8.815498 4.565303 1.437589 0
M  V30 31 F -9.624608 5.542989 1.937601 0
M  V30 32 C -7.880511 4.952681 0.496593 0
M  V30 33 F -7.786567 6.244106 0.104067 0
M  V30 34 C -7.040953 4.002358 -0.039818 0
M  V30 35 C -3.929642 2.248586 0.281880 0
M  V30 36 O -3.897428 3.020867 -0.681660 0
M  V30 37 C 3.121380 0.506415 -0.401508 0
M  V30 38 C 4.225624 -0.336589 -0.559263 0
M  V30 39 C 4.110846 -1.714274 -0.426385 0
M  V30 40 C 2.857398 -4.686151 -1.348938 0
M  V30 41 C 1.525036 -5.208547 -0.889840 0
M  V30 42 H 0.691861 -7.611849 2.706060 0
M  V30 43 H 1.543073 -6.049418 2.826906 0
M  V30 44 H -0.218189 -6.029396 3.032219 0
M  V30 45 H 0.088204 -7.244428 0.499499 0
M  V30 46 H -0.322737 -5.490612 0.841433 0
M  V30 47 H 2.741156 -7.304168 1.401471 0
M  V30 48 H 2.421893 -7.584781 -0.384231 0
M  V30 49 H 4.743880 -6.397757 0.902328 0
M  V30 50 H 4.413077 -6.586601 -0.906418 0
M  V30 51 H 3.227810 -4.361763 0.714045 0
M  V30 52 H 5.887275 -4.575183 -0.518801 0
M  V30 53 H 7.261568 -2.664673 -0.993140 0
M  V30 54 H 6.618659 1.937475 -1.226752 0
M  V30 55 H 4.612931 3.453815 -0.940857 0
M  V30 56 H 0.306667 5.063189 0.798794 0
M  V30 57 H 0.136915 5.255575 -0.966355 0
M  V30 58 H -1.893022 4.088976 -0.844033 0
M  V30 59 H -2.020763 1.169914 2.803361 0
M  V30 60 H -5.878113 0.050868 1.900906 0
M  V30 61 H -6.751653 0.655295 -0.216968 0
M  V30 62 H -5.917565 1.879609 -1.298026 0
M  V30 63 H -8.132987 1.284788 1.598318 0
M  V30 64 H -9.625137 3.015228 2.544365 0
M  V30 65 H -6.318918 4.308868 -0.772000 0
M  V30 66 H 2.149794 0.085481 -0.170456 0
M  V30 67 H 3.124855 -2.040712 -0.194593 0
M  V30 68 H 3.301883 -5.442966 -2.064297 0
M  V30 69 H 2.826025 -3.707129 -1.846068 0
M  V30 70 H 0.827735 -4.333121 -0.811634 0
M  V30 71 H 1.064073 -5.928794 -1.571753 0
M  V30 END ATOM
M  V30 BEGIN BOND
M  V30 1 1 1 2
M  V30 2 1 2 3
M  V30 3 1 3 4
M  V30 4 1 4 5
M  V30 5 1 5 6
M  V30 6 1 6 7
M  V30 7 1 7 8
M  V30 8 2 8 9
M  V30 9 1 9 10
M  V30 10 2 10 11
M  V30 11 1 11 12
M  V30 12 2 12 13
M  V30 13 1 13 14
M  V30 14 1 14 15
M  V30 15 3 15 16
M  V30 16 1 16 17
M  V30 17 1 17 18
M  V30 18 1 18 19
M  V30 19 2 19 20
M  V30 20 1 19 21
M  V30 21 2 21 22
M  V30 22 1 22 23
M  V30 23 2 23 24
M  V30 24 1 24 25
M  V30 25 1 25 26
M  V30 26 1 26 27
M  V30 27 2 27 28
M  V30 28 1 28 29
M  V30 29 2 29 30
M  V30 30 1 30 31
M  V30 31 1 30 32
M  V30 32 1 32 33
M  V30 33 2 32 34
M  V30 34 1 25 35
M  V30 35 2 35 36
M  V30 36 2 14 37
M  V30 37 1 37 38
M  V30 38 2 38 39
M  V30 39 1 6 40
M  V30 40 1 40 41
M  V30 41 1 41 3
M  V30 42 1 39 8
M  V30 43 1 38 11
M  V30 44 1 35 21
M  V30 45 1 34 27
M  V30 46 1 1 42
M  V30 47 1 1 43
M  V30 48 1 1 44
M  V30 49 1 2 45
M  V30 50 1 2 46
M  V30 51 1 4 47
M  V30 52 1 4 48
M  V30 53 1 5 49
M  V30 54 1 5 50
M  V30 55 1 6 51
M  V30 56 1 7 52
M  V30 57 1 9 53
M  V30 58 1 12 54
M  V30 59 1 13 55
M  V30 60 1 17 56
M  V30 61 1 17 57
M  V30 62 1 18 58
M  V30 63 1 22 59
M  V30 64 1 24 60
M  V30 65 1 26 61
M  V30 66 1 26 62
M  V30 67 1 28 63
M  V30 68 1 29 64
M  V30 69 1 34 65
M  V30 70 1 37 66
M  V30 71 1 39 67
M  V30 72 1 40 68
M  V30 73 1 40 69
M  V30 74 1 41 70
M  V30 75 1 41 71
M  V30 END BOND
M  V30 END CTAB
M  END
>  <Dataset>  (723) 
ChEMBL_Kinases

>  <Ligand_Instance>  (723) 
nan

>  <PDB_ID>  (723) 
nan

>  <Standardized_SMILES>  (723) 
CCN1CCC(Nc2cnc3ccc(C#CCNC(=O)c4cncn(Cc5ccc(F)c(F)c5)c4=O)cc3c2)CC1

>  <Name>  (723) 
nan

>  <Pocket>  (723) 
nan

>  <ATP_Site>  (723) 
nan

>  <Peripheral>  (723) 
nan

>  <Num_H_Atoms_ProtBoundConf>  (723) 
nan

>  <Num_Resolved_Atoms>  (723) 
nan

>  <Num_Not_Resolved_Atoms>  (723) 
nan

$$$$
CHEMBL3689241
     RDKit          3D

  0  0  0  0  0  0  0  0  0  0999 V3000
M  V30 BEGIN CTAB
M  V30 COUNTS 72 76 0 0 0
M  V30 BEGIN ATOM
M  V30 1 C 3.391255 -5.006122 2.757884 0
M  V30 2 C 3.032719 -4.121977 1.555766 0
M  V30 3 N 3.721519 -4.637910 0.420523 0
M  V30 4 C 5.133354 -4.513670 0.416617 0
M  V30 5 C 5.717965 -3.771540 -0.750800 0
M  V30 6 C 4.684255 -2.670451 -1.068222 0
M  V30 7 N 5.301242 -1.772304 -1.990425 0
M  V30 8 C 4.784644 -0.518356 -2.483003 0
M  V30 9 C 5.430952 0.277030 -3.402397 0
M  V30 10 N 4.948563 1.445658 -3.844769 0
M  V30 11 C 3.774162 1.932549 -3.411714 0
M  V30 12 C 3.253298 3.142903 -3.857421 0
M  V30 13 C 2.024490 3.610792 -3.378042 0
M  V30 14 C 1.308428 2.878728 -2.454794 0
M  V30 15 C 0.042154 3.287902 -1.916236 0
M  V30 16 C -1.014578 3.630226 -1.444891 0
M  V30 17 C -2.286436 4.059950 -0.861911 0
M  V30 18 N -2.819827 3.106031 0.087045 0
M  V30 19 C -3.109147 1.802188 -0.349915 0
M  V30 20 O -2.823497 1.702932 -1.593081 0
M  V30 21 C -3.646532 0.697105 0.428066 0
M  V30 22 C -3.828180 -0.491258 -0.292579 0
M  V30 23 C -4.330197 -1.621139 0.315207 0
M  V30 24 C -4.676748 -1.640880 1.651781 0
M  V30 25 N -4.485732 -0.480076 2.302350 0
M  V30 26 C -4.842193 -0.462550 3.708410 0
M  V30 27 C -6.269865 -0.062718 3.814867 0
M  V30 28 C -6.764553 1.195744 3.950001 0
M  V30 29 C -8.109856 1.475861 4.040322 0
M  V30 30 C -9.054987 0.453155 3.996313 0
M  V30 31 F -10.373404 0.719117 4.084054 0
M  V30 32 C -8.589928 -0.827818 3.860724 0
M  V30 33 F -9.465158 -1.882903 3.809887 0
M  V30 34 C -7.226136 -1.085078 3.771431 0
M  V30 35 C -4.005302 0.615378 1.738618 0
M  V30 36 O -3.845868 1.668363 2.384361 0
M  V30 37 C 1.834607 1.680487 -2.020361 0
M  V30 38 C 3.050541 1.189654 -2.476628 0
M  V30 39 C 3.582767 -0.006700 -2.047731 0
M  V30 40 C 3.546834 -3.460709 -1.730432 0
M  V30 41 C 3.046411 -4.549652 -0.826518 0
M  V30 42 H 2.493687 -5.024892 3.426352 0
M  V30 43 H 4.208594 -4.528687 3.354109 0
M  V30 44 H 3.631424 -6.033567 2.475739 0
M  V30 45 H 3.250915 -3.090859 1.836616 0
M  V30 46 H 1.935225 -4.287292 1.366102 0
M  V30 47 H 5.631952 -5.495932 0.493609 0
M  V30 48 H 5.474114 -3.952724 1.336231 0
M  V30 49 H 6.680860 -3.310187 -0.456259 0
M  V30 50 H 5.785144 -4.382960 -1.672024 0
M  V30 51 H 4.265602 -2.237696 -0.162373 0
M  V30 52 H 6.258777 -1.989436 -2.406476 0
M  V30 53 H 6.395408 -0.074535 -3.788927 0
M  V30 54 H 3.822870 3.700860 -4.576813 0
M  V30 55 H 1.609919 4.539687 -3.710748 0
M  V30 56 H -2.073513 5.038908 -0.360604 0
M  V30 57 H -3.060011 4.172560 -1.662777 0
M  V30 58 H -2.999890 3.343920 1.086077 0
M  V30 59 H -3.578441 -0.562492 -1.361410 0
M  V30 60 H -4.455597 -2.514046 -0.268269 0
M  V30 61 H -5.070236 -2.532996 2.118973 0
M  V30 62 H -4.211103 0.235869 4.289725 0
M  V30 63 H -4.739537 -1.470162 4.174753 0
M  V30 64 H -6.047599 1.995623 3.985930 0
M  V30 65 H -8.429456 2.522606 4.148157 0
M  V30 66 H -6.931089 -2.128882 3.664847 0
M  V30 67 H 1.291057 1.092343 -1.299056 0
M  V30 68 H 2.975177 -0.499839 -1.335040 0
M  V30 69 H 2.772874 -2.733867 -2.019496 0
M  V30 70 H 3.974064 -3.865437 -2.688091 0
M  V30 71 H 3.013640 -5.515722 -1.392374 0
M  V30 72 H 1.965402 -4.316240 -0.618206 0
M  V30 END ATOM
M  V30 BEGIN BOND
M  V30 1 1 1 2
M  V30 2 1 2 3
M  V30 3 1 3 4
M  V30 4 1 4 5
M  V30 5 1 5 6
M  V30 6 1 6 7
M  V30 7 1 7 8
M  V30 8 2 8 9
M  V30 9 1 9 10
M  V30 10 2 10 11
M  V30 11 1 11 12
M  V30 12 2 12 13
M  V30 13 1 13 14
M  V30 14 1 14 15
M  V30 15 3 15 16
M  V30 16 1 16 17
M  V30 17 1 17 18
M  V30 18 1 18 19
M  V30 19 2 19 20
M  V30 20 1 19 21
M  V30 21 2 21 22
M  V30 22 1 22 23
M  V30 23 2 23 24
M  V30 24 1 24 25
M  V30 25 1 25 26
M  V30 26 1 26 27
M  V30 27 2 27 28
M  V30 28 1 28 29
M  V30 29 2 29 30
M  V30 30 1 30 31
M  V30 31 1 30 32
M  V30 32 1 32 33
M  V30 33 2 32 34
M  V30 34 1 25 35
M  V30 35 2 35 36
M  V30 36 2 14 37
M  V30 37 1 37 38
M  V30 38 2 38 39
M  V30 39 1 6 40
M  V30 40 1 40 41
M  V30 41 1 41 3
M  V30 42 1 39 8
M  V30 43 1 38 11
M  V30 44 1 35 21
M  V30 45 1 34 27
M  V30 46 1 1 42
M  V30 47 1 1 43
M  V30 48 1 1 44
M  V30 49 1 2 45
M  V30 50 1 2 46
M  V30 51 1 4 47
M  V30 52 1 4 48
M  V30 53 1 5 49
M  V30 54 1 5 50
M  V30 55 1 6 51
M  V30 56 1 7 52
M  V30 57 1 9 53
M  V30 58 1 12 54
M  V30 59 1 13 55
M  V30 60 1 17 56
M  V30 61 1 17 57
M  V30 62 1 18 58
M  V30 63 1 22 59
M  V30 64 1 23 60
M  V30 65 1 24 61
M  V30 66 1 26 62
M  V30 67 1 26 63
M  V30 68 1 28 64
M  V30 69 1 29 65
M  V30 70 1 34 66
M  V30 71 1 37 67
M  V30 72 1 39 68
M  V30 73 1 40 69
M  V30 74 1 40 70
M  V30 75 1 41 71
M  V30 76 1 41 72
M  V30 END BOND
M  V30 END CTAB
M  END
>  <Dataset>  (724) 
ChEMBL_Kinases

>  <Ligand_Instance>  (724) 
nan

>  <PDB_ID>  (724) 
nan

>  <Standardized_SMILES>  (724) 
CCN1CCC(Nc2cnc3ccc(C#CCNC(=O)c4cccn(Cc5ccc(F)c(F)c5)c4=O)cc3c2)CC1

>  <Name>  (724) 
nan

>  <Pocket>  (724) 
nan

>  <ATP_Site>  (724) 
nan

>  <Peripheral>  (724) 
nan

>  <Num_H_Atoms_ProtBoundConf>  (724) 
nan

>  <Num_Resolved_Atoms>  (724) 
nan

>  <Num_Not_Resolved_Atoms>  (724) 
nan

$$$$
CHEMBL3689242
     RDKit          3D

  0  0  0  0  0  0  0  0  0  0999 V3000
M  V30 BEGIN CTAB
M  V30 COUNTS 75 79 0 0 0
M  V30 BEGIN ATOM
M  V30 1 C -0.805437 -3.960899 3.851841 0
M  V30 2 O 0.142123 -4.061877 2.858830 0
M  V30 3 C 0.731585 -5.292815 2.724371 0
M  V30 4 C 1.755705 -5.385415 1.640277 0
M  V30 5 N 2.879196 -4.514699 1.748174 0
M  V30 6 C 3.863041 -4.750469 0.703727 0
M  V30 7 C 3.552892 -4.093922 -0.590174 0
M  V30 8 C 3.140784 -2.645692 -0.489475 0
M  V30 9 N 3.877308 -1.823406 -1.433314 0
M  V30 10 C 3.740935 -0.466299 -1.797687 0
M  V30 11 C 4.563494 0.200563 -2.716451 0
M  V30 12 N 4.335259 1.485009 -3.005708 0
M  V30 13 C 3.349978 2.225568 -2.475299 0
M  V30 14 C 3.222534 3.561417 -2.867549 0
M  V30 15 C 2.180270 4.233846 -2.267117 0
M  V30 16 C 1.319905 3.691259 -1.362950 0
M  V30 17 C 0.228426 4.351305 -0.715194 0
M  V30 18 C -0.696934 4.895138 -0.188287 0
M  V30 19 C -1.828043 5.536751 0.438967 0
M  V30 20 N -2.837903 4.645103 0.985493 0
M  V30 21 C -3.832050 3.886583 1.522261 0
M  V30 22 O -4.559730 4.891684 1.883247 0
M  V30 23 C -4.167987 2.496975 1.724789 0
M  V30 24 C -5.400444 2.369243 2.325284 0
M  V30 25 N -5.862312 1.131024 2.558692 0
M  V30 26 C -5.157628 0.028139 2.223921 0
M  V30 27 N -3.951283 0.110242 1.637685 0
M  V30 28 C -3.118459 -1.010047 1.256912 0
M  V30 29 C -3.363012 -1.444313 -0.133503 0
M  V30 30 C -4.310477 -2.269674 -0.632579 0
M  V30 31 C -4.604113 -2.732164 -1.873658 0
M  V30 32 C -3.696086 -2.211797 -2.810110 0
M  V30 33 F -3.848820 -2.576899 -4.120419 0
M  V30 34 C -2.650817 -1.343674 -2.477323 0
M  V30 35 F -1.821429 -0.895979 -3.460627 0
M  V30 36 C -2.502664 -0.973524 -1.137505 0
M  V30 37 C -3.503810 1.331131 1.411462 0
M  V30 38 O -2.405630 1.523428 0.877761 0
M  V30 39 C 1.475952 2.346381 -0.991193 0
M  V30 40 C 2.500333 1.645391 -1.566577 0
M  V30 41 C 2.736779 0.320957 -1.269601 0
M  V30 42 C 3.458314 -2.254653 0.965287 0
M  V30 43 C 2.534489 -3.107482 1.825996 0
M  V30 44 H -1.246026 -2.929862 3.910604 0
M  V30 45 H -0.377889 -4.195162 4.839960 0
M  V30 46 H -1.675607 -4.612968 3.617671 0
M  V30 47 H 1.121144 -5.691671 3.689403 0
M  V30 48 H -0.089301 -6.010996 2.427309 0
M  V30 49 H 1.236834 -5.103070 0.675674 0
M  V30 50 H 2.141483 -6.431838 1.551874 0
M  V30 51 H 4.854388 -4.474483 1.101175 0
M  V30 52 H 3.850481 -5.858339 0.547188 0
M  V30 53 H 4.488401 -4.116901 -1.218881 0
M  V30 54 H 2.809870 -4.652709 -1.200466 0
M  V30 55 H 2.071122 -2.569813 -0.695309 0
M  V30 56 H 4.661329 -2.308204 -1.951993 0
M  V30 57 H 5.360354 -0.400342 -3.144211 0
M  V30 58 H 3.867157 4.058850 -3.579511 0
M  V30 59 H 1.984600 5.286484 -2.502135 0
M  V30 60 H -1.530313 6.307642 1.193361 0
M  V30 61 H -2.368261 6.139291 -0.350142 0
M  V30 62 H -2.266222 3.765956 0.694906 0
M  V30 63 H -6.052249 3.200779 2.637332 0
M  V30 64 H -5.549006 -0.965572 2.420112 0
M  V30 65 H -2.054899 -0.670571 1.351032 0
M  V30 66 H -3.248099 -1.892363 1.918519 0
M  V30 67 H -4.997252 -2.652522 0.148359 0
M  V30 68 H -5.412094 -3.396841 -2.108437 0
M  V30 69 H -1.675225 -0.313503 -0.989365 0
M  V30 70 H 0.834678 1.837334 -0.285871 0
M  V30 71 H 2.034635 -0.106186 -0.545876 0
M  V30 72 H 3.198804 -1.213397 1.168618 0
M  V30 73 H 4.507999 -2.491198 1.165489 0
M  V30 74 H 1.530188 -2.984134 1.371996 0
M  V30 75 H 2.480859 -2.726242 2.859786 0
M  V30 END ATOM
M  V30 BEGIN BOND
M  V30 1 1 1 2
M  V30 2 1 2 3
M  V30 3 1 3 4
M  V30 4 1 4 5
M  V30 5 1 5 6
M  V30 6 1 6 7
M  V30 7 1 7 8
M  V30 8 1 8 9
M  V30 9 1 9 10
M  V30 10 2 10 11
M  V30 11 1 11 12
M  V30 12 2 12 13
M  V30 13 1 13 14
M  V30 14 2 14 15
M  V30 15 1 15 16
M  V30 16 1 16 17
M  V30 17 3 17 18
M  V30 18 1 18 19
M  V30 19 1 19 20
M  V30 20 1 20 21
M  V30 21 2 21 22
M  V30 22 1 21 23
M  V30 23 2 23 24
M  V30 24 1 24 25
M  V30 25 2 25 26
M  V30 26 1 26 27
M  V30 27 1 27 28
M  V30 28 1 28 29
M  V30 29 2 29 30
M  V30 30 1 30 31
M  V30 31 2 31 32
M  V30 32 1 32 33
M  V30 33 1 32 34
M  V30 34 1 34 35
M  V30 35 2 34 36
M  V30 36 1 27 37
M  V30 37 2 37 38
M  V30 38 2 16 39
M  V30 39 1 39 40
M  V30 40 2 40 41
M  V30 41 1 8 42
M  V30 42 1 42 43
M  V30 43 1 43 5
M  V30 44 1 41 10
M  V30 45 1 40 13
M  V30 46 1 37 23
M  V30 47 1 36 29
M  V30 48 1 1 44
M  V30 49 1 1 45
M  V30 50 1 1 46
M  V30 51 1 3 47
M  V30 52 1 3 48
M  V30 53 1 4 49
M  V30 54 1 4 50
M  V30 55 1 6 51
M  V30 56 1 6 52
M  V30 57 1 7 53
M  V30 58 1 7 54
M  V30 59 1 8 55
M  V30 60 1 9 56
M  V30 61 1 11 57
M  V30 62 1 14 58
M  V30 63 1 15 59
M  V30 64 1 19 60
M  V30 65 1 19 61
M  V30 66 1 20 62
M  V30 67 1 24 63
M  V30 68 1 26 64
M  V30 69 1 28 65
M  V30 70 1 28 66
M  V30 71 1 30 67
M  V30 72 1 31 68
M  V30 73 1 36 69
M  V30 74 1 39 70
M  V30 75 1 41 71
M  V30 76 1 42 72
M  V30 77 1 42 73
M  V30 78 1 43 74
M  V30 79 1 43 75
M  V30 END BOND
M  V30 END CTAB
M  END
>  <Dataset>  (725) 
ChEMBL_Kinases

>  <Ligand_Instance>  (725) 
nan

>  <PDB_ID>  (725) 
nan

>  <Standardized_SMILES>  (725) 
COCCN1CCC(Nc2cnc3ccc(C#CCNC(=O)c4cncn(Cc5ccc(F)c(F)c5)c4=O)cc3c2)CC1

>  <Name>  (725) 
nan

>  <Pocket>  (725) 
nan

>  <ATP_Site>  (725) 
nan

>  <Peripheral>  (725) 
nan

>  <Num_H_Atoms_ProtBoundConf>  (725) 
nan

>  <Num_Resolved_Atoms>  (725) 
nan

>  <Num_Not_Resolved_Atoms>  (725) 
nan

$$$$
CHEMBL3689243
     RDKit          3D

  0  0  0  0  0  0  0  0  0  0999 V3000
M  V30 BEGIN CTAB
M  V30 COUNTS 76 80 0 0 0
M  V30 BEGIN ATOM
M  V30 1 C -1.100253 -5.880394 0.076576 0
M  V30 2 O 0.159330 -6.041249 0.700385 0
M  V30 3 C 1.002260 -4.967620 0.326000 0
M  V30 4 C 2.335876 -5.171033 0.998439 0
M  V30 5 N 3.308849 -4.151965 0.732862 0
M  V30 6 C 3.717506 -4.177219 -0.627189 0
M  V30 7 C 4.608040 -3.020063 -1.015077 0
M  V30 8 C 4.012434 -1.692505 -0.553790 0
M  V30 9 N 4.889620 -0.602258 -0.910971 0
M  V30 10 C 4.536860 0.764150 -0.733046 0
M  V30 11 C 5.388303 1.811089 -1.014220 0
M  V30 12 N 5.087165 3.117831 -0.878181 0
M  V30 13 C 3.860920 3.504439 -0.431628 0
M  V30 14 C 3.520566 4.824039 -0.283202 0
M  V30 15 C 2.269858 5.221793 0.168768 0
M  V30 16 C 1.363992 4.234744 0.469811 0
M  V30 17 C 0.037128 4.465026 0.950720 0
M  V30 18 C -1.076594 4.638072 1.361137 0
M  V30 19 C -2.428870 4.827071 1.874688 0
M  V30 20 N -3.232609 3.676567 1.956041 0
M  V30 21 C -4.327100 2.853551 2.191216 0
M  V30 22 O -5.150515 3.735776 2.629915 0
M  V30 23 C -4.590683 1.439422 2.035456 0
M  V30 24 C -5.881050 1.129950 2.425020 0
M  V30 25 C -6.285416 -0.205043 2.324591 0
M  V30 26 C -5.411166 -1.183614 1.846338 0
M  V30 27 N -4.165864 -0.846426 1.476729 0
M  V30 28 C -3.239620 -1.830580 0.959907 0
M  V30 29 C -3.472699 -1.862088 -0.519293 0
M  V30 30 C -4.443721 -2.703251 -0.995119 0
M  V30 31 C -4.773729 -2.840359 -2.321432 0
M  V30 32 C -4.101201 -2.091336 -3.290563 0
M  V30 33 F -4.228795 -2.040644 -4.635412 0
M  V30 34 C -3.112206 -1.233598 -2.803865 0
M  V30 35 F -2.356884 -0.426088 -3.596811 0
M  V30 36 C -2.793587 -1.108737 -1.472221 0
M  V30 37 C -3.804851 0.415628 1.579908 0
M  V30 38 O -2.666065 0.750237 1.248416 0
M  V30 39 C 1.740784 2.893952 0.308849 0
M  V30 40 C 2.980693 2.495438 -0.139575 0
M  V30 41 C 3.287855 1.163510 -0.278515 0
M  V30 42 C 3.948025 -1.832811 0.975973 0
M  V30 43 C 2.876766 -2.893814 1.227364 0
M  V30 44 H -1.580523 -4.925121 0.362320 0
M  V30 45 H -0.967025 -6.021981 -1.007159 0
M  V30 46 H -1.778891 -6.698032 0.413812 0
M  V30 47 H 0.470441 -4.064158 0.670614 0
M  V30 48 H 1.043160 -4.974216 -0.759890 0
M  V30 49 H 2.749756 -6.167697 0.732692 0
M  V30 50 H 2.157861 -5.178619 2.114295 0
M  V30 51 H 2.835614 -4.249188 -1.334146 0
M  V30 52 H 4.299485 -5.105911 -0.806207 0
M  V30 53 H 5.651837 -3.162697 -0.732709 0
M  V30 54 H 4.563089 -2.989855 -2.136990 0
M  V30 55 H 3.018049 -1.615768 -0.978083 0
M  V30 56 H 5.830238 -0.805490 -1.325297 0
M  V30 57 H 6.382131 1.567067 -1.373348 0
M  V30 58 H 4.211077 5.608759 -0.512298 0
M  V30 59 H 1.905523 6.210932 0.316712 0
M  V30 60 H -2.319090 5.356672 2.876931 0
M  V30 61 H -2.985031 5.598306 1.270751 0
M  V30 62 H -2.527308 2.941379 1.592592 0
M  V30 63 H -6.632836 1.807931 2.809868 0
M  V30 64 H -7.288395 -0.490014 2.622236 0
M  V30 65 H -5.740132 -2.214960 1.776410 0
M  V30 66 H -2.219121 -1.433074 1.104132 0
M  V30 67 H -3.382547 -2.823382 1.414997 0
M  V30 68 H -5.030022 -3.334033 -0.316267 0
M  V30 69 H -5.519321 -3.474759 -2.785896 0
M  V30 70 H -2.021234 -0.446721 -1.089105 0
M  V30 71 H 1.039167 2.103836 0.538577 0
M  V30 72 H 2.535356 0.459380 -0.031792 0
M  V30 73 H 4.914657 -2.243996 1.336467 0
M  V30 74 H 3.725325 -0.895278 1.480269 0
M  V30 75 H 2.670716 -2.972631 2.310506 0
M  V30 76 H 1.931250 -2.506102 0.787457 0
M  V30 END ATOM
M  V30 BEGIN BOND
M  V30 1 1 1 2
M  V30 2 1 2 3
M  V30 3 1 3 4
M  V30 4 1 4 5
M  V30 5 1 5 6
M  V30 6 1 6 7
M  V30 7 1 7 8
M  V30 8 1 8 9
M  V30 9 1 9 10
M  V30 10 2 10 11
M  V30 11 1 11 12
M  V30 12 2 12 13
M  V30 13 1 13 14
M  V30 14 2 14 15
M  V30 15 1 15 16
M  V30 16 1 16 17
M  V30 17 3 17 18
M  V30 18 1 18 19
M  V30 19 1 19 20
M  V30 20 1 20 21
M  V30 21 2 21 22
M  V30 22 1 21 23
M  V30 23 2 23 24
M  V30 24 1 24 25
M  V30 25 2 25 26
M  V30 26 1 26 27
M  V30 27 1 27 28
M  V30 28 1 28 29
M  V30 29 2 29 30
M  V30 30 1 30 31
M  V30 31 2 31 32
M  V30 32 1 32 33
M  V30 33 1 32 34
M  V30 34 1 34 35
M  V30 35 2 34 36
M  V30 36 1 27 37
M  V30 37 2 37 38
M  V30 38 2 16 39
M  V30 39 1 39 40
M  V30 40 2 40 41
M  V30 41 1 8 42
M  V30 42 1 42 43
M  V30 43 1 43 5
M  V30 44 1 41 10
M  V30 45 1 40 13
M  V30 46 1 37 23
M  V30 47 1 36 29
M  V30 48 1 1 44
M  V30 49 1 1 45
M  V30 50 1 1 46
M  V30 51 1 3 47
M  V30 52 1 3 48
M  V30 53 1 4 49
M  V30 54 1 4 50
M  V30 55 1 6 51
M  V30 56 1 6 52
M  V30 57 1 7 53
M  V30 58 1 7 54
M  V30 59 1 8 55
M  V30 60 1 9 56
M  V30 61 1 11 57
M  V30 62 1 14 58
M  V30 63 1 15 59
M  V30 64 1 19 60
M  V30 65 1 19 61
M  V30 66 1 20 62
M  V30 67 1 24 63
M  V30 68 1 25 64
M  V30 69 1 26 65
M  V30 70 1 28 66
M  V30 71 1 28 67
M  V30 72 1 30 68
M  V30 73 1 31 69
M  V30 74 1 36 70
M  V30 75 1 39 71
M  V30 76 1 41 72
M  V30 77 1 42 73
M  V30 78 1 42 74
M  V30 79 1 43 75
M  V30 80 1 43 76
M  V30 END BOND
M  V30 END CTAB
M  END
>  <Dataset>  (726) 
ChEMBL_Kinases

>  <Ligand_Instance>  (726) 
nan

>  <PDB_ID>  (726) 
nan

>  <Standardized_SMILES>  (726) 
COCCN1CCC(Nc2cnc3ccc(C#CCNC(=O)c4cccn(Cc5ccc(F)c(F)c5)c4=O)cc3c2)CC1

>  <Name>  (726) 
nan

>  <Pocket>  (726) 
nan

>  <ATP_Site>  (726) 
nan

>  <Peripheral>  (726) 
nan

>  <Num_H_Atoms_ProtBoundConf>  (726) 
nan

>  <Num_Resolved_Atoms>  (726) 
nan

>  <Num_Not_Resolved_Atoms>  (726) 
nan

$$$$
CHEMBL3689244
     RDKit          3D

  0  0  0  0  0  0  0  0  0  0999 V3000
M  V30 BEGIN CTAB
M  V30 COUNTS 75 79 0 0 0
M  V30 BEGIN ATOM
M  V30 1 C 9.561854 -2.425536 2.303423 0
M  V30 2 C 9.111033 -1.654284 1.109726 0
M  V30 3 N 8.861796 -2.455829 -0.069692 0
M  V30 4 C 7.740691 -3.315432 0.045794 0
M  V30 5 C 6.430581 -2.685509 -0.380343 0
M  V30 6 C 6.578447 -1.955767 -1.698274 0
M  V30 7 N 6.227985 -0.569332 -1.487008 0
M  V30 8 C 4.972040 -0.086292 -1.038843 0
M  V30 9 C 4.738636 1.282470 -0.860314 0
M  V30 10 N 3.551171 1.745514 -0.438432 0
M  V30 11 C 2.510650 0.941372 -0.159254 0
M  V30 12 C 1.346711 1.552742 0.265872 0
M  V30 13 C 0.290650 0.677246 0.544556 0
M  V30 14 C 0.426242 -0.688375 0.398245 0
M  V30 15 C -0.726124 -1.487015 0.713923 0
M  V30 16 C -1.695254 -2.151927 0.999416 0
M  V30 17 C -2.870198 -2.945153 1.367576 0
M  V30 18 N -4.013267 -2.060013 1.282910 0
M  V30 19 C -5.295066 -2.586700 1.595198 0
M  V30 20 O -5.156665 -3.813606 1.905793 0
M  V30 21 C -6.579290 -1.905787 1.584072 0
M  V30 22 C -7.654003 -2.721435 1.947370 0
M  V30 23 C -8.931593 -2.246864 1.991704 0
M  V30 24 C -9.143498 -0.945869 1.671042 0
M  V30 25 N -8.133147 -0.128588 1.315963 0
M  V30 26 C -8.419500 1.248009 0.985257 0 CFG=1
M  V30 27 C -8.279282 2.047484 2.287091 0
M  V30 28 C -7.591449 1.810659 -0.082840 0
M  V30 29 C -6.464787 2.597237 -0.035238 0
M  V30 30 C -5.828703 3.021869 -1.182707 0
M  V30 31 C -6.296952 2.674418 -2.441334 0
M  V30 32 F -5.647433 3.109112 -3.548934 0
M  V30 33 C -7.422037 1.888703 -2.506111 0
M  V30 34 F -7.878068 1.550203 -3.748905 0
M  V30 35 C -8.068091 1.457293 -1.349481 0
M  V30 36 C -6.882870 -0.607994 1.276594 0
M  V30 37 O -5.920179 0.096750 0.957875 0
M  V30 38 C 1.602488 -1.250076 -0.027168 0
M  V30 39 C 2.666724 -0.420050 -0.311937 0
M  V30 40 C 3.893572 -0.875840 -0.746191 0
M  V30 41 C 7.961177 -2.112636 -2.260428 0
M  V30 42 C 8.953160 -1.640531 -1.232884 0
M  V30 43 H 8.874137 -2.167065 3.155099 0
M  V30 44 H 9.636525 -3.517328 2.152909 0
M  V30 45 H 10.572513 -2.082577 2.622602 0
M  V30 46 H 9.898866 -0.897979 0.827342 0
M  V30 47 H 8.189500 -1.063713 1.311753 0
M  V30 48 H 7.623043 -3.615660 1.107719 0
M  V30 49 H 7.891450 -4.278157 -0.525728 0
M  V30 50 H 5.721532 -3.528159 -0.550527 0
M  V30 51 H 6.075623 -2.051243 0.447755 0
M  V30 52 H 5.879559 -2.355377 -2.468478 0
M  V30 53 H 6.963835 0.142729 -1.683970 0
M  V30 54 H 5.514379 1.996737 -1.059919 0
M  V30 55 H 1.295003 2.628145 0.363552 0
M  V30 56 H -0.633593 1.127694 0.879198 0
M  V30 57 H -3.019606 -3.808221 0.678333 0
M  V30 58 H -2.833354 -3.328116 2.390228 0
M  V30 59 H -3.963310 -1.058078 1.007600 0
M  V30 60 H -7.526638 -3.781972 2.214846 0
M  V30 61 H -9.746733 -2.879203 2.270688 0
M  V30 62 H -10.163357 -0.564415 1.705460 0
M  V30 63 H -9.518237 1.321167 0.750803 0
M  V30 64 H -7.213491 2.019242 2.611404 0
M  V30 65 H -8.496361 3.116373 2.094951 0
M  V30 66 H -8.934523 1.654468 3.064598 0
M  V30 67 H -6.164963 2.825466 0.984181 0
M  V30 68 H -4.951783 3.636281 -1.030581 0
M  V30 69 H -8.952785 0.836818 -1.552869 0
M  V30 70 H 1.705878 -2.306854 -0.140257 0
M  V30 71 H 3.970369 -1.943873 -0.852486 0
M  V30 72 H 8.074684 -1.636081 -3.234223 0
M  V30 73 H 8.120961 -3.224782 -2.365152 0
M  V30 74 H 10.004201 -1.707622 -1.605054 0
M  V30 75 H 8.734642 -0.554402 -1.014011 0
M  V30 END ATOM
M  V30 BEGIN BOND
M  V30 1 1 1 2
M  V30 2 1 2 3
M  V30 3 1 3 4
M  V30 4 1 4 5
M  V30 5 1 5 6
M  V30 6 1 6 7
M  V30 7 1 7 8
M  V30 8 2 8 9
M  V30 9 1 9 10
M  V30 10 2 10 11
M  V30 11 1 11 12
M  V30 12 2 12 13
M  V30 13 1 13 14
M  V30 14 1 14 15
M  V30 15 3 15 16
M  V30 16 1 16 17
M  V30 17 1 17 18
M  V30 18 1 18 19
M  V30 19 2 19 20
M  V30 20 1 19 21
M  V30 21 2 21 22
M  V30 22 1 22 23
M  V30 23 2 23 24
M  V30 24 1 24 25
M  V30 25 1 25 26
M  V30 26 1 26 27
M  V30 27 1 26 28
M  V30 28 2 28 29
M  V30 29 1 29 30
M  V30 30 2 30 31
M  V30 31 1 31 32
M  V30 32 1 31 33
M  V30 33 1 33 34
M  V30 34 2 33 35
M  V30 35 1 25 36
M  V30 36 2 36 37
M  V30 37 2 14 38
M  V30 38 1 38 39
M  V30 39 2 39 40
M  V30 40 1 6 41
M  V30 41 1 41 42
M  V30 42 1 42 3
M  V30 43 1 40 8
M  V30 44 1 39 11
M  V30 45 1 36 21
M  V30 46 1 35 28
M  V30 47 1 1 43
M  V30 48 1 1 44
M  V30 49 1 1 45
M  V30 50 1 2 46
M  V30 51 1 2 47
M  V30 52 1 4 48
M  V30 53 1 4 49
M  V30 54 1 5 50
M  V30 55 1 5 51
M  V30 56 1 6 52
M  V30 57 1 7 53
M  V30 58 1 9 54
M  V30 59 1 12 55
M  V30 60 1 13 56
M  V30 61 1 17 57
M  V30 62 1 17 58
M  V30 63 1 18 59
M  V30 64 1 22 60
M  V30 65 1 23 61
M  V30 66 1 24 62
M  V30 67 1 26 63 CFG=3
M  V30 68 1 27 64
M  V30 69 1 27 65
M  V30 70 1 27 66
M  V30 71 1 29 67
M  V30 72 1 30 68
M  V30 73 1 35 69
M  V30 74 1 38 70
M  V30 75 1 40 71
M  V30 76 1 41 72
M  V30 77 1 41 73
M  V30 78 1 42 74
M  V30 79 1 42 75
M  V30 END BOND
M  V30 END CTAB
M  END
>  <Dataset>  (727) 
ChEMBL_Kinases

>  <Ligand_Instance>  (727) 
nan

>  <PDB_ID>  (727) 
nan

>  <Standardized_SMILES>  (727) 
CCN1CCC(Nc2cnc3ccc(C#CCNC(=O)c4cccn([C@@H](C)c5ccc(F)c(F)c5)c4=O)cc3c2)CC1

>  <Name>  (727) 
nan

>  <Pocket>  (727) 
nan

>  <ATP_Site>  (727) 
nan

>  <Peripheral>  (727) 
nan

>  <Num_H_Atoms_ProtBoundConf>  (727) 
nan

>  <Num_Resolved_Atoms>  (727) 
nan

>  <Num_Not_Resolved_Atoms>  (727) 
nan

$$$$
CHEMBL3689245
     RDKit          3D

  0  0  0  0  0  0  0  0  0  0999 V3000
M  V30 BEGIN CTAB
M  V30 COUNTS 76 80 0 0 0
M  V30 BEGIN ATOM
M  V30 1 C 1.730009 -3.583650 1.704313 0
M  V30 2 C 3.063292 -3.137638 2.253356 0
M  V30 3 N 3.811617 -2.366027 1.279704 0
M  V30 4 C 4.240349 -3.177294 0.172276 0
M  V30 5 C 4.786095 -2.280780 -0.895372 0
M  V30 6 C 5.953181 -1.506251 -0.395990 0
M  V30 7 N 6.234887 -0.325737 -1.193568 0
M  V30 8 C 5.464885 0.830716 -1.398606 0
M  V30 9 C 5.841052 1.901158 -2.221551 0
M  V30 10 N 5.075042 2.989677 -2.378830 0
M  V30 11 C 3.888090 3.162100 -1.773334 0
M  V30 12 C 3.129870 4.298560 -1.962564 0
M  V30 13 C 1.906651 4.487688 -1.344954 0
M  V30 14 C 1.465461 3.458438 -0.506152 0
M  V30 15 C 0.216117 3.522377 0.199082 0
M  V30 16 C -0.836184 3.556142 0.799890 0
M  V30 17 C -2.125383 3.571734 1.534220 0
M  V30 18 N -2.683061 2.248123 1.355271 0
M  V30 19 C -3.929731 1.979518 1.966151 0
M  V30 20 O -4.297274 3.044346 2.575367 0
M  V30 21 C -4.718379 0.759136 1.959110 0
M  V30 22 C -5.908508 0.858746 2.684058 0
M  V30 23 C -6.764943 -0.203927 2.780985 0
M  V30 24 C -6.374808 -1.349334 2.126803 0
M  V30 25 N -5.236270 -1.502208 1.411795 0
M  V30 26 C -4.970212 -2.761582 0.788161 0 CFG=2
M  V30 27 C -3.614694 -3.350687 1.119570 0
M  V30 28 O -3.466641 -4.587780 0.454175 0
M  V30 29 C -5.156704 -2.759580 -0.689454 0
M  V30 30 C -6.434984 -3.018708 -1.196902 0
M  V30 31 C -6.684993 -3.036753 -2.551821 0
M  V30 32 C -5.681380 -2.798730 -3.471321 0
M  V30 33 C -4.415609 -2.541993 -2.985170 0
M  V30 34 F -3.411119 -2.304312 -3.867333 0
M  V30 35 C -4.196288 -2.530532 -1.626646 0
M  V30 36 C -4.441669 -0.441458 1.349450 0
M  V30 37 O -3.382945 -0.486575 0.720327 0
M  V30 38 C 2.230364 2.334505 -0.328078 0
M  V30 39 C 3.447700 2.149938 -0.944954 0
M  V30 40 C 4.243743 1.033402 -0.789254 0
M  V30 41 C 5.920450 -1.104572 1.041147 0
M  V30 42 C 5.005978 -1.876057 1.923943 0
M  V30 43 H 0.883200 -3.225653 2.356740 0
M  V30 44 H 1.581769 -3.178949 0.681845 0
M  V30 45 H 1.635172 -4.698538 1.683787 0
M  V30 46 H 3.690079 -4.029299 2.543570 0
M  V30 47 H 2.881928 -2.577576 3.180505 0
M  V30 48 H 3.363499 -3.769474 -0.166616 0
M  V30 49 H 4.990108 -3.913325 0.535393 0
M  V30 50 H 5.156610 -2.987334 -1.709105 0
M  V30 51 H 3.943998 -1.690205 -1.294823 0
M  V30 52 H 6.850544 -2.184991 -0.528778 0
M  V30 53 H 7.154669 -0.270818 -1.730473 0
M  V30 54 H 6.790018 1.827792 -2.741866 0
M  V30 55 H 3.496300 5.068944 -2.611770 0
M  V30 56 H 1.272806 5.356798 -1.459028 0
M  V30 57 H -1.976975 3.723762 2.620444 0
M  V30 58 H -2.791964 4.358428 1.164272 0
M  V30 59 H -2.248274 1.472016 0.816061 0
M  V30 60 H -6.214169 1.771035 3.201930 0
M  V30 61 H -7.679462 -0.122678 3.339904 0
M  V30 62 H -7.053450 -2.203093 2.198773 0
M  V30 63 H -5.706109 -3.520000 1.187860 0
M  V30 64 H -2.808300 -2.714940 0.729937 0
M  V30 65 H -3.552044 -3.502593 2.202152 0
M  V30 66 H -2.955942 -5.235234 0.966494 0
M  V30 67 H -7.233361 -3.208298 -0.469966 0
M  V30 68 H -7.672849 -3.238107 -2.926011 0
M  V30 69 H -5.870180 -2.810814 -4.535506 0
M  V30 70 H -3.205725 -2.330672 -1.289164 0
M  V30 71 H 1.890040 1.539990 0.319385 0
M  V30 72 H 3.795346 0.318391 -0.114891 0
M  V30 73 H 6.961072 -1.253829 1.463338 0
M  V30 74 H 5.763925 -0.000496 1.174870 0
M  V30 75 H 5.538511 -2.706906 2.473308 0
M  V30 76 H 4.638763 -1.197299 2.747586 0
M  V30 END ATOM
M  V30 BEGIN BOND
M  V30 1 1 1 2
M  V30 2 1 2 3
M  V30 3 1 3 4
M  V30 4 1 4 5
M  V30 5 1 5 6
M  V30 6 1 6 7
M  V30 7 1 7 8
M  V30 8 2 8 9
M  V30 9 1 9 10
M  V30 10 2 10 11
M  V30 11 1 11 12
M  V30 12 2 12 13
M  V30 13 1 13 14
M  V30 14 1 14 15
M  V30 15 3 15 16
M  V30 16 1 16 17
M  V30 17 1 17 18
M  V30 18 1 18 19
M  V30 19 2 19 20
M  V30 20 1 19 21
M  V30 21 2 21 22
M  V30 22 1 22 23
M  V30 23 2 23 24
M  V30 24 1 24 25
M  V30 25 1 25 26
M  V30 26 1 26 27
M  V30 27 1 27 28
M  V30 28 1 26 29
M  V30 29 2 29 30
M  V30 30 1 30 31
M  V30 31 2 31 32
M  V30 32 1 32 33
M  V30 33 1 33 34
M  V30 34 2 33 35
M  V30 35 1 25 36
M  V30 36 2 36 37
M  V30 37 2 14 38
M  V30 38 1 38 39
M  V30 39 2 39 40
M  V30 40 1 6 41
M  V30 41 1 41 42
M  V30 42 1 42 3
M  V30 43 1 40 8
M  V30 44 1 39 11
M  V30 45 1 36 21
M  V30 46 1 35 29
M  V30 47 1 1 43
M  V30 48 1 1 44
M  V30 49 1 1 45
M  V30 50 1 2 46
M  V30 51 1 2 47
M  V30 52 1 4 48
M  V30 53 1 4 49
M  V30 54 1 5 50
M  V30 55 1 5 51
M  V30 56 1 6 52
M  V30 57 1 7 53
M  V30 58 1 9 54
M  V30 59 1 12 55
M  V30 60 1 13 56
M  V30 61 1 17 57
M  V30 62 1 17 58
M  V30 63 1 18 59
M  V30 64 1 22 60
M  V30 65 1 23 61
M  V30 66 1 24 62
M  V30 67 1 26 63 CFG=1
M  V30 68 1 27 64
M  V30 69 1 27 65
M  V30 70 1 28 66
M  V30 71 1 30 67
M  V30 72 1 31 68
M  V30 73 1 32 69
M  V30 74 1 35 70
M  V30 75 1 38 71
M  V30 76 1 40 72
M  V30 77 1 41 73
M  V30 78 1 41 74
M  V30 79 1 42 75
M  V30 80 1 42 76
M  V30 END BOND
M  V30 END CTAB
M  END
>  <Dataset>  (728) 
ChEMBL_Kinases

>  <Ligand_Instance>  (728) 
nan

>  <PDB_ID>  (728) 
nan

>  <Standardized_SMILES>  (728) 
CCN1CCC(Nc2cnc3ccc(C#CCNC(=O)c4cccn([C@H](CO)c5cccc(F)c5)c4=O)cc3c2)CC1

>  <Name>  (728) 
nan

>  <Pocket>  (728) 
nan

>  <ATP_Site>  (728) 
nan

>  <Peripheral>  (728) 
nan

>  <Num_H_Atoms_ProtBoundConf>  (728) 
nan

>  <Num_Resolved_Atoms>  (728) 
nan

>  <Num_Not_Resolved_Atoms>  (728) 
nan

$$$$
CHEMBL3689246
     RDKit          3D

  0  0  0  0  0  0  0  0  0  0999 V3000
M  V30 BEGIN CTAB
M  V30 COUNTS 80 84 0 0 0
M  V30 BEGIN ATOM
M  V30 1 C -1.956601 -4.711907 -1.478435 0
M  V30 2 O -1.122595 -5.659093 -0.952820 0
M  V30 3 C 0.189606 -5.255276 -0.741681 0
M  V30 4 C 0.780505 -4.844850 -2.037697 0
M  V30 5 N 2.128747 -4.406327 -2.003036 0
M  V30 6 C 3.153930 -5.311899 -1.716014 0
M  V30 7 C 4.038852 -5.018582 -0.548947 0
M  V30 8 C 3.506926 -3.819213 0.226179 0
M  V30 9 N 4.447588 -3.507297 1.256142 0
M  V30 10 C 4.291147 -2.538755 2.284731 0
M  V30 11 C 5.244001 -2.252756 3.237981 0
M  V30 12 N 5.123159 -1.356372 4.225769 0
M  V30 13 C 3.985975 -0.651601 4.331726 0
M  V30 14 C 3.798383 0.298304 5.340966 0
M  V30 15 C 2.627861 1.031351 5.460056 0
M  V30 16 C 1.612658 0.819907 4.555593 0
M  V30 17 C 0.359203 1.519771 4.583771 0
M  V30 18 C -0.703498 2.092092 4.596899 0
M  V30 19 C -2.021397 2.776586 4.599707 0
M  V30 20 N -2.471554 2.967069 3.211376 0
M  V30 21 C -2.579894 1.690001 2.607233 0
M  V30 22 O -2.253177 0.794849 3.460364 0
M  V30 23 C -2.982535 1.339860 1.258764 0
M  V30 24 C -2.985862 -0.007072 0.961955 0
M  V30 25 C -3.344190 -0.479564 -0.278691 0
M  V30 26 C -3.705186 0.434122 -1.233474 0
M  V30 27 N -3.715175 1.755948 -0.984367 0
M  V30 28 C -4.108741 2.595979 -2.059603 0 CFG=1
M  V30 29 C -4.617149 3.950601 -1.709631 0
M  V30 30 O -5.744680 3.935434 -0.892837 0
M  V30 31 C -3.050193 2.747364 -3.095678 0
M  V30 32 C -2.980397 1.895372 -4.200270 0
M  V30 33 C -2.014952 2.002548 -5.180949 0
M  V30 34 C -1.074580 2.980358 -5.086180 0
M  V30 35 F -0.067565 3.185550 -5.995596 0
M  V30 36 C -1.091644 3.840027 -4.033158 0
M  V30 37 F -0.163189 4.841470 -3.896668 0
M  V30 38 C -2.066556 3.712028 -3.066448 0
M  V30 39 C -3.360153 2.174106 0.234402 0
M  V30 40 O -3.360459 3.399790 0.494144 0
M  V30 41 C 1.786833 -0.112795 3.558081 0
M  V30 42 C 2.947164 -0.846836 3.431197 0
M  V30 43 C 3.143914 -1.786233 2.441280 0
M  V30 44 C 3.434014 -2.706280 -0.807203 0
M  V30 45 C 2.356262 -3.020102 -1.783984 0
M  V30 46 H -2.062891 -3.793847 -0.865114 0
M  V30 47 H -1.747568 -4.548084 -2.539158 0
M  V30 48 H -2.991062 -5.177339 -1.463319 0
M  V30 49 H 0.683238 -6.154535 -0.291114 0
M  V30 50 H 0.144788 -4.421194 -0.002443 0
M  V30 51 H 0.174444 -3.957807 -2.390205 0
M  V30 52 H 0.604584 -5.639540 -2.790338 0
M  V30 53 H 3.838982 -5.351523 -2.614200 0
M  V30 54 H 2.795118 -6.340105 -1.600449 0
M  V30 55 H 5.095153 -4.802047 -0.822707 0
M  V30 56 H 4.082654 -5.844614 0.181753 0
M  V30 57 H 2.483992 -4.003753 0.585030 0
M  V30 58 H 5.378967 -4.018656 1.311118 0
M  V30 59 H 6.198013 -2.801871 3.199521 0
M  V30 60 H 4.615013 0.457878 6.056312 0
M  V30 61 H 2.472604 1.767339 6.235566 0
M  V30 62 H -2.780107 2.171872 5.140582 0
M  V30 63 H -1.918977 3.728987 5.131844 0
M  V30 64 H -2.706848 3.786328 2.632258 0
M  V30 65 H -2.701025 -0.761111 1.708615 0
M  V30 66 H -3.336617 -1.523444 -0.475982 0
M  V30 67 H -3.981904 0.012450 -2.202687 0
M  V30 68 H -4.961771 2.078072 -2.596527 0
M  V30 69 H -3.866767 4.656953 -1.365269 0
M  V30 70 H -4.996185 4.389728 -2.686645 0
M  V30 71 H -6.471692 3.430865 -1.336015 0
M  V30 72 H -3.707711 1.095754 -4.325685 0
M  V30 73 H -1.959944 1.348313 -6.030478 0
M  V30 74 H -2.049792 4.411908 -2.242873 0
M  V30 75 H 1.000710 -0.303255 2.826157 0
M  V30 76 H 2.303012 -1.897277 1.780541 0
M  V30 77 H 3.360929 -1.728051 -0.317330 0
M  V30 78 H 4.435192 -2.705334 -1.324796 0
M  V30 79 H 2.543161 -2.480306 -2.731013 0
M  V30 80 H 1.386916 -2.598980 -1.386083 0
M  V30 END ATOM
M  V30 BEGIN BOND
M  V30 1 1 1 2
M  V30 2 1 2 3
M  V30 3 1 3 4
M  V30 4 1 4 5
M  V30 5 1 5 6
M  V30 6 1 6 7
M  V30 7 1 7 8
M  V30 8 1 8 9
M  V30 9 1 9 10
M  V30 10 2 10 11
M  V30 11 1 11 12
M  V30 12 2 12 13
M  V30 13 1 13 14
M  V30 14 2 14 15
M  V30 15 1 15 16
M  V30 16 1 16 17
M  V30 17 3 17 18
M  V30 18 1 18 19
M  V30 19 1 19 20
M  V30 20 1 20 21
M  V30 21 2 21 22
M  V30 22 1 21 23
M  V30 23 2 23 24
M  V30 24 1 24 25
M  V30 25 2 25 26
M  V30 26 1 26 27
M  V30 27 1 27 28
M  V30 28 1 28 29
M  V30 29 1 29 30
M  V30 30 1 28 31
M  V30 31 2 31 32
M  V30 32 1 32 33
M  V30 33 2 33 34
M  V30 34 1 34 35
M  V30 35 1 34 36
M  V30 36 1 36 37
M  V30 37 2 36 38
M  V30 38 1 27 39
M  V30 39 2 39 40
M  V30 40 2 16 41
M  V30 41 1 41 42
M  V30 42 2 42 43
M  V30 43 1 8 44
M  V30 44 1 44 45
M  V30 45 1 45 5
M  V30 46 1 43 10
M  V30 47 1 42 13
M  V30 48 1 39 23
M  V30 49 1 38 31
M  V30 50 1 1 46
M  V30 51 1 1 47
M  V30 52 1 1 48
M  V30 53 1 3 49
M  V30 54 1 3 50
M  V30 55 1 4 51
M  V30 56 1 4 52
M  V30 57 1 6 53
M  V30 58 1 6 54
M  V30 59 1 7 55
M  V30 60 1 7 56
M  V30 61 1 8 57
M  V30 62 1 9 58
M  V30 63 1 11 59
M  V30 64 1 14 60
M  V30 65 1 15 61
M  V30 66 1 19 62
M  V30 67 1 19 63
M  V30 68 1 20 64
M  V30 69 1 24 65
M  V30 70 1 25 66
M  V30 71 1 26 67
M  V30 72 1 28 68 CFG=3
M  V30 73 1 29 69
M  V30 74 1 29 70
M  V30 75 1 30 71
M  V30 76 1 32 72
M  V30 77 1 33 73
M  V30 78 1 38 74
M  V30 79 1 41 75
M  V30 80 1 43 76
M  V30 81 1 44 77
M  V30 82 1 44 78
M  V30 83 1 45 79
M  V30 84 1 45 80
M  V30 END BOND
M  V30 END CTAB
M  END
>  <Dataset>  (729) 
ChEMBL_Kinases

>  <Ligand_Instance>  (729) 
nan

>  <PDB_ID>  (729) 
nan

>  <Standardized_SMILES>  (729) 
COCCN1CCC(Nc2cnc3ccc(C#CCNC(=O)c4cccn([C@@H](CO)c5ccc(F)c(F)c5)c4=O)cc3c2)CC1

>  <Name>  (729) 
nan

>  <Pocket>  (729) 
nan

>  <ATP_Site>  (729) 
nan

>  <Peripheral>  (729) 
nan

>  <Num_H_Atoms_ProtBoundConf>  (729) 
nan

>  <Num_Resolved_Atoms>  (729) 
nan

>  <Num_Not_Resolved_Atoms>  (729) 
nan

$$$$
CHEMBL3689238
     RDKit          3D

  0  0  0  0  0  0  0  0  0  0999 V3000
M  V30 BEGIN CTAB
M  V30 COUNTS 57 60 0 0 0
M  V30 BEGIN ATOM
M  V30 1 C 5.176683 -4.498524 0.296188 0
M  V30 2 C 5.045975 -3.259277 -0.560261 0
M  V30 3 C 5.436006 -3.281172 -1.985792 0
M  V30 4 C 4.569613 -2.254147 0.129640 0
M  V30 5 C 4.283573 -0.892322 -0.280681 0
M  V30 6 C 5.065894 -0.132339 -1.178497 0
M  V30 7 N 4.682927 1.113332 -1.466954 0
M  V30 8 C 3.610469 1.736851 -0.983846 0
M  V30 9 C 3.293837 3.049593 -1.339865 0
M  V30 10 C 2.139710 3.596229 -0.759545 0
M  V30 11 C 1.377365 2.874903 0.106383 0
M  V30 12 C 0.175957 3.341399 0.785005 0
M  V30 13 C -0.815155 3.744718 1.358753 0
M  V30 14 C -2.016731 4.262046 2.060041 0
M  V30 15 N -2.681868 3.124357 2.729592 0
M  V30 16 C -3.255879 1.964144 2.537132 0
M  V30 17 O -3.019382 2.146466 1.243312 0
M  V30 18 C -3.704575 0.945771 1.718934 0
M  V30 19 C -4.230649 0.468878 3.060364 0
M  V30 20 N -4.950451 -0.659174 3.408403 0
M  V30 21 C -5.283777 -1.538642 2.443498 0
M  V30 22 N -4.881643 -1.248087 1.197623 0
M  V30 23 C -5.048369 -1.990414 -0.018148 0
M  V30 24 C -3.953615 -3.009716 -0.193329 0
M  V30 25 C -4.328847 -4.250174 0.318460 0
M  V30 26 C -3.347459 -5.242309 0.202977 0
M  V30 27 C -2.087632 -5.091728 -0.355719 0
M  V30 28 F -1.217742 -6.142529 -0.409887 0
M  V30 29 C -1.827833 -3.852557 -0.820372 0
M  V30 30 F -0.623448 -3.592182 -1.384872 0
M  V30 31 C -2.720536 -2.811632 -0.755684 0
M  V30 32 C -4.210603 -0.122860 1.100764 0
M  V30 33 O -3.734070 0.345941 -0.020833 0
M  V30 34 C 1.665835 1.557236 0.483850 0
M  V30 35 C 2.798713 1.024097 -0.087563 0
M  V30 36 N 3.291145 -0.152111 0.092636 0
M  V30 37 H 5.396744 -5.395193 -0.296401 0
M  V30 38 H 4.189815 -4.651426 0.793608 0
M  V30 39 H 5.928987 -4.323115 1.101408 0
M  V30 40 H 6.462985 -2.868828 -2.154127 0
M  V30 41 H 5.341025 -4.342908 -2.304412 0
M  V30 42 H 4.768439 -2.684499 -2.640337 0
M  V30 43 H 4.303108 -2.329887 1.189921 0
M  V30 44 H 5.959879 -0.615618 -1.585096 0
M  V30 45 H 3.880527 3.628663 -2.015943 0
M  V30 46 H 1.797061 4.612852 -0.967699 0
M  V30 47 H -1.755395 4.962611 2.862093 0
M  V30 48 H -2.703294 4.638352 1.316111 0
M  V30 49 H -2.922887 2.879058 3.771207 0
M  V30 50 H -4.281346 0.740148 4.187701 0
M  V30 51 H -5.817497 -2.473001 2.371527 0
M  V30 52 H -4.967649 -1.338650 -0.900970 0
M  V30 53 H -6.043022 -2.471843 -0.081320 0
M  V30 54 H -5.237067 -4.569999 0.779917 0
M  V30 55 H -3.552261 -6.248263 0.580113 0
M  V30 56 H -2.515507 -1.821005 -1.128501 0
M  V30 57 H 1.155928 0.884728 1.140585 0
M  V30 END ATOM
M  V30 BEGIN BOND
M  V30 1 1 1 2
M  V30 2 1 2 3
M  V30 3 2 2 4 CFG=2
M  V30 4 1 4 5
M  V30 5 2 5 6
M  V30 6 1 6 7
M  V30 7 2 7 8
M  V30 8 1 8 9
M  V30 9 2 9 10
M  V30 10 1 10 11
M  V30 11 1 11 12
M  V30 12 3 12 13
M  V30 13 1 13 14
M  V30 14 1 14 15
M  V30 15 1 15 16
M  V30 16 2 16 17
M  V30 17 1 16 18
M  V30 18 2 18 19
M  V30 19 1 19 20
M  V30 20 2 20 21
M  V30 21 1 21 22
M  V30 22 1 22 23
M  V30 23 1 23 24
M  V30 24 2 24 25
M  V30 25 1 25 26
M  V30 26 2 26 27
M  V30 27 1 27 28
M  V30 28 1 27 29
M  V30 29 1 29 30
M  V30 30 2 29 31
M  V30 31 1 22 32
M  V30 32 2 32 33
M  V30 33 2 11 34
M  V30 34 1 34 35
M  V30 35 2 35 36
M  V30 36 1 36 5
M  V30 37 1 35 8
M  V30 38 1 32 18
M  V30 39 1 31 24
M  V30 40 1 1 37
M  V30 41 1 1 38
M  V30 42 1 1 39
M  V30 43 1 3 40
M  V30 44 1 3 41
M  V30 45 1 3 42
M  V30 46 1 4 43
M  V30 47 1 6 44
M  V30 48 1 9 45
M  V30 49 1 10 46
M  V30 50 1 14 47
M  V30 51 1 14 48
M  V30 52 1 15 49
M  V30 53 1 19 50
M  V30 54 1 21 51
M  V30 55 1 23 52
M  V30 56 1 23 53
M  V30 57 1 25 54
M  V30 58 1 26 55
M  V30 59 1 31 56
M  V30 60 1 34 57
M  V30 END BOND
M  V30 END CTAB
M  END
>  <Dataset>  (730) 
ChEMBL_Kinases

>  <Ligand_Instance>  (730) 
nan

>  <PDB_ID>  (730) 
nan

>  <Standardized_SMILES>  (730) 
CC(C)=Cc1cnc2ccc(C#CCNC(=O)c3cncn(Cc4ccc(F)c(F)c4)c3=O)cc2n1

>  <Name>  (730) 
nan

>  <Pocket>  (730) 
nan

>  <ATP_Site>  (730) 
nan

>  <Peripheral>  (730) 
nan

>  <Num_H_Atoms_ProtBoundConf>  (730) 
nan

>  <Num_Resolved_Atoms>  (730) 
nan

>  <Num_Not_Resolved_Atoms>  (730) 
nan

$$$$
CHEMBL3689295
     RDKit          3D

  0  0  0  0  0  0  0  0  0  0999 V3000
M  V30 BEGIN CTAB
M  V30 COUNTS 71 75 0 0 0
M  V30 BEGIN ATOM
M  V30 1 C 4.751697 1.926579 1.307109 0
M  V30 2 C 4.274597 0.938340 0.285291 0
M  V30 3 C 5.361408 -0.038023 -0.007547 0
M  V30 4 C 6.678175 0.369696 0.002176 0
M  V30 5 C 7.658891 -0.560627 -0.273376 0
M  V30 6 F 8.964959 -0.178000 -0.268717 0
M  V30 7 C 7.315566 -1.854254 -0.548013 0
M  V30 8 F 8.290984 -2.767290 -0.819255 0
M  V30 9 C 6.008578 -2.318185 -0.571240 0
M  V30 10 F 5.658404 -3.598005 -0.842289 0
M  V30 11 C 5.054986 -1.348659 -0.288426 0
M  V30 12 N 3.870797 1.529735 -0.964950 0
M  V30 13 C 4.619683 2.478880 -1.519000 0
M  V30 14 C 4.153892 2.985121 -2.714179 0
M  V30 15 C 2.998783 2.540674 -3.291211 0
M  V30 16 C 2.221083 1.542425 -2.698173 0
M  V30 17 C 1.036632 1.182676 -3.424676 0
M  V30 18 O 0.688547 1.714401 -4.533214 0
M  V30 19 N 0.064374 0.210345 -3.070423 0
M  V30 20 C -1.104845 -0.078851 -3.880163 0
M  V30 21 C -1.924100 -1.139218 -3.243291 0
M  V30 22 C -2.573303 -2.011819 -2.718365 0
M  V30 23 C -3.328111 -3.055905 -2.079088 0
M  V30 24 C -3.797554 -4.160738 -2.747903 0
M  V30 25 C -4.514130 -5.111377 -2.046115 0
M  V30 26 C -4.771715 -4.983876 -0.695287 0
M  V30 27 N -5.482437 -5.945901 -0.044129 0
M  V30 28 C -5.737129 -5.828333 1.271548 0
M  V30 29 C -5.282779 -4.729111 1.988878 0
M  V30 30 C -4.560784 -3.741689 1.351136 0
M  V30 31 O -4.038328 -2.588388 1.916891 0
M  V30 32 C -4.149202 -2.209595 3.256623 0
M  V30 33 C -3.441035 -0.895177 3.440995 0 CFG=2
M  V30 34 C -3.501281 -0.390914 4.867512 0
M  V30 35 C -3.046927 1.052992 4.654896 0
M  V30 36 N -3.354106 1.395005 3.286519 0
M  V30 37 C -4.246176 2.557405 3.252496 0
M  V30 38 C -4.051352 0.254184 2.709128 0
M  V30 39 C -4.312636 -3.885436 0.000908 0
M  V30 40 C -3.600011 -2.953960 -0.729613 0
M  V30 41 C 2.731499 1.077100 -1.514040 0
M  V30 42 O 2.056575 0.190191 -0.970469 0
M  V30 43 H 5.486104 2.655956 0.927049 0
M  V30 44 H 5.308139 1.342747 2.088227 0
M  V30 45 H 3.931399 2.449314 1.827192 0
M  V30 46 H 3.464078 0.350682 0.758283 0
M  V30 47 H 6.928153 1.392433 0.220667 0
M  V30 48 H 4.020831 -1.666106 -0.295434 0
M  V30 49 H 5.539481 2.863742 -1.103006 0
M  V30 50 H 4.736207 3.760694 -3.197694 0
M  V30 51 H 2.714008 3.002704 -4.236073 0
M  V30 52 H 0.193782 -0.324632 -2.184673 0
M  V30 53 H -1.668744 0.849257 -4.025503 0
M  V30 54 H -0.730287 -0.511700 -4.842185 0
M  V30 55 H -3.562264 -4.200669 -3.802626 0
M  V30 56 H -4.871747 -5.972898 -2.602158 0
M  V30 57 H -6.298156 -6.576769 1.811181 0
M  V30 58 H -5.446982 -4.559632 3.056459 0
M  V30 59 H -5.186545 -2.115214 3.627266 0
M  V30 60 H -3.600647 -2.935297 3.913033 0
M  V30 61 H -2.369571 -1.033278 3.192915 0
M  V30 62 H -4.560219 -0.340734 5.228885 0
M  V30 63 H -2.859521 -0.956315 5.540296 0
M  V30 64 H -3.505784 1.747927 5.392255 0
M  V30 65 H -1.935668 1.044108 4.752896 0
M  V30 66 H -4.543665 2.810803 4.288198 0
M  V30 67 H -5.179326 2.336901 2.682053 0
M  V30 68 H -3.774449 3.425057 2.746000 0
M  V30 69 H -5.106550 0.354390 3.008065 0
M  V30 70 H -3.901660 0.181052 1.614893 0
M  V30 71 H -3.225293 -2.076372 -0.205818 0
M  V30 END ATOM
M  V30 BEGIN BOND
M  V30 1 1 1 2
M  V30 2 1 2 3
M  V30 3 2 3 4
M  V30 4 1 4 5
M  V30 5 1 5 6
M  V30 6 2 5 7
M  V30 7 1 7 8
M  V30 8 1 7 9
M  V30 9 1 9 10
M  V30 10 2 9 11
M  V30 11 1 2 12
M  V30 12 1 12 13
M  V30 13 2 13 14
M  V30 14 1 14 15
M  V30 15 2 15 16
M  V30 16 1 16 17
M  V30 17 2 17 18
M  V30 18 1 17 19
M  V30 19 1 19 20
M  V30 20 1 20 21
M  V30 21 3 21 22
M  V30 22 1 22 23
M  V30 23 2 23 24
M  V30 24 1 24 25
M  V30 25 2 25 26
M  V30 26 1 26 27
M  V30 27 2 27 28
M  V30 28 1 28 29
M  V30 29 2 29 30
M  V30 30 1 30 31
M  V30 31 1 31 32
M  V30 32 1 32 33
M  V30 33 1 33 34
M  V30 34 1 34 35
M  V30 35 1 35 36
M  V30 36 1 36 37
M  V30 37 1 36 38
M  V30 38 1 30 39
M  V30 39 2 39 40
M  V30 40 1 16 41
M  V30 41 2 41 42
M  V30 42 1 11 3
M  V30 43 1 41 12
M  V30 44 1 40 23
M  V30 45 1 39 26
M  V30 46 1 38 33
M  V30 47 1 1 43
M  V30 48 1 1 44
M  V30 49 1 1 45
M  V30 50 1 2 46
M  V30 51 1 4 47
M  V30 52 1 11 48
M  V30 53 1 13 49
M  V30 54 1 14 50
M  V30 55 1 15 51
M  V30 56 1 19 52
M  V30 57 1 20 53
M  V30 58 1 20 54
M  V30 59 1 24 55
M  V30 60 1 25 56
M  V30 61 1 28 57
M  V30 62 1 29 58
M  V30 63 1 32 59
M  V30 64 1 32 60
M  V30 65 1 33 61 CFG=3
M  V30 66 1 34 62
M  V30 67 1 34 63
M  V30 68 1 35 64
M  V30 69 1 35 65
M  V30 70 1 37 66
M  V30 71 1 37 67
M  V30 72 1 37 68
M  V30 73 1 38 69
M  V30 74 1 38 70
M  V30 75 1 40 71
M  V30 END BOND
M  V30 END CTAB
M  END
>  <Dataset>  (731) 
ChEMBL_Kinases

>  <Ligand_Instance>  (731) 
nan

>  <PDB_ID>  (731) 
nan

>  <Standardized_SMILES>  (731) 
CC(c1cc(F)c(F)c(F)c1)n1cccc(C(=O)NCC#Cc2ccc3nccc(OC[C@@H]4CCN(C)C4)c3c2)c1=O

>  <Name>  (731) 
nan

>  <Pocket>  (731) 
nan

>  <ATP_Site>  (731) 
nan

>  <Peripheral>  (731) 
nan

>  <Num_H_Atoms_ProtBoundConf>  (731) 
nan

>  <Num_Resolved_Atoms>  (731) 
nan

>  <Num_Not_Resolved_Atoms>  (731) 
nan

$$$$
CHEMBL3689294
     RDKit          3D

  0  0  0  0  0  0  0  0  0  0999 V3000
M  V30 BEGIN CTAB
M  V30 COUNTS 71 74 0 0 0
M  V30 BEGIN ATOM
M  V30 1 C 1.846654 -7.740916 1.145850 0
M  V30 2 N 1.742535 -7.291244 -0.198254 0
M  V30 3 C 0.443790 -7.229483 -0.755790 0
M  V30 4 C 2.681899 -6.302449 -0.593604 0
M  V30 5 C 2.521465 -4.955051 0.067023 0
M  V30 6 C 3.608640 -4.020878 -0.461796 0
M  V30 7 O 3.500868 -2.737838 0.133178 0
M  V30 8 C 4.384801 -1.696298 -0.167135 0
M  V30 9 C 5.439337 -1.800720 -1.070669 0
M  V30 10 C 6.273947 -0.744162 -1.326564 0
M  V30 11 N 6.099119 0.437546 -0.705096 0
M  V30 12 C 5.119801 0.599638 0.162989 0
M  V30 13 C 4.873058 1.758207 0.847677 0
M  V30 14 C 3.896996 2.011972 1.763598 0
M  V30 15 C 3.064657 0.923882 2.006744 0
M  V30 16 C 1.955699 0.974270 2.947107 0
M  V30 17 C 1.047367 1.033130 3.733277 0
M  V30 18 C -0.071628 1.098487 4.672814 0
M  V30 19 N -1.280084 1.478617 4.035016 0
M  V30 20 C -2.624327 1.806570 3.823041 0
M  V30 21 O -3.079648 1.672660 5.001346 0
M  V30 22 C -3.452905 2.198800 2.716471 0
M  V30 23 C -4.776432 2.373362 3.036257 0
M  V30 24 C -5.618416 2.721841 1.999208 0
M  V30 25 C -5.178295 2.890024 0.707231 0
M  V30 26 N -3.858879 2.716298 0.388395 0
M  V30 27 C -3.560025 2.925730 -0.980553 0
M  V30 28 C -2.182436 2.618687 -1.442651 0
M  V30 29 O -1.798733 1.300795 -1.271628 0
M  V30 30 C -4.524656 2.161484 -1.841572 0
M  V30 31 C -4.514432 0.791284 -1.974511 0
M  V30 32 C -5.349873 0.007514 -2.744702 0
M  V30 33 C -6.311089 0.737830 -3.462210 0
M  V30 34 F -7.176974 0.052942 -4.254144 0
M  V30 35 C -6.419723 2.121295 -3.408697 0
M  V30 36 F -7.357878 2.775524 -4.111833 0
M  V30 37 C -5.513243 2.759126 -2.594752 0
M  V30 38 C -3.082869 2.382568 1.418507 0
M  V30 39 O -1.878434 2.231779 1.107570 0
M  V30 40 C 3.226914 -0.290039 1.368642 0
M  V30 41 C 4.259577 -0.453273 0.440612 0
M  V30 42 H 2.900888 -7.930747 1.431650 0
M  V30 43 H 1.329016 -8.736717 1.234895 0
M  V30 44 H 1.346695 -7.080148 1.894371 0
M  V30 45 H 0.382393 -7.531355 -1.832419 0
M  V30 46 H -0.188333 -7.995697 -0.226794 0
M  V30 47 H -0.099331 -6.282552 -0.618588 0
M  V30 48 H 2.704965 -6.129173 -1.684279 0
M  V30 49 H 3.701203 -6.683129 -0.310235 0
M  V30 50 H 2.664077 -4.984850 1.169471 0
M  V30 51 H 1.528441 -4.501384 -0.133335 0
M  V30 52 H 3.437281 -3.928160 -1.546300 0
M  V30 53 H 4.589261 -4.462480 -0.288368 0
M  V30 54 H 5.571531 -2.730689 -1.555626 0
M  V30 55 H 7.085733 -0.845022 -2.027358 0
M  V30 56 H 5.562641 2.573221 0.611290 0
M  V30 57 H 3.729108 2.944363 2.283270 0
M  V30 58 H -0.256932 0.090701 5.132598 0
M  V30 59 H 0.209955 1.760538 5.527376 0
M  V30 60 H -0.956521 1.597877 3.008098 0
M  V30 61 H -5.182212 2.258895 4.032415 0
M  V30 62 H -6.669542 2.868096 2.235004 0
M  V30 63 H -5.924168 3.161119 -0.026871 0
M  V30 64 H -3.798818 4.010000 -1.208810 0
M  V30 65 H -1.396765 3.234521 -0.964269 0
M  V30 66 H -2.148432 2.826458 -2.548368 0
M  V30 67 H -0.808442 1.197181 -1.270448 0
M  V30 68 H -3.787772 0.199968 -1.425139 0
M  V30 69 H -5.284308 -1.048451 -2.808931 0
M  V30 70 H -5.565512 3.851043 -2.531906 0
M  V30 71 H 2.585033 -1.132367 1.560815 0
M  V30 END ATOM
M  V30 BEGIN BOND
M  V30 1 1 1 2
M  V30 2 1 2 3
M  V30 3 1 2 4
M  V30 4 1 4 5
M  V30 5 1 5 6
M  V30 6 1 6 7
M  V30 7 1 7 8
M  V30 8 2 8 9
M  V30 9 1 9 10
M  V30 10 2 10 11
M  V30 11 1 11 12
M  V30 12 2 12 13
M  V30 13 1 13 14
M  V30 14 2 14 15
M  V30 15 1 15 16
M  V30 16 3 16 17
M  V30 17 1 17 18
M  V30 18 1 18 19
M  V30 19 1 19 20
M  V30 20 2 20 21
M  V30 21 1 20 22
M  V30 22 2 22 23
M  V30 23 1 23 24
M  V30 24 2 24 25
M  V30 25 1 25 26
M  V30 26 1 26 27
M  V30 27 1 27 28
M  V30 28 1 28 29
M  V30 29 1 27 30
M  V30 30 2 30 31
M  V30 31 1 31 32
M  V30 32 2 32 33
M  V30 33 1 33 34
M  V30 34 1 33 35
M  V30 35 1 35 36
M  V30 36 2 35 37
M  V30 37 1 26 38
M  V30 38 2 38 39
M  V30 39 1 15 40
M  V30 40 2 40 41
M  V30 41 1 41 8
M  V30 42 1 41 12
M  V30 43 1 38 22
M  V30 44 1 37 30
M  V30 45 1 1 42
M  V30 46 1 1 43
M  V30 47 1 1 44
M  V30 48 1 3 45
M  V30 49 1 3 46
M  V30 50 1 3 47
M  V30 51 1 4 48
M  V30 52 1 4 49
M  V30 53 1 5 50
M  V30 54 1 5 51
M  V30 55 1 6 52
M  V30 56 1 6 53
M  V30 57 1 9 54
M  V30 58 1 10 55
M  V30 59 1 13 56
M  V30 60 1 14 57
M  V30 61 1 18 58
M  V30 62 1 18 59
M  V30 63 1 19 60
M  V30 64 1 23 61
M  V30 65 1 24 62
M  V30 66 1 25 63
M  V30 67 1 27 64
M  V30 68 1 28 65
M  V30 69 1 28 66
M  V30 70 1 29 67
M  V30 71 1 31 68
M  V30 72 1 32 69
M  V30 73 1 37 70
M  V30 74 1 40 71
M  V30 END BOND
M  V30 END CTAB
M  END
>  <Dataset>  (732) 
ChEMBL_Kinases

>  <Ligand_Instance>  (732) 
nan

>  <PDB_ID>  (732) 
nan

>  <Standardized_SMILES>  (732) 
CN(C)CCCOc1ccnc2ccc(C#CCNC(=O)c3cccn(C(CO)c4ccc(F)c(F)c4)c3=O)cc12

>  <Name>  (732) 
nan

>  <Pocket>  (732) 
nan

>  <ATP_Site>  (732) 
nan

>  <Peripheral>  (732) 
nan

>  <Num_H_Atoms_ProtBoundConf>  (732) 
nan

>  <Num_Resolved_Atoms>  (732) 
nan

>  <Num_Not_Resolved_Atoms>  (732) 
nan

$$$$
CHEMBL3689293
     RDKit          3D

  0  0  0  0  0  0  0  0  0  0999 V3000
M  V30 BEGIN CTAB
M  V30 COUNTS 70 73 0 0 0
M  V30 BEGIN ATOM
M  V30 1 C 3.766344 -0.145768 5.537899 0
M  V30 2 C 3.075425 0.411511 4.308847 0
M  V30 3 C 4.119613 0.809219 3.352683 0
M  V30 4 C 3.989376 0.593298 1.974630 0
M  V30 5 C 4.990371 0.979962 1.096592 0
M  V30 6 C 6.155704 1.588768 1.518220 0
M  V30 7 F 7.106892 1.950709 0.647268 0
M  V30 8 C 6.315104 1.814929 2.880182 0
M  V30 9 F 7.445199 2.401982 3.303366 0
M  V30 10 C 5.291271 1.414273 3.719243 0
M  V30 11 N 2.149855 1.477075 4.610851 0
M  V30 12 C 2.597989 2.474013 5.388871 0
M  V30 13 C 1.711398 3.485113 5.678827 0
M  V30 14 C 0.402745 3.511065 5.207855 0
M  V30 15 C -0.067192 2.490270 4.407478 0
M  V30 16 C -1.409237 2.497544 3.908413 0
M  V30 17 O -2.159097 3.470797 4.223336 0
M  V30 18 N -2.083447 1.597862 3.105156 0
M  V30 19 C -3.485361 1.737245 2.666893 0
M  V30 20 C -3.837607 0.561960 1.826772 0
M  V30 21 C -4.124605 -0.406883 1.158634 0
M  V30 22 C -4.468729 -1.576002 0.378490 0
M  V30 23 C -5.689314 -2.207674 0.392524 0
M  V30 24 C -5.891005 -3.334906 -0.384618 0
M  V30 25 C -4.854723 -3.805565 -1.163252 0
M  V30 26 N -5.118367 -4.918259 -1.880686 0
M  V30 27 C -4.149438 -5.472868 -2.674945 0
M  V30 28 C -2.915967 -4.885839 -2.731312 0
M  V30 29 C -2.591059 -3.761365 -2.029126 0
M  V30 30 O -1.465646 -3.007105 -1.920811 0
M  V30 31 C -0.217139 -3.103992 -2.477560 0
M  V30 32 C -0.115116 -3.037734 -3.970876 0
M  V30 33 C -0.670286 -1.736484 -4.516600 0
M  V30 34 N -0.563869 -1.625828 -5.952002 0
M  V30 35 C -1.143173 -0.392923 -6.391394 0
M  V30 36 C -1.132247 -2.753508 -6.626273 0
M  V30 37 C -3.606840 -3.221138 -1.225766 0
M  V30 38 C -3.484978 -2.103011 -0.424017 0
M  V30 39 C 0.883471 1.501632 4.155327 0
M  V30 40 O 0.588384 0.515518 3.441122 0
M  V30 41 H 4.141900 0.653489 6.212716 0
M  V30 42 H 3.109465 -0.816812 6.126232 0
M  V30 43 H 4.634979 -0.763475 5.198557 0
M  V30 44 H 2.540791 -0.474602 3.845233 0
M  V30 45 H 3.093557 0.118296 1.598873 0
M  V30 46 H 4.810550 0.781425 0.045919 0
M  V30 47 H 5.505160 1.634694 4.769528 0
M  V30 48 H 3.575851 2.588443 5.821751 0
M  V30 49 H 1.995917 4.335328 6.306014 0
M  V30 50 H -0.264118 4.342260 5.464720 0
M  V30 51 H -1.557452 0.757174 2.786994 0
M  V30 52 H -4.104195 1.745839 3.563490 0
M  V30 53 H -3.539110 2.601004 2.009728 0
M  V30 54 H -6.438626 -1.773667 1.031339 0
M  V30 55 H -6.864988 -3.816354 -0.360487 0
M  V30 56 H -4.325976 -6.363608 -3.261611 0
M  V30 57 H -2.088691 -5.247935 -3.325139 0
M  V30 58 H 0.497985 -2.318860 -2.075731 0
M  V30 59 H 0.267163 -4.067804 -2.134884 0
M  V30 60 H 0.962064 -3.049091 -4.262596 0
M  V30 61 H -0.607100 -3.856039 -4.509265 0
M  V30 62 H -0.249268 -0.846241 -3.995913 0
M  V30 63 H -1.780883 -1.680907 -4.296827 0
M  V30 64 H -1.173421 -0.292580 -7.501361 0
M  V30 65 H -2.212631 -0.276296 -6.055281 0
M  V30 66 H -0.609453 0.467915 -5.918778 0
M  V30 67 H -2.047019 -3.121317 -6.144712 0
M  V30 68 H -1.395140 -2.455956 -7.679171 0
M  V30 69 H -0.434499 -3.617805 -6.715807 0
M  V30 70 H -2.505739 -1.608733 -0.445266 0
M  V30 END ATOM
M  V30 BEGIN BOND
M  V30 1 1 1 2
M  V30 2 1 2 3
M  V30 3 2 3 4
M  V30 4 1 4 5
M  V30 5 2 5 6
M  V30 6 1 6 7
M  V30 7 1 6 8
M  V30 8 1 8 9
M  V30 9 2 8 10
M  V30 10 1 2 11
M  V30 11 1 11 12
M  V30 12 2 12 13
M  V30 13 1 13 14
M  V30 14 2 14 15
M  V30 15 1 15 16
M  V30 16 2 16 17
M  V30 17 1 16 18
M  V30 18 1 18 19
M  V30 19 1 19 20
M  V30 20 3 20 21
M  V30 21 1 21 22
M  V30 22 2 22 23
M  V30 23 1 23 24
M  V30 24 2 24 25
M  V30 25 1 25 26
M  V30 26 2 26 27
M  V30 27 1 27 28
M  V30 28 2 28 29
M  V30 29 1 29 30
M  V30 30 1 30 31
M  V30 31 1 31 32
M  V30 32 1 32 33
M  V30 33 1 33 34
M  V30 34 1 34 35
M  V30 35 1 34 36
M  V30 36 1 29 37
M  V30 37 2 37 38
M  V30 38 1 15 39
M  V30 39 2 39 40
M  V30 40 1 10 3
M  V30 41 1 39 11
M  V30 42 1 38 22
M  V30 43 1 37 25
M  V30 44 1 1 41
M  V30 45 1 1 42
M  V30 46 1 1 43
M  V30 47 1 2 44
M  V30 48 1 4 45
M  V30 49 1 5 46
M  V30 50 1 10 47
M  V30 51 1 12 48
M  V30 52 1 13 49
M  V30 53 1 14 50
M  V30 54 1 18 51
M  V30 55 1 19 52
M  V30 56 1 19 53
M  V30 57 1 23 54
M  V30 58 1 24 55
M  V30 59 1 27 56
M  V30 60 1 28 57
M  V30 61 1 31 58
M  V30 62 1 31 59
M  V30 63 1 32 60
M  V30 64 1 32 61
M  V30 65 1 33 62
M  V30 66 1 33 63
M  V30 67 1 35 64
M  V30 68 1 35 65
M  V30 69 1 35 66
M  V30 70 1 36 67
M  V30 71 1 36 68
M  V30 72 1 36 69
M  V30 73 1 38 70
M  V30 END BOND
M  V30 END CTAB
M  END
>  <Dataset>  (733) 
ChEMBL_Kinases

>  <Ligand_Instance>  (733) 
nan

>  <PDB_ID>  (733) 
nan

>  <Standardized_SMILES>  (733) 
CC(c1ccc(F)c(F)c1)n1cccc(C(=O)NCC#Cc2ccc3nccc(OCCCN(C)C)c3c2)c1=O

>  <Name>  (733) 
nan

>  <Pocket>  (733) 
nan

>  <ATP_Site>  (733) 
nan

>  <Peripheral>  (733) 
nan

>  <Num_H_Atoms_ProtBoundConf>  (733) 
nan

>  <Num_Resolved_Atoms>  (733) 
nan

>  <Num_Not_Resolved_Atoms>  (733) 
nan

$$$$
CHEMBL3689292
     RDKit          3D

  0  0  0  0  0  0  0  0  0  0999 V3000
M  V30 BEGIN CTAB
M  V30 COUNTS 67 71 0 0 0
M  V30 BEGIN ATOM
M  V30 1 O 1.970664 -4.669843 4.255210 0
M  V30 2 C 1.500772 -3.578558 3.850088 0
M  V30 3 N 2.018969 -3.249949 2.588391 0
M  V30 4 C 2.975088 -3.958718 1.708519 0
M  V30 5 C 3.152976 -3.133800 0.467823 0
M  V30 6 C 3.281363 -2.455261 -0.529465 0
M  V30 7 C 3.414260 -1.639527 -1.694848 0
M  V30 8 C 4.543060 -1.060056 -2.211025 0
M  V30 9 C 4.443913 -0.245558 -3.317741 0
M  V30 10 C 3.238803 0.037841 -3.970317 0
M  V30 11 N 3.081021 0.842772 -5.011804 0
M  V30 12 C 1.883085 1.081420 -5.541513 0
M  V30 13 C 0.696269 0.541418 -5.096681 0
M  V30 14 C 0.772792 -0.331051 -3.985282 0
M  V30 15 O -0.190051 -0.919364 -3.446151 0
M  V30 16 C -1.222925 -1.544904 -2.874369 0
M  V30 17 C -2.239164 -0.629520 -2.215228 0
M  V30 18 C -3.357148 -1.446237 -1.590938 0
M  V30 19 C -4.359460 -1.888991 -2.604475 0
M  V30 20 C -4.743410 -0.779843 -3.565943 0
M  V30 21 N -3.610685 -0.115167 -4.142468 0
M  V30 22 C -2.799452 0.424431 -3.097684 0
M  V30 23 C 2.065403 -0.548147 -3.459518 0
M  V30 24 C 2.224502 -1.348755 -2.358132 0
M  V30 25 C 0.560443 -2.845250 4.659994 0
M  V30 26 C 0.242222 -3.375466 5.912630 0
M  V30 27 N -0.608141 -2.724021 6.724914 0
M  V30 28 C -1.174435 -1.553985 6.363954 0
M  V30 29 N -0.904999 -0.997039 5.169154 0
M  V30 30 C -1.561618 0.249947 4.822815 0
M  V30 31 C -0.658062 1.398532 5.182498 0
M  V30 32 C -0.064026 2.066555 4.106913 0
M  V30 33 C 0.807354 3.112853 4.335243 0
M  V30 34 C 1.100945 3.511849 5.606697 0
M  V30 35 F 1.954988 4.541686 5.773098 0
M  V30 36 C 0.523715 2.864636 6.661945 0
M  V30 37 F 0.806033 3.231675 7.946863 0
M  V30 38 C -0.358930 1.805811 6.475796 0
M  V30 39 C -0.059680 -1.654818 4.373835 0
M  V30 40 O 0.167426 -1.111857 3.275627 0
M  V30 41 H 1.673122 -2.329430 2.181965 0
M  V30 42 H 3.952660 -4.019529 2.196975 0
M  V30 43 H 2.496168 -4.889695 1.426969 0
M  V30 44 H 5.450750 -1.308938 -1.683379 0
M  V30 45 H 5.336460 0.202624 -3.715880 0
M  V30 46 H 1.758665 1.755128 -6.405043 0
M  V30 47 H -0.284942 0.688598 -5.475835 0
M  V30 48 H -1.839167 -2.176008 -3.596764 0
M  V30 49 H -0.918997 -2.246862 -2.040890 0
M  V30 50 H -1.726067 -0.116270 -1.359488 0
M  V30 51 H -2.876653 -2.387382 -1.199228 0
M  V30 52 H -3.765942 -0.899477 -0.733617 0
M  V30 53 H -5.280123 -2.164057 -2.045203 0
M  V30 54 H -3.986585 -2.753574 -3.198137 0
M  V30 55 H -5.411551 -0.050447 -3.065147 0
M  V30 56 H -5.311925 -1.267133 -4.381514 0
M  V30 57 H -3.133212 -0.743276 -4.802345 0
M  V30 58 H -3.479561 1.030582 -2.446141 0
M  V30 59 H -2.033387 1.149518 -3.443783 0
M  V30 60 H 1.317722 -1.789901 -1.985606 0
M  V30 61 H 0.626399 -4.287334 6.294092 0
M  V30 62 H -1.854483 -1.067884 7.043493 0
M  V30 63 H -2.486419 0.333635 5.418550 0
M  V30 64 H -1.817631 0.323293 3.762289 0
M  V30 65 H -0.297058 1.757299 3.075267 0
M  V30 66 H 1.232344 3.592990 3.488906 0
M  V30 67 H -0.843704 1.257575 7.245841 0
M  V30 END ATOM
M  V30 BEGIN BOND
M  V30 1 2 1 2
M  V30 2 1 2 3
M  V30 3 1 3 4
M  V30 4 1 4 5
M  V30 5 3 5 6
M  V30 6 1 6 7
M  V30 7 2 7 8
M  V30 8 1 8 9
M  V30 9 2 9 10
M  V30 10 1 10 11
M  V30 11 2 11 12
M  V30 12 1 12 13
M  V30 13 2 13 14
M  V30 14 1 14 15
M  V30 15 1 15 16
M  V30 16 1 16 17
M  V30 17 1 17 18
M  V30 18 1 18 19
M  V30 19 1 19 20
M  V30 20 1 20 21
M  V30 21 1 21 22
M  V30 22 1 14 23
M  V30 23 2 23 24
M  V30 24 1 2 25
M  V30 25 2 25 26
M  V30 26 1 26 27
M  V30 27 2 27 28
M  V30 28 1 28 29
M  V30 29 1 29 30
M  V30 30 1 30 31
M  V30 31 2 31 32
M  V30 32 1 32 33
M  V30 33 2 33 34
M  V30 34 1 34 35
M  V30 35 1 34 36
M  V30 36 1 36 37
M  V30 37 2 36 38
M  V30 38 1 29 39
M  V30 39 2 39 40
M  V30 40 1 24 7
M  V30 41 1 39 25
M  V30 42 1 23 10
M  V30 43 1 38 31
M  V30 44 1 22 17
M  V30 45 1 3 41
M  V30 46 1 4 42
M  V30 47 1 4 43
M  V30 48 1 8 44
M  V30 49 1 9 45
M  V30 50 1 12 46
M  V30 51 1 13 47
M  V30 52 1 16 48
M  V30 53 1 16 49
M  V30 54 1 17 50
M  V30 55 1 18 51
M  V30 56 1 18 52
M  V30 57 1 19 53
M  V30 58 1 19 54
M  V30 59 1 20 55
M  V30 60 1 20 56
M  V30 61 1 21 57
M  V30 62 1 22 58
M  V30 63 1 22 59
M  V30 64 1 24 60
M  V30 65 1 26 61
M  V30 66 1 28 62
M  V30 67 1 30 63
M  V30 68 1 30 64
M  V30 69 1 32 65
M  V30 70 1 33 66
M  V30 71 1 38 67
M  V30 END BOND
M  V30 END CTAB
M  END
>  <Dataset>  (734) 
ChEMBL_Kinases

>  <Ligand_Instance>  (734) 
nan

>  <PDB_ID>  (734) 
nan

>  <Standardized_SMILES>  (734) 
O=C(NCC#Cc1ccc2nccc(OCC3CCCNC3)c2c1)c1cncn(Cc2ccc(F)c(F)c2)c1=O

>  <Name>  (734) 
nan

>  <Pocket>  (734) 
nan

>  <ATP_Site>  (734) 
nan

>  <Peripheral>  (734) 
nan

>  <Num_H_Atoms_ProtBoundConf>  (734) 
nan

>  <Num_Resolved_Atoms>  (734) 
nan

>  <Num_Not_Resolved_Atoms>  (734) 
nan

$$$$
CHEMBL3689291
     RDKit          3D

  0  0  0  0  0  0  0  0  0  0999 V3000
M  V30 BEGIN CTAB
M  V30 COUNTS 64 68 0 0 0
M  V30 BEGIN ATOM
M  V30 1 O 1.571551 -1.174373 3.602344 0
M  V30 2 C 2.244416 -1.795777 2.709147 0
M  V30 3 N 3.570323 -1.288533 2.719067 0
M  V30 4 C 3.664181 -0.245709 3.748946 0
M  V30 5 C 2.732075 0.854245 3.477022 0
M  V30 6 C 1.955430 1.753302 3.270703 0
M  V30 7 C 1.018598 2.803853 3.037593 0
M  V30 8 C 1.177793 4.087879 3.518681 0
M  V30 9 C 0.203192 5.038697 3.233338 0
M  V30 10 C -0.919421 4.761499 2.490384 0
M  V30 11 N -1.813267 5.732196 2.258489 0
M  V30 12 C -2.908321 5.458189 1.532700 0
M  V30 13 C -3.063746 4.187304 1.057788 0
M  V30 14 C -2.170970 3.153744 1.270079 0
M  V30 15 O -2.389932 1.865782 0.752697 0
M  V30 16 C -3.558722 1.653378 0.002211 0
M  V30 17 C -3.715894 0.266636 -0.508740 0
M  V30 18 C -3.773328 -0.802828 0.527379 0
M  V30 19 C -3.604494 -2.046009 -0.350441 0
M  V30 20 N -3.030118 -1.616045 -1.594280 0
M  V30 21 C -2.642775 -0.216186 -1.431123 0
M  V30 22 C -1.060466 3.470620 2.017884 0
M  V30 23 C -0.110772 2.499282 2.282404 0
M  V30 24 C 1.687590 -2.835663 1.859837 0
M  V30 25 C 0.338238 -3.103643 2.103411 0
M  V30 26 N -0.314566 -4.037661 1.399092 0
M  V30 27 C 0.268774 -4.765252 0.431682 0
M  V30 28 N 1.565714 -4.516708 0.188325 0
M  V30 29 C 2.253162 -5.263093 -0.839297 0
M  V30 30 C 2.136337 -4.571019 -2.145627 0
M  V30 31 C 1.011384 -4.938777 -2.892873 0
M  V30 32 C 0.849362 -4.323942 -4.126204 0
M  V30 33 C 1.682506 -3.396083 -4.677762 0
M  V30 34 F 1.484789 -2.831160 -5.870309 0
M  V30 35 C 2.780117 -3.063853 -3.903880 0
M  V30 36 F 3.665413 -2.146113 -4.374978 0
M  V30 37 C 3.003967 -3.635511 -2.668212 0
M  V30 38 C 2.261765 -3.593227 0.865325 0
M  V30 39 O 3.472727 -3.331987 0.668083 0
M  V30 40 H 4.249811 -1.694925 2.043088 0
M  V30 41 H 3.470748 -0.674264 4.753773 0
M  V30 42 H 4.691482 0.176284 3.693716 0
M  V30 43 H 2.057140 4.318959 4.104851 0
M  V30 44 H 0.383897 6.029169 3.638454 0
M  V30 45 H -3.598419 6.252898 1.367334 0
M  V30 46 H -3.968522 3.991558 0.467355 0
M  V30 47 H -4.457897 1.928023 0.552199 0
M  V30 48 H -3.504761 2.316385 -0.889940 0
M  V30 49 H -4.669401 0.232983 -1.079011 0
M  V30 50 H -2.979275 -0.754269 1.286483 0
M  V30 51 H -4.780242 -0.850622 0.955824 0
M  V30 52 H -2.964286 -2.813340 0.119082 0
M  V30 53 H -4.600697 -2.485113 -0.586947 0
M  V30 54 H -3.701053 -1.671246 -2.401495 0
M  V30 55 H -1.638507 -0.234238 -0.977701 0
M  V30 56 H -2.687079 0.260299 -2.416376 0
M  V30 57 H -0.260823 1.496088 1.891453 0
M  V30 58 H -0.290142 -2.611595 2.847313 0
M  V30 59 H -0.321077 -5.500664 -0.093785 0
M  V30 60 H 1.866326 -6.310637 -0.905178 0
M  V30 61 H 3.307599 -5.370701 -0.530124 0
M  V30 62 H 0.258740 -5.666760 -2.580419 0
M  V30 63 H -0.032151 -4.609391 -4.716317 0
M  V30 64 H 3.856445 -3.387721 -2.050799 0
M  V30 END ATOM
M  V30 BEGIN BOND
M  V30 1 2 1 2
M  V30 2 1 2 3
M  V30 3 1 3 4
M  V30 4 1 4 5
M  V30 5 3 5 6
M  V30 6 1 6 7
M  V30 7 2 7 8
M  V30 8 1 8 9
M  V30 9 2 9 10
M  V30 10 1 10 11
M  V30 11 2 11 12
M  V30 12 1 12 13
M  V30 13 2 13 14
M  V30 14 1 14 15
M  V30 15 1 15 16
M  V30 16 1 16 17
M  V30 17 1 17 18
M  V30 18 1 18 19
M  V30 19 1 19 20
M  V30 20 1 20 21
M  V30 21 1 14 22
M  V30 22 2 22 23
M  V30 23 1 2 24
M  V30 24 2 24 25
M  V30 25 1 25 26
M  V30 26 2 26 27
M  V30 27 1 27 28
M  V30 28 1 28 29
M  V30 29 1 29 30
M  V30 30 2 30 31
M  V30 31 1 31 32
M  V30 32 2 32 33
M  V30 33 1 33 34
M  V30 34 1 33 35
M  V30 35 1 35 36
M  V30 36 2 35 37
M  V30 37 1 28 38
M  V30 38 2 38 39
M  V30 39 1 23 7
M  V30 40 1 38 24
M  V30 41 1 22 10
M  V30 42 1 37 30
M  V30 43 1 21 17
M  V30 44 1 3 40
M  V30 45 1 4 41
M  V30 46 1 4 42
M  V30 47 1 8 43
M  V30 48 1 9 44
M  V30 49 1 12 45
M  V30 50 1 13 46
M  V30 51 1 16 47
M  V30 52 1 16 48
M  V30 53 1 17 49
M  V30 54 1 18 50
M  V30 55 1 18 51
M  V30 56 1 19 52
M  V30 57 1 19 53
M  V30 58 1 20 54
M  V30 59 1 21 55
M  V30 60 1 21 56
M  V30 61 1 23 57
M  V30 62 1 25 58
M  V30 63 1 27 59
M  V30 64 1 29 60
M  V30 65 1 29 61
M  V30 66 1 31 62
M  V30 67 1 32 63
M  V30 68 1 37 64
M  V30 END BOND
M  V30 END CTAB
M  END
>  <Dataset>  (735) 
ChEMBL_Kinases

>  <Ligand_Instance>  (735) 
nan

>  <PDB_ID>  (735) 
nan

>  <Standardized_SMILES>  (735) 
O=C(NCC#Cc1ccc2nccc(OCC3CCNC3)c2c1)c1cncn(Cc2ccc(F)c(F)c2)c1=O

>  <Name>  (735) 
nan

>  <Pocket>  (735) 
nan

>  <ATP_Site>  (735) 
nan

>  <Peripheral>  (735) 
nan

>  <Num_H_Atoms_ProtBoundConf>  (735) 
nan

>  <Num_Resolved_Atoms>  (735) 
nan

>  <Num_Not_Resolved_Atoms>  (735) 
nan

$$$$
CHEMBL3689290
     RDKit          3D

  0  0  0  0  0  0  0  0  0  0999 V3000
M  V30 BEGIN CTAB
M  V30 COUNTS 63 67 0 0 0
M  V30 BEGIN ATOM
M  V30 1 O 3.848511 -2.490072 4.276083 0
M  V30 2 C 2.825059 -2.597727 3.515129 0
M  V30 3 N 2.562948 -1.325306 2.942180 0
M  V30 4 C 3.434288 -0.206675 3.291271 0
M  V30 5 C 2.908965 0.960412 2.544900 0
M  V30 6 C 2.463868 1.900169 1.935383 0
M  V30 7 C 1.912940 3.008084 1.205788 0
M  V30 8 C 2.677019 4.070394 0.782595 0
M  V30 9 C 2.109110 5.106650 0.088753 0
M  V30 10 C 0.762507 5.066849 -0.177427 0
M  V30 11 N 0.303757 6.128331 -0.861964 0
M  V30 12 C -1.001807 6.184534 -1.172027 0
M  V30 13 C -1.807560 5.158903 -0.777592 0
M  V30 14 C -1.462371 4.040560 -0.086889 0
M  V30 15 O -2.040823 2.939768 0.399271 0
M  V30 16 C -3.308660 2.475482 0.365894 0
M  V30 17 C -3.941006 2.119729 -0.932972 0
M  V30 18 C -3.120535 1.080691 -1.692780 0
M  V30 19 C -3.835785 1.111364 -3.040359 0
M  V30 20 C -4.431180 2.495915 -3.035494 0
M  V30 21 O -4.068282 3.102555 -1.860019 0
M  V30 22 C -0.095270 4.038264 0.207096 0
M  V30 23 C 0.581277 3.038603 0.903992 0
M  V30 24 C 2.097041 -3.838710 3.312471 0
M  V30 25 C 2.618544 -4.922214 4.031011 0
M  V30 26 N 2.053422 -6.137357 3.946723 0
M  V30 27 C 0.988980 -6.390227 3.196255 0
M  V30 28 N 0.481555 -5.365506 2.505674 0
M  V30 29 C -0.679253 -5.595525 1.672361 0
M  V30 30 C -0.201851 -5.987585 0.324410 0
M  V30 31 C 0.057082 -5.162270 -0.739429 0
M  V30 32 C 0.499710 -5.660539 -1.942649 0
M  V30 33 C 0.705476 -7.024554 -2.137075 0
M  V30 34 F 1.142493 -7.449513 -3.346658 0
M  V30 35 C 0.451579 -7.880812 -1.078878 0
M  V30 36 F 0.644297 -9.210434 -1.244096 0
M  V30 37 C 0.009807 -7.345076 0.109679 0
M  V30 38 C 0.994060 -4.134100 2.544564 0
M  V30 39 O 0.551681 -3.143458 1.914430 0
M  V30 40 H 1.751928 -1.246641 2.291556 0
M  V30 41 H 3.447724 -0.032045 4.382996 0
M  V30 42 H 4.449712 -0.405774 2.949719 0
M  V30 43 H 3.724256 4.065116 1.009604 0
M  V30 44 H 2.748761 5.910014 -0.218074 0
M  V30 45 H -1.401208 7.008609 -1.712647 0
M  V30 46 H -2.839054 5.233724 -1.016152 0
M  V30 47 H -4.014803 3.245418 0.837000 0
M  V30 48 H -3.384948 1.624379 1.103984 0
M  V30 49 H -4.928904 1.594965 -0.750500 0
M  V30 50 H -2.073755 1.376837 -1.791419 0
M  V30 51 H -3.265988 0.076935 -1.249742 0
M  V30 52 H -3.145661 0.994489 -3.883983 0
M  V30 53 H -4.616391 0.334517 -3.073250 0
M  V30 54 H -4.080150 3.060751 -3.917932 0
M  V30 55 H -5.542889 2.387349 -3.142555 0
M  V30 56 H -0.018413 2.191332 1.243524 0
M  V30 57 H 3.483136 -4.945756 4.707052 0
M  V30 58 H 0.515897 -7.358467 3.111424 0
M  V30 59 H -1.335869 -6.382194 2.117226 0
M  V30 60 H -1.244007 -4.642324 1.583826 0
M  V30 61 H -0.109169 -4.107887 -0.568918 0
M  V30 62 H 0.699641 -5.001385 -2.771192 0
M  V30 63 H -0.166904 -8.074129 0.889140 0
M  V30 END ATOM
M  V30 BEGIN BOND
M  V30 1 2 1 2
M  V30 2 1 2 3
M  V30 3 1 3 4
M  V30 4 1 4 5
M  V30 5 3 5 6
M  V30 6 1 6 7
M  V30 7 2 7 8
M  V30 8 1 8 9
M  V30 9 2 9 10
M  V30 10 1 10 11
M  V30 11 2 11 12
M  V30 12 1 12 13
M  V30 13 2 13 14
M  V30 14 1 14 15
M  V30 15 1 15 16
M  V30 16 1 16 17
M  V30 17 1 17 18
M  V30 18 1 18 19
M  V30 19 1 19 20
M  V30 20 1 20 21
M  V30 21 1 14 22
M  V30 22 2 22 23
M  V30 23 1 2 24
M  V30 24 2 24 25
M  V30 25 1 25 26
M  V30 26 2 26 27
M  V30 27 1 27 28
M  V30 28 1 28 29
M  V30 29 1 29 30
M  V30 30 2 30 31
M  V30 31 1 31 32
M  V30 32 2 32 33
M  V30 33 1 33 34
M  V30 34 1 33 35
M  V30 35 1 35 36
M  V30 36 2 35 37
M  V30 37 1 28 38
M  V30 38 2 38 39
M  V30 39 1 23 7
M  V30 40 1 38 24
M  V30 41 1 22 10
M  V30 42 1 37 30
M  V30 43 1 21 17
M  V30 44 1 3 40
M  V30 45 1 4 41
M  V30 46 1 4 42
M  V30 47 1 8 43
M  V30 48 1 9 44
M  V30 49 1 12 45
M  V30 50 1 13 46
M  V30 51 1 16 47
M  V30 52 1 16 48
M  V30 53 1 17 49
M  V30 54 1 18 50
M  V30 55 1 18 51
M  V30 56 1 19 52
M  V30 57 1 19 53
M  V30 58 1 20 54
M  V30 59 1 20 55
M  V30 60 1 23 56
M  V30 61 1 25 57
M  V30 62 1 27 58
M  V30 63 1 29 59
M  V30 64 1 29 60
M  V30 65 1 31 61
M  V30 66 1 32 62
M  V30 67 1 37 63
M  V30 END BOND
M  V30 END CTAB
M  END
>  <Dataset>  (736) 
ChEMBL_Kinases

>  <Ligand_Instance>  (736) 
nan

>  <PDB_ID>  (736) 
nan

>  <Standardized_SMILES>  (736) 
O=C(NCC#Cc1ccc2nccc(OCC3CCCO3)c2c1)c1cncn(Cc2ccc(F)c(F)c2)c1=O

>  <Name>  (736) 
nan

>  <Pocket>  (736) 
nan

>  <ATP_Site>  (736) 
nan

>  <Peripheral>  (736) 
nan

>  <Num_H_Atoms_ProtBoundConf>  (736) 
nan

>  <Num_Resolved_Atoms>  (736) 
nan

>  <Num_Not_Resolved_Atoms>  (736) 
nan

$$$$
CHEMBL3689289
     RDKit          3D

  0  0  0  0  0  0  0  0  0  0999 V3000
M  V30 BEGIN CTAB
M  V30 COUNTS 68 71 0 0 0
M  V30 BEGIN ATOM
M  V30 1 C 9.043285 -0.440246 1.244968 0
M  V30 2 N 7.630601 -0.658369 1.380275 0
M  V30 3 C 7.413509 -1.955965 1.992326 0
M  V30 4 C 6.977693 -0.685379 0.084958 0
M  V30 5 C 6.982391 0.667445 -0.599180 0
M  V30 6 C 6.280507 0.575434 -1.960329 0
M  V30 7 N 4.906614 0.150927 -1.839293 0
M  V30 8 C 4.140296 0.024233 -3.029975 0
M  V30 9 C 4.680214 0.294299 -4.255445 0
M  V30 10 C 3.974991 0.184159 -5.420957 0
M  V30 11 N 2.688726 -0.207563 -5.370344 0
M  V30 12 C 2.075728 -0.494932 -4.198904 0
M  V30 13 C 0.755405 -0.897859 -4.136684 0
M  V30 14 C 0.125548 -1.191732 -2.944913 0
M  V30 15 C 0.856373 -1.075775 -1.755293 0
M  V30 16 C 0.248400 -1.370648 -0.475307 0
M  V30 17 C -0.244143 -1.615052 0.610247 0
M  V30 18 C -0.813924 -1.917600 1.923802 0
M  V30 19 N -2.157564 -1.390021 1.951144 0
M  V30 20 C -3.152376 -1.820867 1.038705 0
M  V30 21 O -2.643410 -2.698660 0.259348 0
M  V30 22 C -4.534503 -1.385358 0.944722 0
M  V30 23 C -5.273928 -2.006403 -0.070552 0
M  V30 24 C -6.598960 -1.679125 -0.260960 0
M  V30 25 C -7.262186 -0.749693 0.509694 0
M  V30 26 N -6.510144 -0.176934 1.475690 0
M  V30 27 C -7.159085 0.810683 2.314444 0
M  V30 28 C -7.788679 0.245516 3.521096 0
M  V30 29 C -9.119710 -0.142739 3.339724 0
M  V30 30 C -9.819365 -0.690164 4.412133 0
M  V30 31 C -9.171986 -0.829274 5.615472 0
M  V30 32 F -9.825127 -1.363700 6.696153 0
M  V30 33 C -7.856583 -0.459288 5.841500 0
M  V30 34 F -7.227170 -0.600011 7.031799 0
M  V30 35 C -7.177242 0.087824 4.747158 0
M  V30 36 C -5.237384 -0.465261 1.688061 0
M  V30 37 O -4.582952 0.079737 2.581499 0
M  V30 38 C 2.166418 -0.672491 -1.858748 0
M  V30 39 C 2.821650 -0.372596 -3.032333 0
M  V30 40 H 9.342392 0.613261 1.392917 0
M  V30 41 H 9.404377 -0.795656 0.238218 0
M  V30 42 H 9.628550 -1.063177 1.983517 0
M  V30 43 H 7.869250 -2.047875 2.993956 0
M  V30 44 H 7.867894 -2.707678 1.292210 0
M  V30 45 H 6.329530 -2.184208 2.111838 0
M  V30 46 H 7.533603 -1.444872 -0.513897 0
M  V30 47 H 5.963022 -1.060299 0.257072 0
M  V30 48 H 6.452428 1.373251 0.073314 0
M  V30 49 H 8.007347 1.046906 -0.718451 0
M  V30 50 H 6.348353 1.554344 -2.464523 0
M  V30 51 H 6.903981 -0.116259 -2.572248 0
M  V30 52 H 4.593470 -0.028880 -0.866239 0
M  V30 53 H 5.706801 0.614211 -4.376686 0
M  V30 54 H 4.402884 0.397685 -6.389550 0
M  V30 55 H 0.227302 -0.972660 -5.098777 0
M  V30 56 H -0.903653 -1.504307 -2.914909 0
M  V30 57 H -0.887466 -3.026575 2.050148 0
M  V30 58 H -0.222911 -1.466602 2.742380 0
M  V30 59 H -2.427720 -0.669040 2.655052 0
M  V30 60 H -4.844045 -2.752719 -0.732843 0
M  V30 61 H -7.150727 -2.171457 -1.050483 0
M  V30 62 H -8.292996 -0.500356 0.355797 0
M  V30 63 H -7.872347 1.399690 1.697824 0
M  V30 64 H -6.380071 1.521030 2.652417 0
M  V30 65 H -9.704576 -0.070330 2.432695 0
M  V30 66 H -10.853506 -1.027024 4.389998 0
M  V30 67 H -6.150508 0.402459 4.836206 0
M  V30 68 H 2.680193 -0.600280 -0.917885 0
M  V30 END ATOM
M  V30 BEGIN BOND
M  V30 1 1 1 2
M  V30 2 1 2 3
M  V30 3 1 2 4
M  V30 4 1 4 5
M  V30 5 1 5 6
M  V30 6 1 6 7
M  V30 7 1 7 8
M  V30 8 2 8 9
M  V30 9 1 9 10
M  V30 10 2 10 11
M  V30 11 1 11 12
M  V30 12 2 12 13
M  V30 13 1 13 14
M  V30 14 2 14 15
M  V30 15 1 15 16
M  V30 16 3 16 17
M  V30 17 1 17 18
M  V30 18 1 18 19
M  V30 19 1 19 20
M  V30 20 2 20 21
M  V30 21 1 20 22
M  V30 22 2 22 23
M  V30 23 1 23 24
M  V30 24 2 24 25
M  V30 25 1 25 26
M  V30 26 1 26 27
M  V30 27 1 27 28
M  V30 28 2 28 29
M  V30 29 1 29 30
M  V30 30 2 30 31
M  V30 31 1 31 32
M  V30 32 1 31 33
M  V30 33 1 33 34
M  V30 34 2 33 35
M  V30 35 1 26 36
M  V30 36 2 36 37
M  V30 37 1 15 38
M  V30 38 2 38 39
M  V30 39 1 39 8
M  V30 40 1 39 12
M  V30 41 1 36 22
M  V30 42 1 35 28
M  V30 43 1 1 40
M  V30 44 1 1 41
M  V30 45 1 1 42
M  V30 46 1 3 43
M  V30 47 1 3 44
M  V30 48 1 3 45
M  V30 49 1 4 46
M  V30 50 1 4 47
M  V30 51 1 5 48
M  V30 52 1 5 49
M  V30 53 1 6 50
M  V30 54 1 6 51
M  V30 55 1 7 52
M  V30 56 1 9 53
M  V30 57 1 10 54
M  V30 58 1 13 55
M  V30 59 1 14 56
M  V30 60 1 18 57
M  V30 61 1 18 58
M  V30 62 1 19 59
M  V30 63 1 23 60
M  V30 64 1 24 61
M  V30 65 1 25 62
M  V30 66 1 27 63
M  V30 67 1 27 64
M  V30 68 1 29 65
M  V30 69 1 30 66
M  V30 70 1 35 67
M  V30 71 1 38 68
M  V30 END BOND
M  V30 END CTAB
M  END
>  <Dataset>  (737) 
ChEMBL_Kinases

>  <Ligand_Instance>  (737) 
nan

>  <PDB_ID>  (737) 
nan

>  <Standardized_SMILES>  (737) 
CN(C)CCCNc1ccnc2ccc(C#CCNC(=O)c3cccn(Cc4ccc(F)c(F)c4)c3=O)cc12

>  <Name>  (737) 
nan

>  <Pocket>  (737) 
nan

>  <ATP_Site>  (737) 
nan

>  <Peripheral>  (737) 
nan

>  <Num_H_Atoms_ProtBoundConf>  (737) 
nan

>  <Num_Resolved_Atoms>  (737) 
nan

>  <Num_Not_Resolved_Atoms>  (737) 
nan

$$$$
CHEMBL3689288
     RDKit          3D

  0  0  0  0  0  0  0  0  0  0999 V3000
M  V30 BEGIN CTAB
M  V30 COUNTS 67 70 0 0 0
M  V30 BEGIN ATOM
M  V30 1 C 8.432647 -3.200398 2.959167 0
M  V30 2 N 7.011844 -3.239024 2.766047 0
M  V30 3 C 6.341463 -2.940422 4.005754 0
M  V30 4 C 6.565242 -2.286976 1.758870 0
M  V30 5 C 7.040216 -2.683648 0.393339 0
M  V30 6 C 6.579108 -1.694864 -0.620709 0
M  V30 7 N 5.149415 -1.579201 -0.692379 0
M  V30 8 C 4.585924 -0.661222 -1.619386 0
M  V30 9 C 5.405622 0.093148 -2.430847 0
M  V30 10 C 5.022591 1.018323 -3.375900 0
M  V30 11 N 3.685667 1.189599 -3.505119 0
M  V30 12 C 2.811381 0.490035 -2.748427 0
M  V30 13 C 1.437972 0.682965 -2.896762 0
M  V30 14 C 0.542256 -0.027662 -2.126047 0
M  V30 15 C 0.997833 -0.940280 -1.196679 0
M  V30 16 C -0.009075 -1.628840 -0.439486 0
M  V30 17 C -0.854189 -2.191580 0.210678 0
M  V30 18 C -1.901243 -2.861645 1.021767 0
M  V30 19 N -3.125996 -2.128049 0.763357 0
M  V30 20 C -4.332251 -2.522130 1.402191 0
M  V30 21 O -4.106155 -3.532276 2.149942 0
M  V30 22 C -5.654612 -1.932849 1.285951 0
M  V30 23 C -6.655477 -2.531493 2.044395 0
M  V30 24 N -7.913494 -2.060635 2.012864 0
M  V30 25 C -8.272683 -0.993607 1.253295 0
M  V30 26 N -7.326781 -0.392765 0.508168 0
M  V30 27 C -7.612058 0.752530 -0.336275 0
M  V30 28 C -7.433114 2.034392 0.380259 0
M  V30 29 C -8.526421 2.545746 1.087388 0
M  V30 30 C -8.395982 3.740792 1.765434 0
M  V30 31 C -7.222182 4.461961 1.777224 0
M  V30 32 F -7.073412 5.649691 2.444067 0
M  V30 33 C -6.137173 3.970595 1.085236 0
M  V30 34 F -4.939666 4.632235 1.052157 0
M  V30 35 C -6.268158 2.775197 0.407150 0
M  V30 36 C -6.083486 -0.859891 0.540517 0
M  V30 37 O -5.198010 -0.310416 -0.147166 0
M  V30 38 C 2.353221 -1.153116 -1.026938 0
M  V30 39 C 3.236335 -0.435323 -1.804725 0
M  V30 40 H 8.900347 -2.270472 2.525757 0
M  V30 41 H 8.687400 -3.214889 4.044613 0
M  V30 42 H 8.885884 -4.119291 2.524698 0
M  V30 43 H 6.901962 -2.227135 4.641739 0
M  V30 44 H 5.380267 -2.400015 3.758729 0
M  V30 45 H 6.101614 -3.874623 4.581405 0
M  V30 46 H 6.929590 -1.263008 1.967582 0
M  V30 47 H 5.468113 -2.305807 1.778155 0
M  V30 48 H 6.767930 -3.719848 0.142376 0
M  V30 49 H 8.161982 -2.634397 0.404012 0
M  V30 50 H 6.919011 -1.957716 -1.654129 0
M  V30 51 H 6.996193 -0.682460 -0.434410 0
M  V30 52 H 4.610670 -2.188373 -0.049918 0
M  V30 53 H 6.482219 -0.045349 -2.325744 0
M  V30 54 H 5.759840 1.556251 -3.960438 0
M  V30 55 H 1.103774 1.407995 -3.636199 0
M  V30 56 H -0.514145 0.149532 -2.269791 0
M  V30 57 H -2.054065 -3.906664 0.718095 0
M  V30 58 H -1.597160 -2.828165 2.098563 0
M  V30 59 H -3.176693 -1.312187 0.124401 0
M  V30 60 H -6.502008 -3.397390 2.699325 0
M  V30 61 H -9.279805 -0.633414 1.241582 0
M  V30 62 H -8.675797 0.691776 -0.674439 0
M  V30 63 H -6.938084 0.762078 -1.239656 0
M  V30 64 H -9.451065 1.990229 1.085750 0
M  V30 65 H -9.257332 4.134795 2.317325 0
M  V30 66 H -5.416916 2.414152 -0.123246 0
M  V30 67 H 2.659919 -1.874717 -0.289735 0
M  V30 END ATOM
M  V30 BEGIN BOND
M  V30 1 1 1 2
M  V30 2 1 2 3
M  V30 3 1 2 4
M  V30 4 1 4 5
M  V30 5 1 5 6
M  V30 6 1 6 7
M  V30 7 1 7 8
M  V30 8 2 8 9
M  V30 9 1 9 10
M  V30 10 2 10 11
M  V30 11 1 11 12
M  V30 12 2 12 13
M  V30 13 1 13 14
M  V30 14 2 14 15
M  V30 15 1 15 16
M  V30 16 3 16 17
M  V30 17 1 17 18
M  V30 18 1 18 19
M  V30 19 1 19 20
M  V30 20 2 20 21
M  V30 21 1 20 22
M  V30 22 2 22 23
M  V30 23 1 23 24
M  V30 24 2 24 25
M  V30 25 1 25 26
M  V30 26 1 26 27
M  V30 27 1 27 28
M  V30 28 2 28 29
M  V30 29 1 29 30
M  V30 30 2 30 31
M  V30 31 1 31 32
M  V30 32 1 31 33
M  V30 33 1 33 34
M  V30 34 2 33 35
M  V30 35 1 26 36
M  V30 36 2 36 37
M  V30 37 1 15 38
M  V30 38 2 38 39
M  V30 39 1 39 8
M  V30 40 1 39 12
M  V30 41 1 36 22
M  V30 42 1 35 28
M  V30 43 1 1 40
M  V30 44 1 1 41
M  V30 45 1 1 42
M  V30 46 1 3 43
M  V30 47 1 3 44
M  V30 48 1 3 45
M  V30 49 1 4 46
M  V30 50 1 4 47
M  V30 51 1 5 48
M  V30 52 1 5 49
M  V30 53 1 6 50
M  V30 54 1 6 51
M  V30 55 1 7 52
M  V30 56 1 9 53
M  V30 57 1 10 54
M  V30 58 1 13 55
M  V30 59 1 14 56
M  V30 60 1 18 57
M  V30 61 1 18 58
M  V30 62 1 19 59
M  V30 63 1 23 60
M  V30 64 1 25 61
M  V30 65 1 27 62
M  V30 66 1 27 63
M  V30 67 1 29 64
M  V30 68 1 30 65
M  V30 69 1 35 66
M  V30 70 1 38 67
M  V30 END BOND
M  V30 END CTAB
M  END
>  <Dataset>  (738) 
ChEMBL_Kinases

>  <Ligand_Instance>  (738) 
nan

>  <PDB_ID>  (738) 
nan

>  <Standardized_SMILES>  (738) 
CN(C)CCCNc1ccnc2ccc(C#CCNC(=O)c3cncn(Cc4ccc(F)c(F)c4)c3=O)cc12

>  <Name>  (738) 
nan

>  <Pocket>  (738) 
nan

>  <ATP_Site>  (738) 
nan

>  <Peripheral>  (738) 
nan

>  <Num_H_Atoms_ProtBoundConf>  (738) 
nan

>  <Num_Resolved_Atoms>  (738) 
nan

>  <Num_Not_Resolved_Atoms>  (738) 
nan

$$$$
CHEMBL3689287
     RDKit          3D

  0  0  0  0  0  0  0  0  0  0999 V3000
M  V30 BEGIN CTAB
M  V30 COUNTS 65 68 0 0 0
M  V30 BEGIN ATOM
M  V30 1 C 3.646640 -2.377047 4.980881 0
M  V30 2 N 3.271661 -0.939805 5.010854 0
M  V30 3 C 3.480977 -0.603796 6.447068 0
M  V30 4 C 1.855961 -0.943681 4.733196 0
M  V30 5 C 1.200397 0.382003 4.593277 0
M  V30 6 N 1.721997 1.134455 3.502578 0
M  V30 7 C 2.850588 1.876400 3.132249 0
M  V30 8 C 3.941145 2.124661 3.934369 0
M  V30 9 C 5.061805 2.852967 3.641664 0
M  V30 10 N 5.047642 3.377582 2.386466 0
M  V30 11 C 4.030314 3.188227 1.539794 0
M  V30 12 C 4.149889 3.777114 0.305171 0
M  V30 13 C 3.162494 3.659349 -0.670689 0
M  V30 14 C 2.035617 2.910913 -0.338418 0
M  V30 15 C 0.983709 2.762868 -1.319677 0
M  V30 16 C 0.095515 2.628642 -2.128051 0
M  V30 17 C -0.998544 2.449011 -3.107831 0
M  V30 18 N -1.361890 1.028045 -3.204372 0
M  V30 19 C -1.797431 0.515123 -1.960368 0
M  V30 20 O -1.748412 1.454286 -1.092458 0
M  V30 21 C -2.235888 -0.817424 -1.641407 0
M  V30 22 C -2.608107 -1.020242 -0.306059 0
M  V30 23 C -3.046039 -2.250545 0.129271 0
M  V30 24 C -3.145775 -3.336505 -0.694957 0
M  V30 25 N -2.784162 -3.123698 -1.973673 0
M  V30 26 C -2.870672 -4.238770 -2.893076 0
M  V30 27 C -4.225170 -4.243592 -3.500644 0
M  V30 28 C -5.208889 -4.942061 -2.825057 0
M  V30 29 C -6.520789 -5.056958 -3.241466 0
M  V30 30 C -6.828161 -4.408971 -4.427903 0
M  V30 31 F -8.108633 -4.473218 -4.910729 0
M  V30 32 C -5.885134 -3.683362 -5.166039 0
M  V30 33 F -6.210826 -3.059455 -6.322039 0
M  V30 34 C -4.601102 -3.624196 -4.672354 0
M  V30 35 C -2.354199 -1.936463 -2.424644 0
M  V30 36 O -2.023479 -1.766325 -3.621657 0
M  V30 37 C 1.961039 2.339229 0.912405 0
M  V30 38 C 2.929460 2.449072 1.882889 0
M  V30 39 H 4.633623 -2.541859 5.439727 0
M  V30 40 H 3.526526 -2.752082 3.958771 0
M  V30 41 H 2.865583 -2.861646 5.610318 0
M  V30 42 H 3.029186 -1.438132 7.015385 0
M  V30 43 H 4.562191 -0.599446 6.674287 0
M  V30 44 H 3.068160 0.376620 6.699183 0
M  V30 45 H 1.744654 -1.459722 3.734030 0
M  V30 46 H 1.327724 -1.612342 5.447580 0
M  V30 47 H 1.445498 0.958919 5.558443 0
M  V30 48 H 0.106347 0.286025 4.652446 0
M  V30 49 H 0.960968 1.041297 2.815980 0
M  V30 50 H 3.972205 1.731838 4.939003 0
M  V30 51 H 5.888614 3.013092 4.315261 0
M  V30 52 H 5.008688 4.351119 0.042610 0
M  V30 53 H 3.262843 4.120077 -1.627722 0
M  V30 54 H -0.584292 2.745425 -4.092548 0
M  V30 55 H -1.859378 3.073010 -2.806992 0
M  V30 56 H -1.345454 0.377281 -4.017145 0
M  V30 57 H -2.561408 -0.212403 0.422918 0
M  V30 58 H -3.322827 -2.362548 1.167206 0
M  V30 59 H -3.495649 -4.270019 -0.289730 0
M  V30 60 H -2.075457 -4.071226 -3.680090 0
M  V30 61 H -2.674853 -5.201083 -2.358382 0
M  V30 62 H -4.989852 -5.463378 -1.884450 0
M  V30 63 H -7.269913 -5.604827 -2.701987 0
M  V30 64 H -3.840664 -3.084144 -5.197149 0
M  V30 65 H 1.072327 1.788515 1.079275 0
M  V30 END ATOM
M  V30 BEGIN BOND
M  V30 1 1 1 2
M  V30 2 1 2 3
M  V30 3 1 2 4
M  V30 4 1 4 5
M  V30 5 1 5 6
M  V30 6 1 6 7
M  V30 7 2 7 8
M  V30 8 1 8 9
M  V30 9 2 9 10
M  V30 10 1 10 11
M  V30 11 2 11 12
M  V30 12 1 12 13
M  V30 13 2 13 14
M  V30 14 1 14 15
M  V30 15 3 15 16
M  V30 16 1 16 17
M  V30 17 1 17 18
M  V30 18 1 18 19
M  V30 19 2 19 20
M  V30 20 1 19 21
M  V30 21 2 21 22
M  V30 22 1 22 23
M  V30 23 2 23 24
M  V30 24 1 24 25
M  V30 25 1 25 26
M  V30 26 1 26 27
M  V30 27 2 27 28
M  V30 28 1 28 29
M  V30 29 2 29 30
M  V30 30 1 30 31
M  V30 31 1 30 32
M  V30 32 1 32 33
M  V30 33 2 32 34
M  V30 34 1 25 35
M  V30 35 2 35 36
M  V30 36 1 14 37
M  V30 37 2 37 38
M  V30 38 1 38 7
M  V30 39 1 38 11
M  V30 40 1 35 21
M  V30 41 1 34 27
M  V30 42 1 1 39
M  V30 43 1 1 40
M  V30 44 1 1 41
M  V30 45 1 3 42
M  V30 46 1 3 43
M  V30 47 1 3 44
M  V30 48 1 4 45
M  V30 49 1 4 46
M  V30 50 1 5 47
M  V30 51 1 5 48
M  V30 52 1 6 49
M  V30 53 1 8 50
M  V30 54 1 9 51
M  V30 55 1 12 52
M  V30 56 1 13 53
M  V30 57 1 17 54
M  V30 58 1 17 55
M  V30 59 1 18 56
M  V30 60 1 22 57
M  V30 61 1 23 58
M  V30 62 1 24 59
M  V30 63 1 26 60
M  V30 64 1 26 61
M  V30 65 1 28 62
M  V30 66 1 29 63
M  V30 67 1 34 64
M  V30 68 1 37 65
M  V30 END BOND
M  V30 END CTAB
M  END
>  <Dataset>  (739) 
ChEMBL_Kinases

>  <Ligand_Instance>  (739) 
nan

>  <PDB_ID>  (739) 
nan

>  <Standardized_SMILES>  (739) 
CN(C)CCNc1ccnc2ccc(C#CCNC(=O)c3cccn(Cc4ccc(F)c(F)c4)c3=O)cc12

>  <Name>  (739) 
nan

>  <Pocket>  (739) 
nan

>  <ATP_Site>  (739) 
nan

>  <Peripheral>  (739) 
nan

>  <Num_H_Atoms_ProtBoundConf>  (739) 
nan

>  <Num_Resolved_Atoms>  (739) 
nan

>  <Num_Not_Resolved_Atoms>  (739) 
nan

$$$$
CHEMBL3689286
     RDKit          3D

  0  0  0  0  0  0  0  0  0  0999 V3000
M  V30 BEGIN CTAB
M  V30 COUNTS 64 67 0 0 0
M  V30 BEGIN ATOM
M  V30 1 C 2.659559 -2.174265 6.221775 0
M  V30 2 N 2.435634 -1.852524 4.847940 0
M  V30 3 C 1.009730 -1.705751 4.672193 0
M  V30 4 C 3.183835 -2.510993 3.848674 0
M  V30 5 C 2.962161 -1.786122 2.491849 0
M  V30 6 N 3.159903 -0.403134 2.786494 0
M  V30 7 C 3.342488 0.840691 3.056299 0
M  V30 8 C 4.051458 1.226748 4.363388 0
M  V30 9 C 4.243532 2.525092 4.907369 0
M  V30 10 N 3.691184 3.372809 4.073216 0
M  V30 11 C 3.063909 3.449534 2.981060 0
M  V30 12 C 2.577396 4.465481 2.255447 0
M  V30 13 C 1.977291 4.194182 1.106584 0
M  V30 14 C 1.809600 2.824708 0.547418 0
M  V30 15 C 1.235031 2.620216 -0.653969 0
M  V30 16 C 0.713009 2.429492 -1.699410 0
M  V30 17 C 0.070116 2.186529 -2.977171 0
M  V30 18 N -0.263517 0.831838 -3.290271 0
M  V30 19 C -1.079494 0.326014 -2.192240 0
M  V30 20 O -1.055618 1.328496 -1.378482 0
M  V30 21 C -1.770698 -0.924125 -1.957769 0
M  V30 22 C -2.338635 -0.980859 -0.708633 0
M  V30 23 N -3.047775 -2.088182 -0.215469 0
M  V30 24 C -3.023095 -3.051113 -1.253537 0
M  V30 25 N -2.504331 -2.957023 -2.362937 0
M  V30 26 C -2.851070 -4.039640 -3.330674 0
M  V30 27 C -4.276484 -3.607975 -3.679119 0
M  V30 28 C -5.309357 -4.293385 -3.689285 0
M  V30 29 C -6.735858 -4.116749 -3.885138 0
M  V30 30 C -6.922654 -2.717846 -4.138881 0
M  V30 31 F -8.117546 -2.157860 -4.355229 0
M  V30 32 C -5.800765 -1.770441 -4.162101 0
M  V30 33 F -6.119724 -0.478045 -4.400373 0
M  V30 34 C -4.517159 -2.251958 -3.935559 0
M  V30 35 C -1.796110 -1.923491 -2.922331 0
M  V30 36 O -1.265046 -1.836983 -4.038160 0
M  V30 37 C 2.415049 2.049262 1.548792 0
M  V30 38 C 3.104127 2.180717 2.854085 0
M  V30 39 H 2.213860 -1.313216 6.803240 0
M  V30 40 H 3.735802 -2.286797 6.515611 0
M  V30 41 H 2.030203 -3.024142 6.500802 0
M  V30 42 H 0.473915 -2.269111 5.517476 0
M  V30 43 H 0.639602 -0.650555 4.899981 0
M  V30 44 H 0.624785 -2.122406 3.744537 0
M  V30 45 H 4.220357 -2.666597 4.067462 0
M  V30 46 H 2.665829 -3.565534 3.720887 0
M  V30 47 H 3.681830 -2.177144 1.719286 0
M  V30 48 H 1.930809 -2.043568 2.230804 0
M  V30 49 H 2.426271 -0.188251 2.122590 0
M  V30 50 H 4.513654 0.446198 5.032740 0
M  V30 51 H 4.744582 2.678687 5.833295 0
M  V30 52 H 2.730943 5.413426 2.704967 0
M  V30 53 H 1.575032 5.022242 0.490546 0
M  V30 54 H -0.924440 2.741960 -2.984311 0
M  V30 55 H 0.692758 2.681335 -3.785578 0
M  V30 56 H -0.124997 0.099979 -4.010447 0
M  V30 57 H -2.254436 -0.160578 -0.022267 0
M  V30 58 H -3.588636 -3.933451 -0.865495 0
M  V30 59 H -2.970264 -4.963474 -2.786932 0
M  V30 60 H -2.214985 -4.017044 -4.199474 0
M  V30 61 H -5.313335 -5.400579 -3.527713 0
M  V30 62 H -7.585119 -4.754064 -3.874619 0
M  V30 63 H -3.845267 -1.429781 -4.004124 0
M  V30 64 H 2.221636 1.073741 0.954603 0
M  V30 END ATOM
M  V30 BEGIN BOND
M  V30 1 1 1 2
M  V30 2 1 2 3
M  V30 3 1 2 4
M  V30 4 1 4 5
M  V30 5 1 5 6
M  V30 6 1 6 7
M  V30 7 2 7 8
M  V30 8 1 8 9
M  V30 9 2 9 10
M  V30 10 1 10 11
M  V30 11 2 11 12
M  V30 12 1 12 13
M  V30 13 2 13 14
M  V30 14 1 14 15
M  V30 15 3 15 16
M  V30 16 1 16 17
M  V30 17 1 17 18
M  V30 18 1 18 19
M  V30 19 2 19 20
M  V30 20 1 19 21
M  V30 21 2 21 22
M  V30 22 1 22 23
M  V30 23 2 23 24
M  V30 24 1 24 25
M  V30 25 1 25 26
M  V30 26 1 26 27
M  V30 27 2 27 28
M  V30 28 1 28 29
M  V30 29 2 29 30
M  V30 30 1 30 31
M  V30 31 1 30 32
M  V30 32 1 32 33
M  V30 33 2 32 34
M  V30 34 1 25 35
M  V30 35 2 35 36
M  V30 36 1 14 37
M  V30 37 2 37 38
M  V30 38 1 38 7
M  V30 39 1 38 11
M  V30 40 1 35 21
M  V30 41 1 34 27
M  V30 42 1 1 39
M  V30 43 1 1 40
M  V30 44 1 1 41
M  V30 45 1 3 42
M  V30 46 1 3 43
M  V30 47 1 3 44
M  V30 48 1 4 45
M  V30 49 1 4 46
M  V30 50 1 5 47
M  V30 51 1 5 48
M  V30 52 1 6 49
M  V30 53 1 8 50
M  V30 54 1 9 51
M  V30 55 1 12 52
M  V30 56 1 13 53
M  V30 57 1 17 54
M  V30 58 1 17 55
M  V30 59 1 18 56
M  V30 60 1 22 57
M  V30 61 1 24 58
M  V30 62 1 26 59
M  V30 63 1 26 60
M  V30 64 1 28 61
M  V30 65 1 29 62
M  V30 66 1 34 63
M  V30 67 1 37 64
M  V30 END BOND
M  V30 END CTAB
M  END
>  <Dataset>  (740) 
ChEMBL_Kinases

>  <Ligand_Instance>  (740) 
nan

>  <PDB_ID>  (740) 
nan

>  <Standardized_SMILES>  (740) 
CN(C)CCNc1ccnc2ccc(C#CCNC(=O)c3cncn(Cc4ccc(F)c(F)c4)c3=O)cc12

>  <Name>  (740) 
nan

>  <Pocket>  (740) 
nan

>  <ATP_Site>  (740) 
nan

>  <Peripheral>  (740) 
nan

>  <Num_H_Atoms_ProtBoundConf>  (740) 
nan

>  <Num_Resolved_Atoms>  (740) 
nan

>  <Num_Not_Resolved_Atoms>  (740) 
nan

$$$$
CHEMBL3689285
     RDKit          3D

  0  0  0  0  0  0  0  0  0  0999 V3000
M  V30 BEGIN CTAB
M  V30 COUNTS 58 62 0 0 0
M  V30 BEGIN ATOM
M  V30 1 O 1.142326 -1.356985 3.345343 0
M  V30 2 C 1.155190 -2.364411 2.557998 0
M  V30 3 N 2.483541 -2.708903 2.278291 0
M  V30 4 C 3.500580 -1.890451 2.909909 0
M  V30 5 C 3.278355 -0.517475 2.433191 0
M  V30 6 C 3.107809 0.607281 2.024815 0
M  V30 7 C 2.909085 1.935764 1.517642 0
M  V30 8 C 4.039197 2.737440 1.352451 0
M  V30 9 C 3.868673 4.016697 0.866309 0
M  V30 10 C 2.601790 4.462429 0.561074 0
M  V30 11 N 2.391861 5.689691 0.077764 0
M  V30 12 C 1.204976 6.207832 -0.255577 0
M  V30 13 C 0.077736 5.446651 -0.103271 0
M  V30 14 C 0.175705 4.140322 0.397036 0
M  V30 15 N -0.971960 3.331579 0.557965 0
M  V30 16 C -1.482175 2.076094 1.010110 0
M  V30 17 C -2.936184 1.683425 0.719487 0
M  V30 18 C -1.821719 1.038496 0.013843 0
M  V30 19 C 1.451616 3.716854 0.704235 0
M  V30 20 C 1.677707 2.447733 1.192173 0
M  V30 21 C -0.055005 -2.991369 2.077665 0
M  V30 22 C -1.251450 -2.422008 2.531965 0
M  V30 23 C -2.475955 -2.923327 2.149868 0
M  V30 24 C -2.606280 -4.004677 1.305929 0
M  V30 25 N -1.446498 -4.527522 0.888257 0
M  V30 26 C -1.485771 -5.669673 -0.004348 0
M  V30 27 C -1.511049 -5.285946 -1.420752 0
M  V30 28 C -2.778995 -5.100145 -1.981979 0
M  V30 29 C -2.903436 -4.736009 -3.316731 0
M  V30 30 C -1.804950 -4.554462 -4.097635 0
M  V30 31 F -1.870857 -4.197081 -5.413163 0
M  V30 32 C -0.555240 -4.728543 -3.577942 0
M  V30 33 F 0.569768 -4.566772 -4.287928 0
M  V30 34 C -0.450937 -5.086478 -2.264175 0
M  V30 35 C -0.241023 -4.067148 1.238523 0
M  V30 36 O 0.820793 -4.583516 0.826724 0
M  V30 37 H 2.664135 -3.515134 1.646794 0
M  V30 38 H 3.419926 -1.956813 4.013996 0
M  V30 39 H 4.490326 -2.201131 2.526803 0
M  V30 40 H 5.018536 2.393709 1.588326 0
M  V30 41 H 4.690704 4.694805 0.711294 0
M  V30 42 H 1.059692 7.204035 -0.645326 0
M  V30 43 H -0.898601 5.877335 -0.379064 0
M  V30 44 H -1.839540 3.836731 0.208675 0
M  V30 45 H -1.257003 1.778565 2.087728 0
M  V30 46 H -3.519954 1.141345 1.459858 0
M  V30 47 H -3.474268 2.518466 0.216870 0
M  V30 48 H -1.537609 -0.015543 0.231577 0
M  V30 49 H -1.680091 1.278147 -1.055883 0
M  V30 50 H 0.887308 1.764949 1.339555 0
M  V30 51 H -1.237931 -1.555868 3.208645 0
M  V30 52 H -3.364023 -2.441599 2.533284 0
M  V30 53 H -3.529358 -4.424317 0.985315 0
M  V30 54 H -2.353550 -6.323186 0.214493 0
M  V30 55 H -0.556044 -6.288056 0.145018 0
M  V30 56 H -3.676683 -5.233487 -1.399305 0
M  V30 57 H -3.891203 -4.595306 -3.738912 0
M  V30 58 H 0.522619 -5.230884 -1.827543 0
M  V30 END ATOM
M  V30 BEGIN BOND
M  V30 1 2 1 2
M  V30 2 1 2 3
M  V30 3 1 3 4
M  V30 4 1 4 5
M  V30 5 3 5 6
M  V30 6 1 6 7
M  V30 7 2 7 8
M  V30 8 1 8 9
M  V30 9 2 9 10
M  V30 10 1 10 11
M  V30 11 2 11 12
M  V30 12 1 12 13
M  V30 13 2 13 14
M  V30 14 1 14 15
M  V30 15 1 15 16
M  V30 16 1 16 17
M  V30 17 1 17 18
M  V30 18 1 14 19
M  V30 19 2 19 20
M  V30 20 1 2 21
M  V30 21 2 21 22
M  V30 22 1 22 23
M  V30 23 2 23 24
M  V30 24 1 24 25
M  V30 25 1 25 26
M  V30 26 1 26 27
M  V30 27 2 27 28
M  V30 28 1 28 29
M  V30 29 2 29 30
M  V30 30 1 30 31
M  V30 31 1 30 32
M  V30 32 1 32 33
M  V30 33 2 32 34
M  V30 34 1 25 35
M  V30 35 2 35 36
M  V30 36 1 20 7
M  V30 37 1 35 21
M  V30 38 1 19 10
M  V30 39 1 34 27
M  V30 40 1 18 16
M  V30 41 1 3 37
M  V30 42 1 4 38
M  V30 43 1 4 39
M  V30 44 1 8 40
M  V30 45 1 9 41
M  V30 46 1 12 42
M  V30 47 1 13 43
M  V30 48 1 15 44
M  V30 49 1 16 45
M  V30 50 1 17 46
M  V30 51 1 17 47
M  V30 52 1 18 48
M  V30 53 1 18 49
M  V30 54 1 20 50
M  V30 55 1 22 51
M  V30 56 1 23 52
M  V30 57 1 24 53
M  V30 58 1 26 54
M  V30 59 1 26 55
M  V30 60 1 28 56
M  V30 61 1 29 57
M  V30 62 1 34 58
M  V30 END BOND
M  V30 END CTAB
M  END
>  <Dataset>  (741) 
ChEMBL_Kinases

>  <Ligand_Instance>  (741) 
nan

>  <PDB_ID>  (741) 
nan

>  <Standardized_SMILES>  (741) 
O=C(NCC#Cc1ccc2nccc(NC3CC3)c2c1)c1cccn(Cc2ccc(F)c(F)c2)c1=O

>  <Name>  (741) 
nan

>  <Pocket>  (741) 
nan

>  <ATP_Site>  (741) 
nan

>  <Peripheral>  (741) 
nan

>  <Num_H_Atoms_ProtBoundConf>  (741) 
nan

>  <Num_Resolved_Atoms>  (741) 
nan

>  <Num_Not_Resolved_Atoms>  (741) 
nan

$$$$
CHEMBL3689284
     RDKit          3D

  0  0  0  0  0  0  0  0  0  0999 V3000
M  V30 BEGIN CTAB
M  V30 COUNTS 57 61 0 0 0
M  V30 BEGIN ATOM
M  V30 1 O 0.714494 -3.896909 4.124271 0
M  V30 2 C 0.544118 -3.791064 2.872451 0
M  V30 3 N 1.088332 -2.550984 2.448515 0
M  V30 4 C 1.699580 -1.684627 3.447229 0
M  V30 5 C 2.183599 -0.468014 2.752609 0
M  V30 6 C 2.561129 0.522123 2.174188 0
M  V30 7 C 2.992567 1.708178 1.478932 0
M  V30 8 C 4.347281 1.857023 1.252034 0
M  V30 9 C 4.776688 2.986104 0.587844 0
M  V30 10 C 3.849987 3.918102 0.177482 0
M  V30 11 N 4.229262 5.020351 -0.481647 0
M  V30 12 C 3.398264 5.968996 -0.924972 0
M  V30 13 C 2.050292 5.866471 -0.722330 0
M  V30 14 C 1.550914 4.747958 -0.040376 0
M  V30 15 N 0.159112 4.584302 0.193330 0
M  V30 16 C -0.873802 3.793339 0.801604 0
M  V30 17 C -2.307754 4.049811 0.474440 0
M  V30 18 C -1.631101 2.819144 -0.084896 0
M  V30 19 C 2.488363 3.825926 0.375009 0
M  V30 20 C 2.121099 2.675554 1.043195 0
M  V30 21 C -0.105121 -4.794623 2.044864 0
M  V30 22 C -0.539517 -5.918318 2.759634 0
M  V30 23 N -1.158527 -6.934423 2.137306 0
M  V30 24 C -1.400076 -6.947480 0.819222 0
M  V30 25 N -0.988826 -5.875743 0.120343 0
M  V30 26 C -1.196601 -5.781404 -1.310215 0
M  V30 27 C -2.470908 -5.148395 -1.686737 0
M  V30 28 C -2.711394 -3.828495 -1.907418 0
M  V30 29 C -3.929875 -3.299668 -2.257893 0
M  V30 30 C -4.978857 -4.178214 -2.393363 0
M  V30 31 F -6.205853 -3.704724 -2.738944 0
M  V30 32 C -4.812561 -5.541931 -2.184545 0
M  V30 33 F -5.880083 -6.365329 -2.331241 0
M  V30 34 C -3.552883 -6.012866 -1.831663 0
M  V30 35 C -0.366320 -4.836517 0.697429 0
M  V30 36 O 0.029305 -3.824535 0.078385 0
M  V30 37 H 1.033340 -2.301159 1.440432 0
M  V30 38 H 2.552987 -2.157210 3.938571 0
M  V30 39 H 0.916957 -1.445207 4.204294 0
M  V30 40 H 5.066103 1.140416 1.567170 0
M  V30 41 H 5.821773 3.123044 0.400395 0
M  V30 42 H 3.713106 6.854760 -1.456220 0
M  V30 43 H 1.370461 6.652390 -1.090409 0
M  V30 44 H -0.378890 5.375011 -0.266039 0
M  V30 45 H -0.751884 3.536823 1.905162 0
M  V30 46 H -3.060704 3.969369 1.257435 0
M  V30 47 H -2.455015 4.879060 -0.273080 0
M  V30 48 H -2.001711 1.878741 0.379776 0
M  V30 49 H -1.357716 2.758023 -1.148781 0
M  V30 50 H 1.109328 2.464124 1.251615 0
M  V30 51 H -0.409756 -6.039754 3.827889 0
M  V30 52 H -1.884754 -7.710916 0.241756 0
M  V30 53 H -1.110803 -6.788576 -1.779905 0
M  V30 54 H -0.357709 -5.192104 -1.771364 0
M  V30 55 H -1.871707 -3.163351 -1.794322 0
M  V30 56 H -4.045285 -2.220373 -2.419361 0
M  V30 57 H -3.510435 -7.085985 -1.687999 0
M  V30 END ATOM
M  V30 BEGIN BOND
M  V30 1 2 1 2
M  V30 2 1 2 3
M  V30 3 1 3 4
M  V30 4 1 4 5
M  V30 5 3 5 6
M  V30 6 1 6 7
M  V30 7 2 7 8
M  V30 8 1 8 9
M  V30 9 2 9 10
M  V30 10 1 10 11
M  V30 11 2 11 12
M  V30 12 1 12 13
M  V30 13 2 13 14
M  V30 14 1 14 15
M  V30 15 1 15 16
M  V30 16 1 16 17
M  V30 17 1 17 18
M  V30 18 1 14 19
M  V30 19 2 19 20
M  V30 20 1 2 21
M  V30 21 2 21 22
M  V30 22 1 22 23
M  V30 23 2 23 24
M  V30 24 1 24 25
M  V30 25 1 25 26
M  V30 26 1 26 27
M  V30 27 2 27 28
M  V30 28 1 28 29
M  V30 29 2 29 30
M  V30 30 1 30 31
M  V30 31 1 30 32
M  V30 32 1 32 33
M  V30 33 2 32 34
M  V30 34 1 25 35
M  V30 35 2 35 36
M  V30 36 1 20 7
M  V30 37 1 35 21
M  V30 38 1 19 10
M  V30 39 1 34 27
M  V30 40 1 18 16
M  V30 41 1 3 37
M  V30 42 1 4 38
M  V30 43 1 4 39
M  V30 44 1 8 40
M  V30 45 1 9 41
M  V30 46 1 12 42
M  V30 47 1 13 43
M  V30 48 1 15 44
M  V30 49 1 16 45
M  V30 50 1 17 46
M  V30 51 1 17 47
M  V30 52 1 18 48
M  V30 53 1 18 49
M  V30 54 1 20 50
M  V30 55 1 22 51
M  V30 56 1 24 52
M  V30 57 1 26 53
M  V30 58 1 26 54
M  V30 59 1 28 55
M  V30 60 1 29 56
M  V30 61 1 34 57
M  V30 END BOND
M  V30 END CTAB
M  END
>  <Dataset>  (742) 
ChEMBL_Kinases

>  <Ligand_Instance>  (742) 
nan

>  <PDB_ID>  (742) 
nan

>  <Standardized_SMILES>  (742) 
O=C(NCC#Cc1ccc2nccc(NC3CC3)c2c1)c1cncn(Cc2ccc(F)c(F)c2)c1=O

>  <Name>  (742) 
nan

>  <Pocket>  (742) 
nan

>  <ATP_Site>  (742) 
nan

>  <Peripheral>  (742) 
nan

>  <Num_H_Atoms_ProtBoundConf>  (742) 
nan

>  <Num_Resolved_Atoms>  (742) 
nan

>  <Num_Not_Resolved_Atoms>  (742) 
nan

$$$$
CHEMBL3689283
     RDKit          3D

  0  0  0  0  0  0  0  0  0  0999 V3000
M  V30 BEGIN CTAB
M  V30 COUNTS 65 69 0 0 0
M  V30 BEGIN ATOM
M  V30 1 O 4.603180 -2.675695 1.406876 0
M  V30 2 C 3.381074 -2.780581 1.053285 0
M  V30 3 N 2.737919 -1.542537 1.256533 0
M  V30 4 C 3.731582 -0.609023 1.799348 0
M  V30 5 C 3.043929 0.671869 2.002106 0
M  V30 6 C 2.468631 1.739181 2.192345 0
M  V30 7 C 1.787445 2.979572 2.437369 0
M  V30 8 C 2.497354 4.063160 2.911100 0
M  V30 9 C 1.837517 5.271774 3.151008 0
M  V30 10 C 0.468872 5.319235 2.893476 0
M  V30 11 N -0.090693 6.531367 3.155342 0
M  V30 12 C -1.415123 6.665780 2.934363 0
M  V30 13 C -2.177673 5.618506 2.461274 0
M  V30 14 C -1.632340 4.382019 2.188939 0
M  V30 15 O -2.222024 3.243112 1.721944 0
M  V30 16 C -3.556835 3.028607 1.396274 0
M  V30 17 C -3.775870 2.738542 -0.070959 0
M  V30 18 C -3.133997 1.480365 -0.543451 0
M  V30 19 N -3.227253 0.397176 0.380942 0
M  V30 20 C -4.143260 0.570481 1.458570 0
M  V30 21 C -4.061336 1.865892 2.190486 0
M  V30 22 C -0.257966 4.243645 2.418742 0
M  V30 23 C 0.433054 3.050887 2.190045 0
M  V30 24 C 2.826705 -4.021090 0.533918 0
M  V30 25 C 3.724037 -5.083182 0.453750 0
M  V30 26 C 3.341195 -6.318833 -0.016995 0
M  V30 27 C 2.052339 -6.574685 -0.434363 0
M  V30 28 N 1.199256 -5.529187 -0.347467 0
M  V30 29 C -0.163085 -5.738239 -0.771443 0
M  V30 30 C -0.343064 -5.437094 -2.221279 0
M  V30 31 C -0.686969 -4.248201 -2.827039 0
M  V30 32 C -0.804229 -4.165754 -4.185447 0
M  V30 33 C -0.582319 -5.272512 -5.009074 0
M  V30 34 F -0.697735 -5.193654 -6.356750 0
M  V30 35 C -0.240856 -6.451494 -4.401691 0
M  V30 36 F -0.028385 -7.525735 -5.232516 0
M  V30 37 C -0.118594 -6.550479 -3.030338 0
M  V30 38 C 1.553752 -4.318603 0.108169 0
M  V30 39 O 0.746595 -3.366433 0.179117 0
M  V30 40 H 1.730050 -1.482853 1.008938 0
M  V30 41 H 4.176754 -0.976165 2.747541 0
M  V30 42 H 4.514288 -0.483629 1.032524 0
M  V30 43 H 3.570788 4.033700 3.115490 0
M  V30 44 H 2.393462 6.119155 3.521431 0
M  V30 45 H -1.949776 7.593297 3.113276 0
M  V30 46 H -3.238024 5.673475 2.268653 0
M  V30 47 H -4.124510 3.967638 1.597740 0
M  V30 48 H -4.880068 2.603727 -0.194109 0
M  V30 49 H -3.490444 3.572153 -0.740124 0
M  V30 50 H -2.083038 1.616532 -0.880298 0
M  V30 51 H -3.684597 1.179077 -1.482330 0
M  V30 52 H -2.371647 -0.130045 0.570235 0
M  V30 53 H -5.182433 0.382169 1.095769 0
M  V30 54 H -3.914962 -0.248408 2.200608 0
M  V30 55 H -5.105221 2.119230 2.538416 0
M  V30 56 H -3.477027 1.751840 3.142906 0
M  V30 57 H -0.110552 2.203499 1.821709 0
M  V30 58 H 4.773003 -4.967651 0.765791 0
M  V30 59 H 4.076301 -7.110634 -0.058941 0
M  V30 60 H 1.778149 -7.553647 -0.799818 0
M  V30 61 H -0.832926 -5.003558 -0.242459 0
M  V30 62 H -0.562759 -6.725980 -0.528738 0
M  V30 63 H -0.840475 -3.445766 -2.124449 0
M  V30 64 H -1.077066 -3.211752 -4.622932 0
M  V30 65 H 0.156836 -7.541371 -2.688553 0
M  V30 END ATOM
M  V30 BEGIN BOND
M  V30 1 2 1 2
M  V30 2 1 2 3
M  V30 3 1 3 4
M  V30 4 1 4 5
M  V30 5 3 5 6
M  V30 6 1 6 7
M  V30 7 2 7 8
M  V30 8 1 8 9
M  V30 9 2 9 10
M  V30 10 1 10 11
M  V30 11 2 11 12
M  V30 12 1 12 13
M  V30 13 2 13 14
M  V30 14 1 14 15
M  V30 15 1 15 16
M  V30 16 1 16 17
M  V30 17 1 17 18
M  V30 18 1 18 19
M  V30 19 1 19 20
M  V30 20 1 20 21
M  V30 21 1 14 22
M  V30 22 2 22 23
M  V30 23 1 2 24
M  V30 24 2 24 25
M  V30 25 1 25 26
M  V30 26 2 26 27
M  V30 27 1 27 28
M  V30 28 1 28 29
M  V30 29 1 29 30
M  V30 30 2 30 31
M  V30 31 1 31 32
M  V30 32 2 32 33
M  V30 33 1 33 34
M  V30 34 1 33 35
M  V30 35 1 35 36
M  V30 36 2 35 37
M  V30 37 1 28 38
M  V30 38 2 38 39
M  V30 39 1 23 7
M  V30 40 1 38 24
M  V30 41 1 22 10
M  V30 42 1 37 30
M  V30 43 1 21 16
M  V30 44 1 3 40
M  V30 45 1 4 41
M  V30 46 1 4 42
M  V30 47 1 8 43
M  V30 48 1 9 44
M  V30 49 1 12 45
M  V30 50 1 13 46
M  V30 51 1 16 47
M  V30 52 1 17 48
M  V30 53 1 17 49
M  V30 54 1 18 50
M  V30 55 1 18 51
M  V30 56 1 19 52
M  V30 57 1 20 53
M  V30 58 1 20 54
M  V30 59 1 21 55
M  V30 60 1 21 56
M  V30 61 1 23 57
M  V30 62 1 25 58
M  V30 63 1 26 59
M  V30 64 1 27 60
M  V30 65 1 29 61
M  V30 66 1 29 62
M  V30 67 1 31 63
M  V30 68 1 32 64
M  V30 69 1 37 65
M  V30 END BOND
M  V30 END CTAB
M  END
>  <Dataset>  (743) 
ChEMBL_Kinases

>  <Ligand_Instance>  (743) 
nan

>  <PDB_ID>  (743) 
nan

>  <Standardized_SMILES>  (743) 
O=C(NCC#Cc1ccc2nccc(OC3CCNCC3)c2c1)c1cccn(Cc2ccc(F)c(F)c2)c1=O

>  <Name>  (743) 
nan

>  <Pocket>  (743) 
nan

>  <ATP_Site>  (743) 
nan

>  <Peripheral>  (743) 
nan

>  <Num_H_Atoms_ProtBoundConf>  (743) 
nan

>  <Num_Resolved_Atoms>  (743) 
nan

>  <Num_Not_Resolved_Atoms>  (743) 
nan

$$$$
CHEMBL3689282
     RDKit          3D

  0  0  0  0  0  0  0  0  0  0999 V3000
M  V30 BEGIN CTAB
M  V30 COUNTS 64 68 0 0 0
M  V30 BEGIN ATOM
M  V30 1 O 4.093511 -3.278779 3.319487 0
M  V30 2 C 3.175166 -3.130510 2.455287 0
M  V30 3 N 2.506616 -1.908863 2.743450 0
M  V30 4 C 2.873246 -1.049854 3.849252 0
M  V30 5 C 2.006711 0.152217 3.867240 0
M  V30 6 C 1.299625 1.149559 3.862714 0
M  V30 7 C 0.478095 2.313501 3.832622 0
M  V30 8 C 0.672236 3.403082 4.623695 0
M  V30 9 C -0.188485 4.464864 4.486986 0
M  V30 10 C -1.217961 4.447418 3.586989 0
M  V30 11 N -2.045727 5.499291 3.467984 0
M  V30 12 C -3.074333 5.559113 2.608769 0
M  V30 13 C -3.284184 4.457593 1.798112 0
M  V30 14 C -2.498432 3.340276 1.843273 0
M  V30 15 O -2.578677 2.190253 1.118137 0
M  V30 16 C -3.513509 1.876767 0.109858 0
M  V30 17 C -4.355936 0.737097 0.652460 0
M  V30 18 C -3.774162 -0.549704 0.165473 0
M  V30 19 N -3.990577 -0.644421 -1.257714 0
M  V30 20 C -3.391018 0.444565 -1.967464 0
M  V30 21 C -2.758749 1.496048 -1.119232 0
M  V30 22 C -1.461929 3.357518 2.752863 0
M  V30 23 C -0.568540 2.310750 2.926788 0
M  V30 24 C 2.880530 -4.054660 1.374476 0
M  V30 25 C 3.749252 -5.153146 1.342471 0
M  V30 26 N 3.639028 -6.101994 0.399390 0
M  V30 27 C 2.694227 -6.044908 -0.555891 0
M  V30 28 N 1.871963 -5.003067 -0.523486 0
M  V30 29 C 0.850350 -4.937339 -1.547028 0
M  V30 30 C 1.323390 -4.194302 -2.749432 0
M  V30 31 C 1.122061 -2.821746 -2.885428 0
M  V30 32 C 1.592812 -2.229368 -4.025373 0
M  V30 33 C 2.257131 -2.899836 -5.055986 0
M  V30 34 F 2.703132 -2.266484 -6.165223 0
M  V30 35 C 2.413646 -4.256119 -4.838718 0
M  V30 36 F 3.067259 -4.917609 -5.850509 0
M  V30 37 C 1.967917 -4.926949 -3.717939 0
M  V30 38 C 1.922003 -4.019503 0.386374 0
M  V30 39 O 1.164377 -3.026094 0.447357 0
M  V30 40 H 1.714520 -1.616762 2.130723 0
M  V30 41 H 2.869207 -1.557923 4.833269 0
M  V30 42 H 3.898214 -0.683291 3.663757 0
M  V30 43 H 1.492565 3.372668 5.315106 0
M  V30 44 H -0.062009 5.349443 5.102996 0
M  V30 45 H -3.729785 6.404686 2.520706 0
M  V30 46 H -4.093531 4.435540 1.082614 0
M  V30 47 H -4.178661 2.765448 -0.061082 0
M  V30 48 H -4.433628 0.752848 1.760565 0
M  V30 49 H -5.389559 0.869686 0.259814 0
M  V30 50 H -2.681999 -0.542975 0.357864 0
M  V30 51 H -4.279019 -1.383988 0.677196 0
M  V30 52 H -3.632172 -1.579206 -1.561128 0
M  V30 53 H -4.118216 0.851381 -2.718179 0
M  V30 54 H -2.558464 0.003236 -2.592039 0
M  V30 55 H -1.722083 1.177659 -0.840327 0
M  V30 56 H -2.689497 2.418947 -1.756620 0
M  V30 57 H -0.732881 1.437930 2.285051 0
M  V30 58 H 4.564546 -5.326149 2.058707 0
M  V30 59 H 2.618060 -6.814776 -1.307973 0
M  V30 60 H 0.010969 -4.336544 -1.137320 0
M  V30 61 H 0.533325 -5.968782 -1.805531 0
M  V30 62 H 0.616333 -2.254455 -2.124861 0
M  V30 63 H 1.452865 -1.153080 -4.169129 0
M  V30 64 H 2.119300 -5.991579 -3.602550 0
M  V30 END ATOM
M  V30 BEGIN BOND
M  V30 1 2 1 2
M  V30 2 1 2 3
M  V30 3 1 3 4
M  V30 4 1 4 5
M  V30 5 3 5 6
M  V30 6 1 6 7
M  V30 7 2 7 8
M  V30 8 1 8 9
M  V30 9 2 9 10
M  V30 10 1 10 11
M  V30 11 2 11 12
M  V30 12 1 12 13
M  V30 13 2 13 14
M  V30 14 1 14 15
M  V30 15 1 15 16
M  V30 16 1 16 17
M  V30 17 1 17 18
M  V30 18 1 18 19
M  V30 19 1 19 20
M  V30 20 1 20 21
M  V30 21 1 14 22
M  V30 22 2 22 23
M  V30 23 1 2 24
M  V30 24 2 24 25
M  V30 25 1 25 26
M  V30 26 2 26 27
M  V30 27 1 27 28
M  V30 28 1 28 29
M  V30 29 1 29 30
M  V30 30 2 30 31
M  V30 31 1 31 32
M  V30 32 2 32 33
M  V30 33 1 33 34
M  V30 34 1 33 35
M  V30 35 1 35 36
M  V30 36 2 35 37
M  V30 37 1 28 38
M  V30 38 2 38 39
M  V30 39 1 23 7
M  V30 40 1 38 24
M  V30 41 1 22 10
M  V30 42 1 37 30
M  V30 43 1 21 16
M  V30 44 1 3 40
M  V30 45 1 4 41
M  V30 46 1 4 42
M  V30 47 1 8 43
M  V30 48 1 9 44
M  V30 49 1 12 45
M  V30 50 1 13 46
M  V30 51 1 16 47
M  V30 52 1 17 48
M  V30 53 1 17 49
M  V30 54 1 18 50
M  V30 55 1 18 51
M  V30 56 1 19 52
M  V30 57 1 20 53
M  V30 58 1 20 54
M  V30 59 1 21 55
M  V30 60 1 21 56
M  V30 61 1 23 57
M  V30 62 1 25 58
M  V30 63 1 27 59
M  V30 64 1 29 60
M  V30 65 1 29 61
M  V30 66 1 31 62
M  V30 67 1 32 63
M  V30 68 1 37 64
M  V30 END BOND
M  V30 END CTAB
M  END
>  <Dataset>  (744) 
ChEMBL_Kinases

>  <Ligand_Instance>  (744) 
nan

>  <PDB_ID>  (744) 
nan

>  <Standardized_SMILES>  (744) 
O=C(NCC#Cc1ccc2nccc(OC3CCNCC3)c2c1)c1cncn(Cc2ccc(F)c(F)c2)c1=O

>  <Name>  (744) 
nan

>  <Pocket>  (744) 
nan

>  <ATP_Site>  (744) 
nan

>  <Peripheral>  (744) 
nan

>  <Num_H_Atoms_ProtBoundConf>  (744) 
nan

>  <Num_Resolved_Atoms>  (744) 
nan

>  <Num_Not_Resolved_Atoms>  (744) 
nan

$$$$
CHEMBL3689281
     RDKit          3D

  0  0  0  0  0  0  0  0  0  0999 V3000
M  V30 BEGIN CTAB
M  V30 COUNTS 68 72 0 0 0
M  V30 BEGIN ATOM
M  V30 1 C 4.220602 -3.737479 4.421320 0
M  V30 2 N 4.683444 -2.732074 3.520855 0
M  V30 3 C 4.366668 -2.925853 2.146076 0
M  V30 4 C 3.120975 -2.247215 1.671943 0
M  V30 5 C 3.035693 -0.803408 2.176875 0
M  V30 6 O 3.898682 0.036140 1.662296 0
M  V30 7 C 4.324116 1.083802 1.032403 0
M  V30 8 C 5.732390 1.075391 1.009932 0
M  V30 9 C 6.464785 2.099111 0.388198 0
M  V30 10 N 5.784891 3.099154 -0.191945 0
M  V30 11 C 4.449557 3.206339 -0.229448 0
M  V30 12 C 3.735195 4.225057 -0.819734 0
M  V30 13 C 2.337035 4.226517 -0.793064 0
M  V30 14 C 1.681193 3.178098 -0.158165 0
M  V30 15 C 0.237031 3.192405 -0.137707 0
M  V30 16 C -0.969501 3.209246 -0.126981 0
M  V30 17 C -2.449478 3.230297 -0.129329 0
M  V30 18 N -2.963564 1.854911 -0.047995 0
M  V30 19 C -2.533658 1.063458 -1.138405 0
M  V30 20 O -1.803000 1.783314 -1.903966 0
M  V30 21 C -2.824432 -0.313984 -1.408511 0
M  V30 22 C -2.254934 -0.835534 -2.575788 0
M  V30 23 C -2.458838 -2.146844 -2.947395 0
M  V30 24 C -3.227553 -3.011408 -2.198607 0
M  V30 25 N -3.764086 -2.490530 -1.083385 0
M  V30 26 C -4.583540 -3.351407 -0.254105 0
M  V30 27 C -6.011080 -3.283851 -0.677773 0
M  V30 28 C -6.982417 -2.431874 -0.219906 0
M  V30 29 C -8.262261 -2.516159 -0.735037 0
M  V30 30 C -8.631231 -3.424893 -1.703102 0
M  V30 31 F -9.873756 -3.489086 -2.186929 0
M  V30 32 C -7.664067 -4.307959 -2.191142 0
M  V30 33 F -7.966576 -5.217200 -3.137004 0
M  V30 34 C -6.392420 -4.201287 -1.658101 0
M  V30 35 C -3.570010 -1.213709 -0.714450 0
M  V30 36 O -4.094867 -0.786624 0.333247 0
M  V30 37 C 2.413928 2.173198 0.423539 0
M  V30 38 C 3.785220 2.177703 0.393867 0
M  V30 39 C 3.186243 -0.832332 3.703665 0
M  V30 40 C 4.558284 -1.379362 3.995338 0
M  V30 41 H 5.103958 -4.363387 4.716732 0
M  V30 42 H 3.561197 -4.425018 3.835499 0
M  V30 43 H 3.713310 -3.371500 5.322962 0
M  V30 44 H 4.240807 -4.021737 1.990857 0
M  V30 45 H 5.204324 -2.615468 1.484748 0
M  V30 46 H 3.141554 -2.220068 0.563883 0
M  V30 47 H 2.236344 -2.802060 1.983414 0
M  V30 48 H 1.949766 -0.530166 2.032561 0
M  V30 49 H 6.423021 0.349688 1.427048 0
M  V30 50 H 7.537630 2.174179 0.322743 0
M  V30 51 H 4.306116 5.016358 -1.300477 0
M  V30 52 H 1.791815 5.035626 -1.262430 0
M  V30 53 H -2.756808 3.713059 -1.063322 0
M  V30 54 H -2.822798 3.812606 0.751218 0
M  V30 55 H -3.570443 1.411404 0.669398 0
M  V30 56 H -1.627855 -0.208663 -3.227926 0
M  V30 57 H -1.991332 -2.494012 -3.863000 0
M  V30 58 H -3.355992 -4.029529 -2.534172 0
M  V30 59 H -4.525631 -3.023677 0.819465 0
M  V30 60 H -4.232514 -4.405057 -0.318897 0
M  V30 61 H -6.664516 -1.737386 0.532599 0
M  V30 62 H -8.984923 -1.815756 -0.332879 0
M  V30 63 H -5.677167 -4.904343 -2.065378 0
M  V30 64 H 1.834404 1.421263 0.881060 0
M  V30 65 H 2.389325 -1.470322 4.087962 0
M  V30 66 H 3.142103 0.230354 4.022820 0
M  V30 67 H 4.768195 -1.374739 5.072582 0
M  V30 68 H 5.314223 -0.766581 3.474117 0
M  V30 END ATOM
M  V30 BEGIN BOND
M  V30 1 1 1 2
M  V30 2 1 2 3
M  V30 3 1 3 4
M  V30 4 1 4 5
M  V30 5 1 5 6
M  V30 6 1 6 7
M  V30 7 2 7 8
M  V30 8 1 8 9
M  V30 9 2 9 10
M  V30 10 1 10 11
M  V30 11 2 11 12
M  V30 12 1 12 13
M  V30 13 2 13 14
M  V30 14 1 14 15
M  V30 15 3 15 16
M  V30 16 1 16 17
M  V30 17 1 17 18
M  V30 18 1 18 19
M  V30 19 2 19 20
M  V30 20 1 19 21
M  V30 21 2 21 22
M  V30 22 1 22 23
M  V30 23 2 23 24
M  V30 24 1 24 25
M  V30 25 1 25 26
M  V30 26 1 26 27
M  V30 27 2 27 28
M  V30 28 1 28 29
M  V30 29 2 29 30
M  V30 30 1 30 31
M  V30 31 1 30 32
M  V30 32 1 32 33
M  V30 33 2 32 34
M  V30 34 1 25 35
M  V30 35 2 35 36
M  V30 36 1 14 37
M  V30 37 2 37 38
M  V30 38 1 5 39
M  V30 39 1 39 40
M  V30 40 1 40 2
M  V30 41 1 38 7
M  V30 42 1 38 11
M  V30 43 1 35 21
M  V30 44 1 34 27
M  V30 45 1 1 41
M  V30 46 1 1 42
M  V30 47 1 1 43
M  V30 48 1 3 44
M  V30 49 1 3 45
M  V30 50 1 4 46
M  V30 51 1 4 47
M  V30 52 1 5 48
M  V30 53 1 8 49
M  V30 54 1 9 50
M  V30 55 1 12 51
M  V30 56 1 13 52
M  V30 57 1 17 53
M  V30 58 1 17 54
M  V30 59 1 18 55
M  V30 60 1 22 56
M  V30 61 1 23 57
M  V30 62 1 24 58
M  V30 63 1 26 59
M  V30 64 1 26 60
M  V30 65 1 28 61
M  V30 66 1 29 62
M  V30 67 1 34 63
M  V30 68 1 37 64
M  V30 69 1 39 65
M  V30 70 1 39 66
M  V30 71 1 40 67
M  V30 72 1 40 68
M  V30 END BOND
M  V30 END CTAB
M  END
>  <Dataset>  (745) 
ChEMBL_Kinases

>  <Ligand_Instance>  (745) 
nan

>  <PDB_ID>  (745) 
nan

>  <Standardized_SMILES>  (745) 
CN1CCC(Oc2ccnc3ccc(C#CCNC(=O)c4cccn(Cc5ccc(F)c(F)c5)c4=O)cc23)CC1

>  <Name>  (745) 
nan

>  <Pocket>  (745) 
nan

>  <ATP_Site>  (745) 
nan

>  <Peripheral>  (745) 
nan

>  <Num_H_Atoms_ProtBoundConf>  (745) 
nan

>  <Num_Resolved_Atoms>  (745) 
nan

>  <Num_Not_Resolved_Atoms>  (745) 
nan

$$$$
CHEMBL3689263
     RDKit          3D

  0  0  0  0  0  0  0  0  0  0999 V3000
M  V30 BEGIN CTAB
M  V30 COUNTS 56 59 0 0 0
M  V30 BEGIN ATOM
M  V30 1 C 4.486371 -2.832527 1.134111 0
M  V30 2 C 3.513470 -2.270000 0.125943 0
M  V30 3 O 3.308076 -0.880783 0.302176 0
M  V30 4 C 4.263367 0.089832 0.228690 0
M  V30 5 C 5.616143 0.009250 -0.022371 0
M  V30 6 C 6.401400 1.137766 -0.049405 0
M  V30 7 N 5.885370 2.342510 0.164876 0
M  V30 8 C 4.573800 2.486761 0.414902 0
M  V30 9 C 4.118255 3.772702 0.626523 0
M  V30 10 C 2.778283 3.972382 0.887303 0
M  V30 11 C 1.928454 2.891053 0.930780 0
M  V30 12 C 0.516794 3.026103 1.198320 0
M  V30 13 C -0.684277 3.143732 1.404585 0
M  V30 14 C -2.127559 3.282463 1.626635 0
M  V30 15 N -2.792001 1.984191 1.453674 0
M  V30 16 C -2.573162 1.500704 0.136003 0
M  V30 17 O -1.858814 2.357175 -0.492019 0
M  V30 18 C -3.048600 0.262683 -0.453822 0
M  V30 19 C -2.658746 0.077134 -1.783927 0
M  V30 20 C -3.037459 -1.053256 -2.472816 0
M  V30 21 C -3.806104 -2.049099 -1.908373 0
M  V30 22 N -4.156192 -1.826498 -0.629175 0
M  V30 23 C -4.964268 -2.833097 0.030345 0
M  V30 24 C -4.065243 -3.823782 0.676177 0
M  V30 25 C -3.736832 -4.871065 -0.185836 0
M  V30 26 C -2.906457 -5.888089 0.249661 0
M  V30 27 C -2.424978 -5.821505 1.554359 0
M  V30 28 F -1.594996 -6.783553 2.077027 0
M  V30 29 C -2.736648 -4.795002 2.424745 0
M  V30 30 F -2.280465 -4.716807 3.685299 0
M  V30 31 C -3.563163 -3.804046 1.957177 0
M  V30 32 C -3.804642 -0.740167 0.066084 0
M  V30 33 O -4.150043 -0.572761 1.248571 0
M  V30 34 C 2.412072 1.631796 0.716808 0
M  V30 35 C 3.738467 1.367483 0.451903 0
M  V30 36 H 4.958876 -2.029550 1.737252 0
M  V30 37 H 3.954766 -3.466072 1.900983 0
M  V30 38 H 5.185930 -3.501498 0.630688 0
M  V30 39 H 3.943472 -2.441570 -0.881714 0
M  V30 40 H 2.545006 -2.815369 0.197858 0
M  V30 41 H 5.952528 -1.004130 -0.185943 0
M  V30 42 H 7.463195 1.002545 -0.253590 0
M  V30 43 H 4.739883 4.643196 0.602869 0
M  V30 44 H 2.311647 4.935562 1.068367 0
M  V30 45 H -2.524280 4.058207 0.963233 0
M  V30 46 H -2.290557 3.533377 2.715262 0
M  V30 47 H -3.361489 1.395382 2.095872 0
M  V30 48 H -2.045081 0.813130 -2.323745 0
M  V30 49 H -2.720109 -1.167306 -3.499869 0
M  V30 50 H -4.084210 -2.922866 -2.480483 0
M  V30 51 H -5.524740 -2.353732 0.882542 0
M  V30 52 H -5.706031 -3.316277 -0.633168 0
M  V30 53 H -4.061568 -5.001162 -1.202607 0
M  V30 54 H -2.564487 -6.751216 -0.283363 0
M  V30 55 H -3.862081 -2.973851 2.546293 0
M  V30 56 H 1.743162 0.783652 0.751177 0
M  V30 END ATOM
M  V30 BEGIN BOND
M  V30 1 1 1 2
M  V30 2 1 2 3
M  V30 3 1 3 4
M  V30 4 2 4 5
M  V30 5 1 5 6
M  V30 6 2 6 7
M  V30 7 1 7 8
M  V30 8 2 8 9
M  V30 9 1 9 10
M  V30 10 2 10 11
M  V30 11 1 11 12
M  V30 12 3 12 13
M  V30 13 1 13 14
M  V30 14 1 14 15
M  V30 15 1 15 16
M  V30 16 2 16 17
M  V30 17 1 16 18
M  V30 18 2 18 19
M  V30 19 1 19 20
M  V30 20 2 20 21
M  V30 21 1 21 22
M  V30 22 1 22 23
M  V30 23 1 23 24
M  V30 24 2 24 25
M  V30 25 1 25 26
M  V30 26 2 26 27
M  V30 27 1 27 28
M  V30 28 1 27 29
M  V30 29 1 29 30
M  V30 30 2 29 31
M  V30 31 1 22 32
M  V30 32 2 32 33
M  V30 33 1 11 34
M  V30 34 2 34 35
M  V30 35 1 35 4
M  V30 36 1 35 8
M  V30 37 1 32 18
M  V30 38 1 31 24
M  V30 39 1 1 36
M  V30 40 1 1 37
M  V30 41 1 1 38
M  V30 42 1 2 39
M  V30 43 1 2 40
M  V30 44 1 5 41
M  V30 45 1 6 42
M  V30 46 1 9 43
M  V30 47 1 10 44
M  V30 48 1 14 45
M  V30 49 1 14 46
M  V30 50 1 15 47
M  V30 51 1 19 48
M  V30 52 1 20 49
M  V30 53 1 21 50
M  V30 54 1 23 51
M  V30 55 1 23 52
M  V30 56 1 25 53
M  V30 57 1 26 54
M  V30 58 1 31 55
M  V30 59 1 34 56
M  V30 END BOND
M  V30 END CTAB
M  END
>  <Dataset>  (746) 
ChEMBL_Kinases

>  <Ligand_Instance>  (746) 
nan

>  <PDB_ID>  (746) 
nan

>  <Standardized_SMILES>  (746) 
CCOc1ccnc2ccc(C#CCNC(=O)c3cccn(Cc4ccc(F)c(F)c4)c3=O)cc12

>  <Name>  (746) 
nan

>  <Pocket>  (746) 
nan

>  <ATP_Site>  (746) 
nan

>  <Peripheral>  (746) 
nan

>  <Num_H_Atoms_ProtBoundConf>  (746) 
nan

>  <Num_Resolved_Atoms>  (746) 
nan

>  <Num_Not_Resolved_Atoms>  (746) 
nan

$$$$
CHEMBL3689264
     RDKit          3D

  0  0  0  0  0  0  0  0  0  0999 V3000
M  V30 BEGIN CTAB
M  V30 COUNTS 55 58 0 0 0
M  V30 BEGIN ATOM
M  V30 1 C 3.849380 -3.083076 2.281274 0
M  V30 2 C 3.293851 -2.222907 3.393638 0
M  V30 3 O 2.843858 -0.972732 2.908002 0
M  V30 4 C 3.731616 -0.100472 2.320882 0
M  V30 5 C 5.082233 -0.269377 2.139383 0
M  V30 6 C 5.959379 0.610047 1.556201 0
M  V30 7 N 5.444739 1.786113 1.102541 0
M  V30 8 C 4.105859 2.013459 1.253076 0
M  V30 9 C 3.656597 3.223706 0.760274 0
M  V30 10 C 2.321392 3.585975 0.835735 0
M  V30 11 C 1.451078 2.698018 1.420114 0
M  V30 12 C 0.056099 3.027585 1.499417 0
M  V30 13 C -1.131827 3.300473 1.546636 0
M  V30 14 C -2.562068 3.623371 1.578464 0
M  V30 15 N -3.386973 2.420832 1.615705 0
M  V30 16 C -3.176304 1.598708 0.548126 0
M  V30 17 O -2.359353 1.798363 -0.408911 0
M  V30 18 C -3.335832 0.478403 -0.278211 0
M  V30 19 C -4.418954 0.035527 0.674584 0
M  V30 20 N -5.230670 -1.105883 0.646671 0
M  V30 21 C -5.078281 -2.004654 -0.369311 0
M  V30 22 N -4.135219 -1.691779 -1.265142 0
M  V30 23 C -3.721856 -2.404600 -2.439799 0
M  V30 24 C -2.642651 -3.371980 -2.139066 0
M  V30 25 C -3.036017 -4.636332 -1.681327 0
M  V30 26 C -2.131517 -5.627357 -1.368454 0
M  V30 27 C -0.791157 -5.364127 -1.510663 0
M  V30 28 F 0.141216 -6.319419 -1.211930 0
M  V30 29 C -0.328440 -4.125554 -1.962050 0
M  V30 30 F 0.979418 -3.822724 -2.120796 0
M  V30 31 C -1.283885 -3.177192 -2.258329 0
M  V30 32 C -3.485888 -0.552978 -1.034587 0
M  V30 33 O -2.532684 -0.091057 -1.803992 0
M  V30 34 C 1.906513 1.494169 1.909888 0
M  V30 35 C 3.226866 1.101948 1.851457 0
M  V30 36 H 3.127708 -3.930420 2.146597 0
M  V30 37 H 4.843000 -3.440515 2.542911 0
M  V30 38 H 3.874609 -2.471096 1.357940 0
M  V30 39 H 4.133058 -2.047929 4.118119 0
M  V30 40 H 2.450845 -2.741074 3.936310 0
M  V30 41 H 5.529958 -1.184139 2.490292 0
M  V30 42 H 7.015298 0.389760 1.455413 0
M  V30 43 H 4.345197 3.942169 0.289773 0
M  V30 44 H 1.968309 4.530990 0.452203 0
M  V30 45 H -2.820707 4.195519 2.487372 0
M  V30 46 H -2.788976 4.246810 0.694527 0
M  V30 47 H -4.104298 1.918937 2.166064 0
M  V30 48 H -4.985313 0.307705 1.630759 0
M  V30 49 H -5.499709 -2.935348 -0.694912 0
M  V30 50 H -4.592544 -3.007852 -2.836810 0
M  V30 51 H -3.470507 -1.724863 -3.299019 0
M  V30 52 H -4.090897 -4.861121 -1.558843 0
M  V30 53 H -2.499751 -6.594635 -1.012505 0
M  V30 54 H -0.985016 -2.199550 -2.614030 0
M  V30 55 H 1.214297 0.813223 2.365585 0
M  V30 END ATOM
M  V30 BEGIN BOND
M  V30 1 1 1 2
M  V30 2 1 2 3
M  V30 3 1 3 4
M  V30 4 2 4 5
M  V30 5 1 5 6
M  V30 6 2 6 7
M  V30 7 1 7 8
M  V30 8 2 8 9
M  V30 9 1 9 10
M  V30 10 2 10 11
M  V30 11 1 11 12
M  V30 12 3 12 13
M  V30 13 1 13 14
M  V30 14 1 14 15
M  V30 15 1 15 16
M  V30 16 2 16 17
M  V30 17 1 16 18
M  V30 18 2 18 19
M  V30 19 1 19 20
M  V30 20 2 20 21
M  V30 21 1 21 22
M  V30 22 1 22 23
M  V30 23 1 23 24
M  V30 24 2 24 25
M  V30 25 1 25 26
M  V30 26 2 26 27
M  V30 27 1 27 28
M  V30 28 1 27 29
M  V30 29 1 29 30
M  V30 30 2 29 31
M  V30 31 1 22 32
M  V30 32 2 32 33
M  V30 33 1 11 34
M  V30 34 2 34 35
M  V30 35 1 35 4
M  V30 36 1 35 8
M  V30 37 1 32 18
M  V30 38 1 31 24
M  V30 39 1 1 36
M  V30 40 1 1 37
M  V30 41 1 1 38
M  V30 42 1 2 39
M  V30 43 1 2 40
M  V30 44 1 5 41
M  V30 45 1 6 42
M  V30 46 1 9 43
M  V30 47 1 10 44
M  V30 48 1 14 45
M  V30 49 1 14 46
M  V30 50 1 15 47
M  V30 51 1 19 48
M  V30 52 1 21 49
M  V30 53 1 23 50
M  V30 54 1 23 51
M  V30 55 1 25 52
M  V30 56 1 26 53
M  V30 57 1 31 54
M  V30 58 1 34 55
M  V30 END BOND
M  V30 END CTAB
M  END
>  <Dataset>  (747) 
ChEMBL_Kinases

>  <Ligand_Instance>  (747) 
nan

>  <PDB_ID>  (747) 
nan

>  <Standardized_SMILES>  (747) 
CCOc1ccnc2ccc(C#CCNC(=O)c3cncn(Cc4ccc(F)c(F)c4)c3=O)cc12

>  <Name>  (747) 
nan

>  <Pocket>  (747) 
nan

>  <ATP_Site>  (747) 
nan

>  <Peripheral>  (747) 
nan

>  <Num_H_Atoms_ProtBoundConf>  (747) 
nan

>  <Num_Resolved_Atoms>  (747) 
nan

>  <Num_Not_Resolved_Atoms>  (747) 
nan

$$$$
CHEMBL3689265
     RDKit          3D

  0  0  0  0  0  0  0  0  0  0999 V3000
M  V30 BEGIN CTAB
M  V30 COUNTS 59 62 0 0 0
M  V30 BEGIN ATOM
M  V30 1 C 4.171652 -1.381141 3.898920 0
M  V30 2 C 4.357936 -1.457304 2.402300 0
M  V30 3 C 3.637143 -2.703590 1.917494 0
M  V30 4 O 3.997158 -0.305286 1.732508 0
M  V30 5 C 4.706467 0.504974 0.907736 0
M  V30 6 C 6.037299 0.334085 0.522639 0
M  V30 7 C 6.585868 1.279464 -0.333984 0
M  V30 8 N 5.867220 2.327330 -0.782728 0
M  V30 9 C 4.581840 2.527852 -0.435323 0
M  V30 10 C 3.860895 3.603621 -0.902124 0
M  V30 11 C 2.540132 3.814100 -0.547218 0
M  V30 12 C 1.927436 2.917106 0.300665 0
M  V30 13 C 0.567500 2.998946 0.755819 0
M  V30 14 C -0.576087 3.047785 1.141644 0
M  V30 15 C -1.958518 3.097367 1.632077 0
M  V30 16 N -2.895710 2.506792 0.657593 0
M  V30 17 C -2.629890 1.216830 0.361322 0
M  V30 18 O -1.637085 0.590375 0.894645 0
M  V30 19 C -2.719562 -0.055106 -0.206593 0
M  V30 20 C -3.946220 0.465035 -0.921072 0
M  V30 21 C -4.818465 -0.201855 -1.836958 0
M  V30 22 C -4.539838 -1.536816 -2.152532 0
M  V30 23 N -3.446071 -2.055522 -1.537966 0
M  V30 24 C -2.881563 -3.377982 -1.633051 0
M  V30 25 C -3.432425 -4.302887 -0.614058 0
M  V30 26 C -2.769510 -4.570095 0.587844 0
M  V30 27 C -3.291362 -5.425137 1.550521 0
M  V30 28 C -4.518741 -6.056219 1.341396 0
M  V30 29 F -5.007118 -6.875792 2.282294 0
M  V30 30 C -5.126814 -5.765539 0.157539 0
M  V30 31 F -6.330698 -6.393319 -0.028669 0
M  V30 32 C -4.650275 -4.923999 -0.829425 0
M  V30 33 C -2.804277 -1.243227 -0.737828 0
M  V30 34 O -1.732348 -1.566466 -0.065628 0
M  V30 35 C 2.681548 1.840702 0.754999 0
M  V30 36 C 3.999399 1.594781 0.425899 0
M  V30 37 H 3.977030 -2.379167 4.336355 0
M  V30 38 H 3.314283 -0.729711 4.173844 0
M  V30 39 H 5.120116 -1.022869 4.387785 0
M  V30 40 H 5.435081 -1.665310 2.216775 0
M  V30 41 H 3.675506 -3.433721 2.748923 0
M  V30 42 H 2.560947 -2.526657 1.698175 0
M  V30 43 H 4.172011 -3.203830 1.079047 0
M  V30 44 H 6.538919 -0.532231 0.927075 0
M  V30 45 H 7.629498 1.099596 -0.604003 0
M  V30 46 H 4.320474 4.321915 -1.572026 0
M  V30 47 H 1.923865 4.637628 -0.879171 0
M  V30 48 H -2.081048 2.619640 2.630029 0
M  V30 49 H -2.224469 4.146318 1.718289 0
M  V30 50 H -3.729654 2.692188 0.069126 0
M  V30 51 H -4.595929 1.393530 -1.042674 0
M  V30 52 H -5.722954 -0.041429 -2.450458 0
M  V30 53 H -4.942903 -2.323487 -2.762641 0
M  V30 54 H -1.774445 -3.362357 -1.676454 0
M  V30 55 H -3.187977 -3.809386 -2.621437 0
M  V30 56 H -1.817313 -4.122778 0.812352 0
M  V30 57 H -2.713803 -5.588681 2.473574 0
M  V30 58 H -5.245005 -4.783104 -1.728429 0
M  V30 59 H 2.229723 1.129102 1.414793 0
M  V30 END ATOM
M  V30 BEGIN BOND
M  V30 1 1 1 2
M  V30 2 1 2 3
M  V30 3 1 2 4
M  V30 4 1 4 5
M  V30 5 2 5 6
M  V30 6 1 6 7
M  V30 7 2 7 8
M  V30 8 1 8 9
M  V30 9 2 9 10
M  V30 10 1 10 11
M  V30 11 2 11 12
M  V30 12 1 12 13
M  V30 13 3 13 14
M  V30 14 1 14 15
M  V30 15 1 15 16
M  V30 16 1 16 17
M  V30 17 2 17 18
M  V30 18 1 17 19
M  V30 19 2 19 20
M  V30 20 1 20 21
M  V30 21 2 21 22
M  V30 22 1 22 23
M  V30 23 1 23 24
M  V30 24 1 24 25
M  V30 25 2 25 26
M  V30 26 1 26 27
M  V30 27 2 27 28
M  V30 28 1 28 29
M  V30 29 1 28 30
M  V30 30 1 30 31
M  V30 31 2 30 32
M  V30 32 1 23 33
M  V30 33 2 33 34
M  V30 34 1 12 35
M  V30 35 2 35 36
M  V30 36 1 36 5
M  V30 37 1 36 9
M  V30 38 1 33 19
M  V30 39 1 32 25
M  V30 40 1 1 37
M  V30 41 1 1 38
M  V30 42 1 1 39
M  V30 43 1 2 40
M  V30 44 1 3 41
M  V30 45 1 3 42
M  V30 46 1 3 43
M  V30 47 1 6 44
M  V30 48 1 7 45
M  V30 49 1 10 46
M  V30 50 1 11 47
M  V30 51 1 15 48
M  V30 52 1 15 49
M  V30 53 1 16 50
M  V30 54 1 20 51
M  V30 55 1 21 52
M  V30 56 1 22 53
M  V30 57 1 24 54
M  V30 58 1 24 55
M  V30 59 1 26 56
M  V30 60 1 27 57
M  V30 61 1 32 58
M  V30 62 1 35 59
M  V30 END BOND
M  V30 END CTAB
M  END
>  <Dataset>  (748) 
ChEMBL_Kinases

>  <Ligand_Instance>  (748) 
nan

>  <PDB_ID>  (748) 
nan

>  <Standardized_SMILES>  (748) 
CC(C)Oc1ccnc2ccc(C#CCNC(=O)c3cccn(Cc4ccc(F)c(F)c4)c3=O)cc12

>  <Name>  (748) 
nan

>  <Pocket>  (748) 
nan

>  <ATP_Site>  (748) 
nan

>  <Peripheral>  (748) 
nan

>  <Num_H_Atoms_ProtBoundConf>  (748) 
nan

>  <Num_Resolved_Atoms>  (748) 
nan

>  <Num_Not_Resolved_Atoms>  (748) 
nan

$$$$
CHEMBL3689266
     RDKit          3D

  0  0  0  0  0  0  0  0  0  0999 V3000
M  V30 BEGIN CTAB
M  V30 COUNTS 58 61 0 0 0
M  V30 BEGIN ATOM
M  V30 1 C 6.736394 -1.094695 0.101838 0
M  V30 2 C 5.684534 -1.295026 -0.965966 0
M  V30 3 C 5.095767 -2.671175 -0.787595 0
M  V30 4 O 4.735199 -0.281130 -1.002079 0
M  V30 5 C 4.440618 0.598812 -1.999802 0
M  V30 6 C 5.031895 0.705489 -3.259762 0
M  V30 7 C 4.625084 1.659982 -4.184230 0
M  V30 8 N 3.633455 2.504941 -3.857584 0
M  V30 9 C 3.027507 2.449370 -2.660916 0
M  V30 10 C 2.028593 3.381979 -2.473678 0
M  V30 11 C 1.381307 3.350710 -1.242490 0
M  V30 12 C 1.772818 2.398272 -0.291007 0
M  V30 13 C 1.084737 2.379323 0.966640 0
M  V30 14 C 0.490434 2.343688 2.034650 0
M  V30 15 C -0.252626 2.293256 3.318155 0
M  V30 16 N -1.672335 2.024179 3.045871 0
M  V30 17 C -1.896761 0.835827 2.410471 0
M  V30 18 O -1.009099 -0.013964 2.063340 0
M  V30 19 C -2.650184 -0.153881 1.822553 0
M  V30 20 C -3.893075 0.673223 2.061571 0
M  V30 21 N -5.238818 0.473556 1.781853 0
M  V30 22 C -5.534199 -0.709245 1.160319 0
M  V30 23 N -4.530706 -1.547794 0.884215 0
M  V30 24 C -4.544839 -2.839562 0.248228 0
M  V30 25 C -4.760127 -3.912851 1.234080 0
M  V30 26 C -3.846718 -4.641084 1.954775 0
M  V30 27 C -4.168178 -5.621868 2.848840 0
M  V30 28 C -5.482002 -5.945797 3.082715 0
M  V30 29 F -5.934869 -6.896380 3.938698 0
M  V30 30 C -6.466773 -5.276814 2.412961 0
M  V30 31 F -7.803016 -5.509202 2.562115 0
M  V30 32 C -6.076744 -4.283778 1.511426 0
M  V30 33 C -3.366181 -1.094216 1.263947 0
M  V30 34 O -2.252133 -1.774713 1.080469 0
M  V30 35 C 2.770535 1.488775 -0.517015 0
M  V30 36 C 3.422426 1.510935 -1.740710 0
M  V30 37 H 6.708776 -1.920364 0.845564 0
M  V30 38 H 6.554192 -0.165104 0.689728 0
M  V30 39 H 7.759031 -1.085059 -0.324974 0
M  V30 40 H 6.206748 -1.281806 -1.943671 0
M  V30 41 H 5.908176 -3.313531 -0.348084 0
M  V30 42 H 4.285527 -2.684681 -0.033981 0
M  V30 43 H 4.837222 -3.157116 -1.743176 0
M  V30 44 H 5.815765 0.004230 -3.464133 0
M  V30 45 H 5.143858 1.669696 -5.146117 0
M  V30 46 H 1.722058 4.111660 -3.191938 0
M  V30 47 H 0.579520 4.053339 -1.010150 0
M  V30 48 H 0.199547 1.486894 3.920162 0
M  V30 49 H -0.153920 3.248395 3.814684 0
M  V30 50 H -2.613287 2.433274 3.170671 0
M  V30 51 H -4.231134 1.678091 2.509573 0
M  V30 52 H -6.446780 -1.199595 0.794780 0
M  V30 53 H -5.425272 -2.860365 -0.462741 0
M  V30 54 H -3.614005 -3.053735 -0.347706 0
M  V30 55 H -2.801414 -4.367935 1.752889 0
M  V30 56 H -3.432464 -6.171791 3.396707 0
M  V30 57 H -6.881165 -3.753293 0.979005 0
M  V30 58 H 3.041706 0.781805 0.223278 0
M  V30 END ATOM
M  V30 BEGIN BOND
M  V30 1 1 1 2
M  V30 2 1 2 3
M  V30 3 1 2 4
M  V30 4 1 4 5
M  V30 5 2 5 6
M  V30 6 1 6 7
M  V30 7 2 7 8
M  V30 8 1 8 9
M  V30 9 2 9 10
M  V30 10 1 10 11
M  V30 11 2 11 12
M  V30 12 1 12 13
M  V30 13 3 13 14
M  V30 14 1 14 15
M  V30 15 1 15 16
M  V30 16 1 16 17
M  V30 17 2 17 18
M  V30 18 1 17 19
M  V30 19 2 19 20
M  V30 20 1 20 21
M  V30 21 2 21 22
M  V30 22 1 22 23
M  V30 23 1 23 24
M  V30 24 1 24 25
M  V30 25 2 25 26
M  V30 26 1 26 27
M  V30 27 2 27 28
M  V30 28 1 28 29
M  V30 29 1 28 30
M  V30 30 1 30 31
M  V30 31 2 30 32
M  V30 32 1 23 33
M  V30 33 2 33 34
M  V30 34 1 12 35
M  V30 35 2 35 36
M  V30 36 1 36 5
M  V30 37 1 36 9
M  V30 38 1 33 19
M  V30 39 1 32 25
M  V30 40 1 1 37
M  V30 41 1 1 38
M  V30 42 1 1 39
M  V30 43 1 2 40
M  V30 44 1 3 41
M  V30 45 1 3 42
M  V30 46 1 3 43
M  V30 47 1 6 44
M  V30 48 1 7 45
M  V30 49 1 10 46
M  V30 50 1 11 47
M  V30 51 1 15 48
M  V30 52 1 15 49
M  V30 53 1 16 50
M  V30 54 1 20 51
M  V30 55 1 22 52
M  V30 56 1 24 53
M  V30 57 1 24 54
M  V30 58 1 26 55
M  V30 59 1 27 56
M  V30 60 1 32 57
M  V30 61 1 35 58
M  V30 END BOND
M  V30 END CTAB
M  END
>  <Dataset>  (749) 
ChEMBL_Kinases

>  <Ligand_Instance>  (749) 
nan

>  <PDB_ID>  (749) 
nan

>  <Standardized_SMILES>  (749) 
CC(C)Oc1ccnc2ccc(C#CCNC(=O)c3cncn(Cc4ccc(F)c(F)c4)c3=O)cc12

>  <Name>  (749) 
nan

>  <Pocket>  (749) 
nan

>  <ATP_Site>  (749) 
nan

>  <Peripheral>  (749) 
nan

>  <Num_H_Atoms_ProtBoundConf>  (749) 
nan

>  <Num_Resolved_Atoms>  (749) 
nan

>  <Num_Not_Resolved_Atoms>  (749) 
nan

$$$$
CHEMBL3689267
     RDKit          3D

  0  0  0  0  0  0  0  0  0  0999 V3000
M  V30 BEGIN CTAB
M  V30 COUNTS 64 67 0 0 0
M  V30 BEGIN ATOM
M  V30 1 C 3.908577 -0.853994 5.990967 0
M  V30 2 N 3.276394 -0.746318 4.686991 0
M  V30 3 C 1.936338 -1.242213 4.785051 0
M  V30 4 C 4.103495 -1.498228 3.762144 0
M  V30 5 C 3.566965 -1.473393 2.366125 0
M  V30 6 O 3.438471 -0.245798 1.764812 0
M  V30 7 C 4.353109 0.713689 1.448339 0
M  V30 8 C 5.717248 0.821850 1.595935 0
M  V30 9 C 6.462405 1.902418 1.197542 0
M  V30 10 N 5.817331 2.931746 0.620725 0
M  V30 11 C 4.477340 2.918158 0.431913 0
M  V30 12 C 3.967063 4.043110 -0.170509 0
M  V30 13 C 2.605881 4.081228 -0.386944 0
M  V30 14 C 1.808444 3.022507 -0.006332 0
M  V30 15 C 0.384312 3.014725 -0.210863 0
M  V30 16 C -0.808165 3.002046 -0.402491 0
M  V30 17 C -2.270641 2.972976 -0.659953 0
M  V30 18 N -2.756437 1.589533 -0.531918 0
M  V30 19 C -2.102187 0.770329 -1.460009 0
M  V30 20 O -1.278837 1.478976 -2.137864 0
M  V30 21 C -2.266326 -0.647327 -1.684399 0
M  V30 22 C -1.464810 -1.199891 -2.693442 0
M  V30 23 C -1.530223 -2.541822 -3.001180 0
M  V30 24 C -2.378222 -3.404635 -2.340722 0
M  V30 25 N -3.132485 -2.845387 -1.380145 0
M  V30 26 C -4.040219 -3.716315 -0.659153 0
M  V30 27 C -5.358687 -3.761940 -1.344263 0
M  V30 28 C -6.453327 -2.950285 -1.133422 0
M  V30 29 C -7.610070 -3.129654 -1.862954 0
M  V30 30 C -7.719675 -4.124993 -2.830437 0
M  V30 31 F -8.856749 -4.300155 -3.546324 0
M  V30 32 C -6.620430 -4.933495 -3.036115 0
M  V30 33 F -6.680121 -5.921254 -3.972238 0
M  V30 34 C -5.449300 -4.768577 -2.312862 0
M  V30 35 C -3.088831 -1.560235 -1.065153 0
M  V30 36 O -3.803237 -1.093702 -0.172985 0
M  V30 37 C 2.367987 1.916348 0.594516 0
M  V30 38 C 3.725660 1.810893 0.842053 0
M  V30 39 H 3.348785 -0.225127 6.734301 0
M  V30 40 H 4.932751 -0.445827 5.990136 0
M  V30 41 H 3.929261 -1.867797 6.389682 0
M  V30 42 H 1.636069 -1.347676 5.862116 0
M  V30 43 H 1.734591 -2.188609 4.282371 0
M  V30 44 H 1.259794 -0.425107 4.406465 0
M  V30 45 H 5.134597 -1.184824 3.837416 0
M  V30 46 H 4.071200 -2.556984 4.161452 0
M  V30 47 H 4.229911 -2.103029 1.701916 0
M  V30 48 H 2.548957 -1.956928 2.426045 0
M  V30 49 H 6.151445 -0.047084 2.059528 0
M  V30 50 H 7.526330 1.840977 1.381339 0
M  V30 51 H 4.585104 4.867979 -0.467444 0
M  V30 52 H 2.118384 4.928021 -0.855410 0
M  V30 53 H -2.762611 3.539577 0.148249 0
M  V30 54 H -2.536122 3.431410 -1.611837 0
M  V30 55 H -3.463559 1.151312 0.098334 0
M  V30 56 H -0.772673 -0.578187 -3.255745 0
M  V30 57 H -0.890293 -2.916423 -3.788030 0
M  V30 58 H -2.403826 -4.450406 -2.607515 0
M  V30 59 H -4.148223 -3.301035 0.377036 0
M  V30 60 H -3.639498 -4.741028 -0.516909 0
M  V30 61 H -6.311677 -2.196315 -0.371559 0
M  V30 62 H -8.444774 -2.488901 -1.682003 0
M  V30 63 H -4.625971 -5.453081 -2.539463 0
M  V30 64 H 1.754472 1.098792 0.888807 0
M  V30 END ATOM
M  V30 BEGIN BOND
M  V30 1 1 1 2
M  V30 2 1 2 3
M  V30 3 1 2 4
M  V30 4 1 4 5
M  V30 5 1 5 6
M  V30 6 1 6 7
M  V30 7 2 7 8
M  V30 8 1 8 9
M  V30 9 2 9 10
M  V30 10 1 10 11
M  V30 11 2 11 12
M  V30 12 1 12 13
M  V30 13 2 13 14
M  V30 14 1 14 15
M  V30 15 3 15 16
M  V30 16 1 16 17
M  V30 17 1 17 18
M  V30 18 1 18 19
M  V30 19 2 19 20
M  V30 20 1 19 21
M  V30 21 2 21 22
M  V30 22 1 22 23
M  V30 23 2 23 24
M  V30 24 1 24 25
M  V30 25 1 25 26
M  V30 26 1 26 27
M  V30 27 2 27 28
M  V30 28 1 28 29
M  V30 29 2 29 30
M  V30 30 1 30 31
M  V30 31 1 30 32
M  V30 32 1 32 33
M  V30 33 2 32 34
M  V30 34 1 25 35
M  V30 35 2 35 36
M  V30 36 1 14 37
M  V30 37 2 37 38
M  V30 38 1 38 7
M  V30 39 1 38 11
M  V30 40 1 35 21
M  V30 41 1 34 27
M  V30 42 1 1 39
M  V30 43 1 1 40
M  V30 44 1 1 41
M  V30 45 1 3 42
M  V30 46 1 3 43
M  V30 47 1 3 44
M  V30 48 1 4 45
M  V30 49 1 4 46
M  V30 50 1 5 47
M  V30 51 1 5 48
M  V30 52 1 8 49
M  V30 53 1 9 50
M  V30 54 1 12 51
M  V30 55 1 13 52
M  V30 56 1 17 53
M  V30 57 1 17 54
M  V30 58 1 18 55
M  V30 59 1 22 56
M  V30 60 1 23 57
M  V30 61 1 24 58
M  V30 62 1 26 59
M  V30 63 1 26 60
M  V30 64 1 28 61
M  V30 65 1 29 62
M  V30 66 1 34 63
M  V30 67 1 37 64
M  V30 END BOND
M  V30 END CTAB
M  END
>  <Dataset>  (750) 
ChEMBL_Kinases

>  <Ligand_Instance>  (750) 
nan

>  <PDB_ID>  (750) 
nan

>  <Standardized_SMILES>  (750) 
CN(C)CCOc1ccnc2ccc(C#CCNC(=O)c3cccn(Cc4ccc(F)c(F)c4)c3=O)cc12

>  <Name>  (750) 
nan

>  <Pocket>  (750) 
nan

>  <ATP_Site>  (750) 
nan

>  <Peripheral>  (750) 
nan

>  <Num_H_Atoms_ProtBoundConf>  (750) 
nan

>  <Num_Resolved_Atoms>  (750) 
nan

>  <Num_Not_Resolved_Atoms>  (750) 
nan

$$$$
CHEMBL3689268
     RDKit          3D

  0  0  0  0  0  0  0  0  0  0999 V3000
M  V30 BEGIN CTAB
M  V30 COUNTS 63 66 0 0 0
M  V30 BEGIN ATOM
M  V30 1 C 4.404060 0.291756 5.683845 0
M  V30 2 N 4.301883 0.031258 4.234172 0
M  V30 3 C 5.209045 -1.110059 4.003745 0
M  V30 4 C 2.967214 -0.379153 3.902577 0
M  V30 5 C 2.675885 -0.609869 2.458481 0
M  V30 6 O 2.827454 0.433657 1.612908 0
M  V30 7 C 3.700033 1.288054 1.126684 0
M  V30 8 C 5.042214 1.542428 1.267359 0
M  V30 9 C 5.805307 2.509845 0.656427 0
M  V30 10 N 5.111321 3.292315 -0.184508 0
M  V30 11 C 3.801501 3.174933 -0.432099 0
M  V30 12 C 3.287365 4.079135 -1.327223 0
M  V30 13 C 1.940203 3.991447 -1.609000 0
M  V30 14 C 1.159257 3.029439 -1.007046 0
M  V30 15 C -0.249170 2.881917 -1.256770 0
M  V30 16 C -1.433237 2.737024 -1.467149 0
M  V30 17 C -2.883225 2.533809 -1.720738 0
M  V30 18 N -3.239906 1.213935 -1.173732 0
M  V30 19 C -2.475437 0.241984 -1.816601 0
M  V30 20 O -1.708357 0.798251 -2.675478 0
M  V30 21 C -2.462133 -1.199226 -1.628436 0
M  V30 22 C -1.579566 -1.922382 -2.422540 0
M  V30 23 N -1.457965 -3.253068 -2.357189 0
M  V30 24 C -2.202655 -3.957649 -1.500785 0
M  V30 25 N -3.073086 -3.309796 -0.708306 0
M  V30 26 C -3.884914 -4.065593 0.221932 0
M  V30 27 C -5.178014 -4.495243 -0.397238 0
M  V30 28 C -5.177849 -5.721315 -1.069440 0
M  V30 29 C -6.326625 -6.205810 -1.675709 0
M  V30 30 C -7.486148 -5.446167 -1.602894 0
M  V30 31 F -8.612767 -5.889973 -2.180592 0
M  V30 32 C -7.482659 -4.229321 -0.934645 0
M  V30 33 F -8.642423 -3.524255 -0.891397 0
M  V30 34 C -6.322200 -3.741865 -0.323320 0
M  V30 35 C -3.201051 -1.976066 -0.767450 0
M  V30 36 O -4.007719 -1.350578 -0.036627 0
M  V30 37 C 1.735307 2.151717 -0.117802 0
M  V30 38 C 3.093636 2.173975 0.221943 0
M  V30 39 H 3.371281 0.184405 6.120997 0
M  V30 40 H 4.846631 1.264212 5.903408 0
M  V30 41 H 5.003445 -0.478308 6.205132 0
M  V30 42 H 5.387120 -1.677364 4.952685 0
M  V30 43 H 4.742766 -1.848774 3.324156 0
M  V30 44 H 6.166259 -0.794446 3.548310 0
M  V30 45 H 2.715322 -1.336847 4.444542 0
M  V30 46 H 2.256727 0.394257 4.323807 0
M  V30 47 H 1.575199 -0.927279 2.412188 0
M  V30 48 H 3.171160 -1.572036 2.092138 0
M  V30 49 H 5.538380 0.871207 1.949203 0
M  V30 50 H 6.857709 2.567974 0.885491 0
M  V30 51 H 3.884582 4.830877 -1.800941 0
M  V30 52 H 1.465864 4.665680 -2.300117 0
M  V30 53 H -3.427711 3.331244 -1.195775 0
M  V30 54 H -3.052098 2.542311 -2.815947 0
M  V30 55 H -3.911395 0.889091 -0.445203 0
M  V30 56 H -0.925346 -1.432432 -3.156578 0
M  V30 57 H -2.072070 -5.030689 -1.481149 0
M  V30 58 H -4.074210 -3.486562 1.161793 0
M  V30 59 H -3.370594 -4.987379 0.563928 0
M  V30 60 H -4.277781 -6.333718 -1.138139 0
M  V30 61 H -6.299120 -7.163768 -2.193018 0
M  V30 62 H -6.327915 -2.801493 0.191018 0
M  V30 63 H 1.125750 1.387779 0.363002 0
M  V30 END ATOM
M  V30 BEGIN BOND
M  V30 1 1 1 2
M  V30 2 1 2 3
M  V30 3 1 2 4
M  V30 4 1 4 5
M  V30 5 1 5 6
M  V30 6 1 6 7
M  V30 7 2 7 8
M  V30 8 1 8 9
M  V30 9 2 9 10
M  V30 10 1 10 11
M  V30 11 2 11 12
M  V30 12 1 12 13
M  V30 13 2 13 14
M  V30 14 1 14 15
M  V30 15 3 15 16
M  V30 16 1 16 17
M  V30 17 1 17 18
M  V30 18 1 18 19
M  V30 19 2 19 20
M  V30 20 1 19 21
M  V30 21 2 21 22
M  V30 22 1 22 23
M  V30 23 2 23 24
M  V30 24 1 24 25
M  V30 25 1 25 26
M  V30 26 1 26 27
M  V30 27 2 27 28
M  V30 28 1 28 29
M  V30 29 2 29 30
M  V30 30 1 30 31
M  V30 31 1 30 32
M  V30 32 1 32 33
M  V30 33 2 32 34
M  V30 34 1 25 35
M  V30 35 2 35 36
M  V30 36 1 14 37
M  V30 37 2 37 38
M  V30 38 1 38 7
M  V30 39 1 38 11
M  V30 40 1 35 21
M  V30 41 1 34 27
M  V30 42 1 1 39
M  V30 43 1 1 40
M  V30 44 1 1 41
M  V30 45 1 3 42
M  V30 46 1 3 43
M  V30 47 1 3 44
M  V30 48 1 4 45
M  V30 49 1 4 46
M  V30 50 1 5 47
M  V30 51 1 5 48
M  V30 52 1 8 49
M  V30 53 1 9 50
M  V30 54 1 12 51
M  V30 55 1 13 52
M  V30 56 1 17 53
M  V30 57 1 17 54
M  V30 58 1 18 55
M  V30 59 1 22 56
M  V30 60 1 24 57
M  V30 61 1 26 58
M  V30 62 1 26 59
M  V30 63 1 28 60
M  V30 64 1 29 61
M  V30 65 1 34 62
M  V30 66 1 37 63
M  V30 END BOND
M  V30 END CTAB
M  END
>  <Dataset>  (751) 
ChEMBL_Kinases

>  <Ligand_Instance>  (751) 
nan

>  <PDB_ID>  (751) 
nan

>  <Standardized_SMILES>  (751) 
CN(C)CCOc1ccnc2ccc(C#CCNC(=O)c3cncn(Cc4ccc(F)c(F)c4)c3=O)cc12

>  <Name>  (751) 
nan

>  <Pocket>  (751) 
nan

>  <ATP_Site>  (751) 
nan

>  <Peripheral>  (751) 
nan

>  <Num_H_Atoms_ProtBoundConf>  (751) 
nan

>  <Num_Resolved_Atoms>  (751) 
nan

>  <Num_Not_Resolved_Atoms>  (751) 
nan

$$$$
CHEMBL3689269
     RDKit          3D

  0  0  0  0  0  0  0  0  0  0999 V3000
M  V30 BEGIN CTAB
M  V30 COUNTS 75 79 0 0 0
M  V30 BEGIN ATOM
M  V30 1 C -1.126799 -5.510430 0.446232 0
M  V30 2 N -0.925239 -6.379756 -0.709677 0
M  V30 3 C -1.551075 -5.718742 -1.841730 0
M  V30 4 C -0.696518 -4.583409 -2.369806 0
M  V30 5 N 0.474391 -5.150193 -2.979397 0
M  V30 6 C 1.602740 -4.246615 -2.992440 0
M  V30 7 C 1.461026 -3.064225 -3.883103 0
M  V30 8 C 2.735075 -2.222123 -3.774693 0
M  V30 9 O 2.940697 -1.776647 -2.454204 0
M  V30 10 C 3.991906 -1.005833 -2.073145 0
M  V30 11 C 5.048328 -0.554889 -2.825416 0
M  V30 12 C 6.043275 0.219904 -2.258793 0
M  V30 13 N 6.032063 0.569748 -0.959900 0
M  V30 14 C 4.993117 0.130274 -0.209615 0
M  V30 15 C 5.028857 0.562723 1.108830 0
M  V30 16 C 4.002749 0.217407 1.970384 0
M  V30 17 C 3.005689 -0.549296 1.426867 0
M  V30 18 C 1.799880 -0.908621 2.179133 0
M  V30 19 C 0.785675 -1.193711 2.793739 0
M  V30 20 C -0.453268 -1.521112 3.521452 0
M  V30 21 N -1.296095 -0.318712 3.656663 0
M  V30 22 C -2.618219 -0.007182 4.194010 0
M  V30 23 O -2.770408 -1.165829 4.500330 0
M  V30 24 C -3.008174 1.418117 4.071719 0
M  V30 25 C -4.282356 1.402332 4.652728 0
M  V30 26 N -5.053366 2.539810 4.769244 0
M  V30 27 C -4.503685 3.711520 4.282685 0
M  V30 28 N -3.286761 3.629183 3.747335 0
M  V30 29 C -2.737885 4.878728 3.252806 0
M  V30 30 C -3.130712 5.021109 1.820215 0
M  V30 31 C -2.282289 4.696085 0.787246 0
M  V30 32 C -2.561575 4.779371 -0.539892 0
M  V30 33 C -3.817900 5.234032 -0.899224 0
M  V30 34 F -4.085632 5.314319 -2.234435 0
M  V30 35 C -4.733630 5.581928 0.071137 0
M  V30 36 F -5.977767 6.035477 -0.288053 0
M  V30 37 C -4.373516 5.468916 1.415069 0
M  V30 38 C -2.477863 2.580412 3.593529 0
M  V30 39 O -1.368641 2.473224 3.111267 0
M  V30 40 C 2.914795 -1.020600 0.106348 0
M  V30 41 C 3.975241 -0.644858 -0.725577 0
M  V30 42 C 0.821111 -6.421971 -2.397469 0
M  V30 43 C 0.505817 -6.496011 -0.915278 0
M  V30 44 H -1.337508 -6.102416 1.369802 0
M  V30 45 H -0.243158 -4.867019 0.625591 0
M  V30 46 H -1.991004 -4.825457 0.299011 0
M  V30 47 H -1.631595 -6.477837 -2.635483 0
M  V30 48 H -2.579987 -5.390354 -1.612735 0
M  V30 49 H -0.458519 -3.921113 -1.509195 0
M  V30 50 H -1.323249 -4.089012 -3.147988 0
M  V30 51 H 2.501728 -4.815802 -3.302305 0
M  V30 52 H 1.746773 -3.885754 -1.958971 0
M  V30 53 H 1.434809 -3.397134 -4.957836 0
M  V30 54 H 0.623661 -2.402340 -3.655041 0
M  V30 55 H 3.633007 -2.845518 -4.049281 0
M  V30 56 H 2.740771 -1.392441 -4.500703 0
M  V30 57 H 5.032751 -0.842645 -3.850047 0
M  V30 58 H 6.867737 0.565317 -2.863776 0
M  V30 59 H 5.834076 1.170931 1.501530 0
M  V30 60 H 3.939013 0.499044 3.009219 0
M  V30 61 H -0.255008 -1.904138 4.546965 0
M  V30 62 H -0.961888 -2.281622 2.907398 0
M  V30 63 H -0.699953 0.443355 3.222243 0
M  V30 64 H -4.921546 0.633251 5.099220 0
M  V30 65 H -5.038024 4.646155 4.339351 0
M  V30 66 H -3.110115 5.741487 3.842238 0
M  V30 67 H -1.614787 4.901975 3.328351 0
M  V30 68 H -1.278069 4.331344 1.040362 0
M  V30 69 H -1.848948 4.495586 -1.313892 0
M  V30 70 H -5.092130 5.744883 2.183246 0
M  V30 71 H 2.137535 -1.621587 -0.294735 0
M  V30 72 H 1.904384 -6.676329 -2.490938 0
M  V30 73 H 0.235092 -7.217608 -2.895664 0
M  V30 74 H 1.076224 -5.779307 -0.328105 0
M  V30 75 H 0.790980 -7.522862 -0.594105 0
M  V30 END ATOM
M  V30 BEGIN BOND
M  V30 1 1 1 2
M  V30 2 1 2 3
M  V30 3 1 3 4
M  V30 4 1 4 5
M  V30 5 1 5 6
M  V30 6 1 6 7
M  V30 7 1 7 8
M  V30 8 1 8 9
M  V30 9 1 9 10
M  V30 10 2 10 11
M  V30 11 1 11 12
M  V30 12 2 12 13
M  V30 13 1 13 14
M  V30 14 2 14 15
M  V30 15 1 15 16
M  V30 16 2 16 17
M  V30 17 1 17 18
M  V30 18 3 18 19
M  V30 19 1 19 20
M  V30 20 1 20 21
M  V30 21 1 21 22
M  V30 22 2 22 23
M  V30 23 1 22 24
M  V30 24 2 24 25
M  V30 25 1 25 26
M  V30 26 2 26 27
M  V30 27 1 27 28
M  V30 28 1 28 29
M  V30 29 1 29 30
M  V30 30 2 30 31
M  V30 31 1 31 32
M  V30 32 2 32 33
M  V30 33 1 33 34
M  V30 34 1 33 35
M  V30 35 1 35 36
M  V30 36 2 35 37
M  V30 37 1 28 38
M  V30 38 2 38 39
M  V30 39 1 17 40
M  V30 40 2 40 41
M  V30 41 1 5 42
M  V30 42 1 42 43
M  V30 43 1 43 2
M  V30 44 1 41 10
M  V30 45 1 41 14
M  V30 46 1 38 24
M  V30 47 1 37 30
M  V30 48 1 1 44
M  V30 49 1 1 45
M  V30 50 1 1 46
M  V30 51 1 3 47
M  V30 52 1 3 48
M  V30 53 1 4 49
M  V30 54 1 4 50
M  V30 55 1 6 51
M  V30 56 1 6 52
M  V30 57 1 7 53
M  V30 58 1 7 54
M  V30 59 1 8 55
M  V30 60 1 8 56
M  V30 61 1 11 57
M  V30 62 1 12 58
M  V30 63 1 15 59
M  V30 64 1 16 60
M  V30 65 1 20 61
M  V30 66 1 20 62
M  V30 67 1 21 63
M  V30 68 1 25 64
M  V30 69 1 27 65
M  V30 70 1 29 66
M  V30 71 1 29 67
M  V30 72 1 31 68
M  V30 73 1 32 69
M  V30 74 1 37 70
M  V30 75 1 40 71
M  V30 76 1 42 72
M  V30 77 1 42 73
M  V30 78 1 43 74
M  V30 79 1 43 75
M  V30 END BOND
M  V30 END CTAB
M  END
>  <Dataset>  (752) 
ChEMBL_Kinases

>  <Ligand_Instance>  (752) 
nan

>  <PDB_ID>  (752) 
nan

>  <Standardized_SMILES>  (752) 
CN1CCN(CCCOc2ccnc3ccc(C#CCNC(=O)c4cncn(Cc5ccc(F)c(F)c5)c4=O)cc23)CC1

>  <Name>  (752) 
nan

>  <Pocket>  (752) 
nan

>  <ATP_Site>  (752) 
nan

>  <Peripheral>  (752) 
nan

>  <Num_H_Atoms_ProtBoundConf>  (752) 
nan

>  <Num_Resolved_Atoms>  (752) 
nan

>  <Num_Not_Resolved_Atoms>  (752) 
nan

$$$$
CHEMBL3689270
     RDKit          3D

  0  0  0  0  0  0  0  0  0  0999 V3000
M  V30 BEGIN CTAB
M  V30 COUNTS 71 75 0 0 0
M  V30 BEGIN ATOM
M  V30 1 C 0.888829 -3.351392 1.962701 0
M  V30 2 N 0.337284 -3.635309 0.629801 0
M  V30 3 C -0.728049 -4.596233 0.872061 0
M  V30 4 C -1.340132 -5.120051 -0.416955 0
M  V30 5 C -0.285202 -5.725618 -1.303200 0
M  V30 6 C 0.930226 -4.885270 -1.435496 0
M  V30 7 C 0.850121 -3.880621 -2.535636 0
M  V30 8 O -0.194636 -2.937503 -2.410731 0
M  V30 9 C -0.339433 -2.050336 -3.464566 0
M  V30 10 C 0.376177 -1.984312 -4.621648 0
M  V30 11 C 0.180810 -1.085160 -5.640724 0
M  V30 12 N -0.794289 -0.179695 -5.506898 0
M  V30 13 C -1.590116 -0.136493 -4.378408 0
M  V30 14 C -2.626690 0.908396 -4.233631 0
M  V30 15 C -2.924262 0.441101 -3.050513 0
M  V30 16 C -3.213496 -0.012771 -1.901034 0
M  V30 17 C -3.819581 -0.069593 -0.698301 0
M  V30 18 C -4.337682 -0.102671 0.359639 0
M  V30 19 C -4.959432 -0.145888 1.689922 0
M  V30 20 N -4.020274 0.584396 2.557037 0
M  V30 21 C -3.220286 1.245284 3.497059 0
M  V30 22 O -3.759226 1.099547 4.659867 0
M  V30 23 C -2.035903 1.974116 3.408885 0
M  V30 24 C -2.084494 2.593801 1.998189 0
M  V30 25 C -1.132031 3.434597 1.321649 0
M  V30 26 C 0.023006 3.701492 2.140341 0
M  V30 27 N 0.147861 3.160872 3.458986 0
M  V30 28 C 1.382461 3.512825 4.017388 0
M  V30 29 C 2.525275 2.687586 3.443639 0
M  V30 30 C 2.916188 1.419614 3.786028 0
M  V30 31 C 4.000456 0.795206 3.135815 0
M  V30 32 C 4.685157 1.489428 2.123044 0
M  V30 33 F 5.735314 0.877481 1.510802 0
M  V30 34 C 4.312339 2.773620 1.756199 0
M  V30 35 F 5.029747 3.369521 0.766006 0
M  V30 36 C 3.247444 3.300244 2.443628 0
M  V30 37 C -0.999604 2.607792 3.278922 0
M  V30 38 O -0.859925 2.080363 4.585781 0
M  V30 39 C -2.162013 -1.013747 -2.142514 0
M  V30 40 C -1.361123 -1.091349 -3.333313 0
M  V30 41 C 1.383538 -4.207201 -0.166984 0
M  V30 42 H 0.026544 -3.245265 2.644821 0
M  V30 43 H 1.379751 -4.317767 2.268096 0
M  V30 44 H 1.595141 -2.508911 1.962594 0
M  V30 45 H -0.310996 -5.406157 1.485515 0
M  V30 46 H -1.510007 -4.053112 1.434104 0
M  V30 47 H -1.956763 -4.342245 -0.833855 0
M  V30 48 H -2.006334 -5.963829 -0.075822 0
M  V30 49 H -0.693756 -5.982015 -2.270167 0
M  V30 50 H 0.037501 -6.698813 -0.827254 0
M  V30 51 H 1.777203 -5.582126 -1.698734 0
M  V30 52 H 0.907453 -4.311662 -3.534625 0
M  V30 53 H 1.847766 -3.303163 -2.437618 0
M  V30 54 H 1.165854 -2.701558 -4.735258 0
M  V30 55 H 0.773037 -1.066522 -6.541132 0
M  V30 56 H -2.768080 1.590756 -5.010774 0
M  V30 57 H -3.778733 1.310747 -2.897570 0
M  V30 58 H -5.929373 0.399450 1.623083 0
M  V30 59 H -5.126048 -1.174515 2.029707 0
M  V30 60 H -3.302682 0.729299 1.783123 0
M  V30 61 H -2.898860 2.545161 1.146036 0
M  V30 62 H -1.220723 3.863864 0.295855 0
M  V30 63 H 0.716473 4.362506 1.552214 0
M  V30 64 H 1.611987 4.589687 3.970647 0
M  V30 65 H 1.371616 3.292204 5.128138 0
M  V30 66 H 2.322002 0.962132 4.586037 0
M  V30 67 H 4.254798 -0.201120 3.446804 0
M  V30 68 H 3.030715 4.322102 2.095366 0
M  V30 69 H -1.859600 -1.838161 -1.414076 0
M  V30 70 H 2.019200 -3.324092 -0.491220 0
M  V30 71 H 1.997833 -4.922371 0.422726 0
M  V30 END ATOM
M  V30 BEGIN BOND
M  V30 1 1 1 2
M  V30 2 1 2 3
M  V30 3 1 3 4
M  V30 4 1 4 5
M  V30 5 1 5 6
M  V30 6 1 6 7
M  V30 7 1 7 8
M  V30 8 1 8 9
M  V30 9 2 9 10
M  V30 10 1 10 11
M  V30 11 2 11 12
M  V30 12 1 12 13
M  V30 13 2 13 14
M  V30 14 1 14 15
M  V30 15 2 15 16
M  V30 16 1 16 17
M  V30 17 3 17 18
M  V30 18 1 18 19
M  V30 19 1 19 20
M  V30 20 1 20 21
M  V30 21 2 21 22
M  V30 22 1 21 23
M  V30 23 2 23 24
M  V30 24 1 24 25
M  V30 25 2 25 26
M  V30 26 1 26 27
M  V30 27 1 27 28
M  V30 28 1 28 29
M  V30 29 2 29 30
M  V30 30 1 30 31
M  V30 31 2 31 32
M  V30 32 1 32 33
M  V30 33 1 32 34
M  V30 34 1 34 35
M  V30 35 2 34 36
M  V30 36 1 27 37
M  V30 37 2 37 38
M  V30 38 1 16 39
M  V30 39 2 39 40
M  V30 40 1 6 41
M  V30 41 1 41 2
M  V30 42 1 40 9
M  V30 43 1 40 13
M  V30 44 1 37 23
M  V30 45 1 36 29
M  V30 46 1 1 42
M  V30 47 1 1 43
M  V30 48 1 1 44
M  V30 49 1 3 45
M  V30 50 1 3 46
M  V30 51 1 4 47
M  V30 52 1 4 48
M  V30 53 1 5 49
M  V30 54 1 5 50
M  V30 55 1 6 51
M  V30 56 1 7 52
M  V30 57 1 7 53
M  V30 58 1 10 54
M  V30 59 1 11 55
M  V30 60 1 14 56
M  V30 61 1 15 57
M  V30 62 1 19 58
M  V30 63 1 19 59
M  V30 64 1 20 60
M  V30 65 1 24 61
M  V30 66 1 25 62
M  V30 67 1 26 63
M  V30 68 1 28 64
M  V30 69 1 28 65
M  V30 70 1 30 66
M  V30 71 1 31 67
M  V30 72 1 36 68
M  V30 73 1 39 69
M  V30 74 1 41 70
M  V30 75 1 41 71
M  V30 END BOND
M  V30 END CTAB
M  END
>  <Dataset>  (753) 
ChEMBL_Kinases

>  <Ligand_Instance>  (753) 
nan

>  <PDB_ID>  (753) 
nan

>  <Standardized_SMILES>  (753) 
CN1CCCC(COc2ccnc3ccc(C#CCNC(=O)c4cccn(Cc5ccc(F)c(F)c5)c4=O)cc23)C1

>  <Name>  (753) 
nan

>  <Pocket>  (753) 
nan

>  <ATP_Site>  (753) 
nan

>  <Peripheral>  (753) 
nan

>  <Num_H_Atoms_ProtBoundConf>  (753) 
nan

>  <Num_Resolved_Atoms>  (753) 
nan

>  <Num_Not_Resolved_Atoms>  (753) 
nan

$$$$
CHEMBL3689280
     RDKit          3D

  0  0  0  0  0  0  0  0  0  0999 V3000
M  V30 BEGIN CTAB
M  V30 COUNTS 67 71 0 0 0
M  V30 BEGIN ATOM
M  V30 1 C 2.728443 -2.011888 4.678031 0
M  V30 2 N 2.172978 -0.779360 4.114283 0
M  V30 3 C 2.885324 0.309084 4.712263 0
M  V30 4 C 3.171039 1.427569 3.730792 0
M  V30 5 C 4.006243 0.970280 2.553413 0
M  V30 6 O 3.467505 1.601669 1.413877 0
M  V30 7 C 4.158843 2.424699 0.545401 0
M  V30 8 C 5.463128 2.839352 0.531244 0
M  V30 9 C 5.942336 3.677050 -0.452180 0
M  V30 10 N 5.132671 4.113493 -1.433745 0
M  V30 11 C 3.826405 3.728348 -1.462587 0
M  V30 12 C 3.098397 4.240060 -2.515401 0
M  V30 13 C 1.768444 3.885623 -2.598541 0
M  V30 14 C 1.225885 3.049800 -1.645862 0
M  V30 15 C -0.170090 2.641091 -1.680895 0
M  V30 16 C -1.333340 2.317927 -1.701080 0
M  V30 17 C -2.751836 1.928173 -1.701087 0
M  V30 18 N -2.930486 0.580265 -1.157981 0
M  V30 19 C -2.287949 -0.477282 -1.807872 0
M  V30 20 O -1.632641 -0.022817 -2.808961 0
M  V30 21 C -2.299618 -1.874133 -1.483607 0
M  V30 22 C -1.555958 -2.716659 -2.319946 0
M  V30 23 N -1.489960 -4.042903 -2.118072 0
M  V30 24 C -2.135625 -4.636375 -1.099653 0
M  V30 25 N -2.861828 -3.867000 -0.271159 0
M  V30 26 C -3.573721 -4.468641 0.838826 0
M  V30 27 C -4.934659 -4.851655 0.382494 0
M  V30 28 C -5.065425 -6.136503 -0.157312 0
M  V30 29 C -6.277302 -6.608203 -0.614683 0
M  V30 30 C -7.417699 -5.835942 -0.561710 0
M  V30 31 F -8.602944 -6.296172 -1.008531 0
M  V30 32 C -7.287878 -4.559798 -0.025561 0
M  V30 33 F -8.372596 -3.748157 0.055468 0
M  V30 34 C -6.067343 -4.103388 0.427690 0
M  V30 35 C -2.935507 -2.542626 -0.462030 0
M  V30 36 O -3.608443 -1.824946 0.304852 0
M  V30 37 C 1.981701 2.566705 -0.621587 0
M  V30 38 C 3.318113 2.880094 -0.476986 0
M  V30 39 C 3.823029 -0.530621 2.317494 0
M  V30 40 C 2.391292 -0.857558 2.674809 0
M  V30 41 H 2.309407 -2.899807 4.138384 0
M  V30 42 H 2.474565 -2.139491 5.736422 0
M  V30 43 H 3.827151 -2.050938 4.532156 0
M  V30 44 H 2.204754 0.771135 5.477985 0
M  V30 45 H 3.797534 0.021202 5.268554 0
M  V30 46 H 3.809709 2.154091 4.284815 0
M  V30 47 H 2.255974 1.962500 3.447748 0
M  V30 48 H 5.056191 1.229710 2.648537 0
M  V30 49 H 6.036503 2.440071 1.355122 0
M  V30 50 H 6.992311 3.910771 -0.320751 0
M  V30 51 H 3.531983 4.889084 -3.249661 0
M  V30 52 H 1.141953 4.256839 -3.405846 0
M  V30 53 H -3.280981 2.607060 -0.992572 0
M  V30 54 H -3.223128 2.032075 -2.689850 0
M  V30 55 H -3.506132 0.367891 -0.319852 0
M  V30 56 H -1.002532 -2.316988 -3.168823 0
M  V30 57 H -2.119288 -5.695429 -0.888449 0
M  V30 58 H -3.035753 -5.379126 1.186032 0
M  V30 59 H -3.621166 -3.700328 1.639969 0
M  V30 60 H -4.211988 -6.785647 -0.225260 0
M  V30 61 H -6.329110 -7.608094 -1.023734 0
M  V30 62 H -5.969940 -3.117274 0.841917 0
M  V30 63 H 1.557816 1.914529 0.121514 0
M  V30 64 H 3.933702 -0.720041 1.238416 0
M  V30 65 H 4.560576 -1.124130 2.867947 0
M  V30 66 H 2.099448 -1.839294 2.274271 0
M  V30 67 H 1.752278 -0.069238 2.235872 0
M  V30 END ATOM
M  V30 BEGIN BOND
M  V30 1 1 1 2
M  V30 2 1 2 3
M  V30 3 1 3 4
M  V30 4 1 4 5
M  V30 5 1 5 6
M  V30 6 1 6 7
M  V30 7 2 7 8
M  V30 8 1 8 9
M  V30 9 2 9 10
M  V30 10 1 10 11
M  V30 11 2 11 12
M  V30 12 1 12 13
M  V30 13 2 13 14
M  V30 14 1 14 15
M  V30 15 3 15 16
M  V30 16 1 16 17
M  V30 17 1 17 18
M  V30 18 1 18 19
M  V30 19 2 19 20
M  V30 20 1 19 21
M  V30 21 2 21 22
M  V30 22 1 22 23
M  V30 23 2 23 24
M  V30 24 1 24 25
M  V30 25 1 25 26
M  V30 26 1 26 27
M  V30 27 2 27 28
M  V30 28 1 28 29
M  V30 29 2 29 30
M  V30 30 1 30 31
M  V30 31 1 30 32
M  V30 32 1 32 33
M  V30 33 2 32 34
M  V30 34 1 25 35
M  V30 35 2 35 36
M  V30 36 1 14 37
M  V30 37 2 37 38
M  V30 38 1 5 39
M  V30 39 1 39 40
M  V30 40 1 40 2
M  V30 41 1 38 7
M  V30 42 1 38 11
M  V30 43 1 35 21
M  V30 44 1 34 27
M  V30 45 1 1 41
M  V30 46 1 1 42
M  V30 47 1 1 43
M  V30 48 1 3 44
M  V30 49 1 3 45
M  V30 50 1 4 46
M  V30 51 1 4 47
M  V30 52 1 5 48
M  V30 53 1 8 49
M  V30 54 1 9 50
M  V30 55 1 12 51
M  V30 56 1 13 52
M  V30 57 1 17 53
M  V30 58 1 17 54
M  V30 59 1 18 55
M  V30 60 1 22 56
M  V30 61 1 24 57
M  V30 62 1 26 58
M  V30 63 1 26 59
M  V30 64 1 28 60
M  V30 65 1 29 61
M  V30 66 1 34 62
M  V30 67 1 37 63
M  V30 68 1 39 64
M  V30 69 1 39 65
M  V30 70 1 40 66
M  V30 71 1 40 67
M  V30 END BOND
M  V30 END CTAB
M  END
>  <Dataset>  (754) 
ChEMBL_Kinases

>  <Ligand_Instance>  (754) 
nan

>  <PDB_ID>  (754) 
nan

>  <Standardized_SMILES>  (754) 
CN1CCC(Oc2ccnc3ccc(C#CCNC(=O)c4cncn(Cc5ccc(F)c(F)c5)c4=O)cc23)CC1

>  <Name>  (754) 
nan

>  <Pocket>  (754) 
nan

>  <ATP_Site>  (754) 
nan

>  <Peripheral>  (754) 
nan

>  <Num_H_Atoms_ProtBoundConf>  (754) 
nan

>  <Num_Resolved_Atoms>  (754) 
nan

>  <Num_Not_Resolved_Atoms>  (754) 
nan

$$$$
CHEMBL3689272
     RDKit          3D

  0  0  0  0  0  0  0  0  0  0999 V3000
M  V30 BEGIN CTAB
M  V30 COUNTS 73 76 0 0 0
M  V30 BEGIN ATOM
M  V30 1 C 2.075146 -3.907878 1.538660 0
M  V30 2 N 2.336098 -3.640744 0.148854 0
M  V30 3 C 2.202752 -4.892966 -0.571581 0
M  V30 4 C 3.583191 -3.054351 -0.167770 0
M  V30 5 C 3.813277 -1.639211 0.247886 0
M  V30 6 C 3.724614 -1.441382 1.737376 0
M  V30 7 C 5.262868 -1.333987 -0.133849 0
M  V30 8 C 2.912373 -0.671649 -0.496320 0
M  V30 9 O 3.005034 0.630552 -0.210710 0
M  V30 10 C 3.716515 1.722588 -0.179393 0
M  V30 11 C 4.994626 2.100750 -0.513227 0
M  V30 12 C 5.571048 3.342345 -0.399874 0
M  V30 13 N 4.769319 4.289145 0.100577 0
M  V30 14 C 3.498064 4.081804 0.473328 0
M  V30 15 C 2.836736 5.170864 0.956055 0
M  V30 16 C 1.535184 5.013423 1.344436 0
M  V30 17 C 0.928128 3.782928 1.243147 0
M  V30 18 C -0.436153 3.543263 1.622693 0
M  V30 19 C -1.591806 3.327913 1.926707 0
M  V30 20 C -3.002066 3.040064 2.290312 0
M  V30 21 N -3.233564 1.664589 1.817582 0
M  V30 22 C -4.486406 1.061304 1.990620 0
M  V30 23 O -5.265517 1.889815 2.577436 0
M  V30 24 C -4.937799 -0.257926 1.613287 0
M  V30 25 C -6.268332 -0.569029 1.921243 0
M  V30 26 C -6.783522 -1.804239 1.594300 0
M  V30 27 C -6.048306 -2.783885 0.963151 0
M  V30 28 N -4.761745 -2.456346 0.676210 0
M  V30 29 C -3.952728 -3.459179 0.014474 0
M  V30 30 C -4.091249 -3.290729 -1.435917 0
M  V30 31 C -3.306666 -2.524891 -2.266870 0
M  V30 32 C -3.459610 -2.386706 -3.614821 0
M  V30 33 C -4.492474 -3.071197 -4.222152 0
M  V30 34 F -4.669692 -2.954074 -5.561703 0
M  V30 35 C -5.320093 -3.862161 -3.434109 0
M  V30 36 F -6.313357 -4.503309 -4.109938 0
M  V30 37 C -5.132997 -3.978709 -2.060216 0
M  V30 38 C -4.264309 -1.271791 0.988604 0
M  V30 39 O -3.082778 -1.032947 0.700568 0
M  V30 40 C 1.638618 2.713579 0.749721 0
M  V30 41 C 2.966430 2.793260 0.333768 0
M  V30 42 H 2.927084 -4.463119 2.017887 0
M  V30 43 H 1.241223 -4.683890 1.542635 0
M  V30 44 H 1.699085 -3.065690 2.118048 0
M  V30 45 H 3.103663 -5.529118 -0.386810 0
M  V30 46 H 2.124218 -4.772485 -1.656276 0
M  V30 47 H 1.304601 -5.400778 -0.130298 0
M  V30 48 H 3.878918 -3.185665 -1.239627 0
M  V30 49 H 4.368605 -3.660665 0.383122 0
M  V30 50 H 4.521675 -0.702141 2.075959 0
M  V30 51 H 2.767925 -0.959577 2.031730 0
M  V30 52 H 3.970957 -2.358553 2.300240 0
M  V30 53 H 5.865532 -2.258675 0.060556 0
M  V30 54 H 5.692929 -0.575864 0.553207 0
M  V30 55 H 5.369081 -1.092317 -1.196700 0
M  V30 56 H 3.091042 -0.816119 -1.615064 0
M  V30 57 H 1.854248 -1.093053 -0.396116 0
M  V30 58 H 5.605635 1.315725 -0.923227 0
M  V30 59 H 6.597265 3.487442 -0.706277 0
M  V30 60 H 3.304549 6.139680 1.039116 0
M  V30 61 H 0.930800 5.812753 1.737356 0
M  V30 62 H -3.639203 3.760892 1.731592 0
M  V30 63 H -3.141238 3.136042 3.367276 0
M  V30 64 H -2.490132 1.077040 1.337393 0
M  V30 65 H -6.935497 0.143720 2.423523 0
M  V30 66 H -7.816928 -2.014495 1.846721 0
M  V30 67 H -6.434699 -3.758073 0.698863 0
M  V30 68 H -2.870874 -3.277911 0.253531 0
M  V30 69 H -4.193447 -4.484049 0.362157 0
M  V30 70 H -2.495640 -1.987710 -1.799025 0
M  V30 71 H -2.763572 -1.741773 -4.170591 0
M  V30 72 H -5.834429 -4.617927 -1.557516 0
M  V30 73 H 1.168507 1.741832 0.667197 0
M  V30 END ATOM
M  V30 BEGIN BOND
M  V30 1 1 1 2
M  V30 2 1 2 3
M  V30 3 1 2 4
M  V30 4 1 4 5
M  V30 5 1 5 6
M  V30 6 1 5 7
M  V30 7 1 5 8
M  V30 8 1 8 9
M  V30 9 1 9 10
M  V30 10 2 10 11
M  V30 11 1 11 12
M  V30 12 2 12 13
M  V30 13 1 13 14
M  V30 14 2 14 15
M  V30 15 1 15 16
M  V30 16 2 16 17
M  V30 17 1 17 18
M  V30 18 3 18 19
M  V30 19 1 19 20
M  V30 20 1 20 21
M  V30 21 1 21 22
M  V30 22 2 22 23
M  V30 23 1 22 24
M  V30 24 2 24 25
M  V30 25 1 25 26
M  V30 26 2 26 27
M  V30 27 1 27 28
M  V30 28 1 28 29
M  V30 29 1 29 30
M  V30 30 2 30 31
M  V30 31 1 31 32
M  V30 32 2 32 33
M  V30 33 1 33 34
M  V30 34 1 33 35
M  V30 35 1 35 36
M  V30 36 2 35 37
M  V30 37 1 28 38
M  V30 38 2 38 39
M  V30 39 1 17 40
M  V30 40 2 40 41
M  V30 41 1 41 10
M  V30 42 1 41 14
M  V30 43 1 38 24
M  V30 44 1 37 30
M  V30 45 1 1 42
M  V30 46 1 1 43
M  V30 47 1 1 44
M  V30 48 1 3 45
M  V30 49 1 3 46
M  V30 50 1 3 47
M  V30 51 1 4 48
M  V30 52 1 4 49
M  V30 53 1 6 50
M  V30 54 1 6 51
M  V30 55 1 6 52
M  V30 56 1 7 53
M  V30 57 1 7 54
M  V30 58 1 7 55
M  V30 59 1 8 56
M  V30 60 1 8 57
M  V30 61 1 11 58
M  V30 62 1 12 59
M  V30 63 1 15 60
M  V30 64 1 16 61
M  V30 65 1 20 62
M  V30 66 1 20 63
M  V30 67 1 21 64
M  V30 68 1 25 65
M  V30 69 1 26 66
M  V30 70 1 27 67
M  V30 71 1 29 68
M  V30 72 1 29 69
M  V30 73 1 31 70
M  V30 74 1 32 71
M  V30 75 1 37 72
M  V30 76 1 40 73
M  V30 END BOND
M  V30 END CTAB
M  END
>  <Dataset>  (755) 
ChEMBL_Kinases

>  <Ligand_Instance>  (755) 
nan

>  <PDB_ID>  (755) 
nan

>  <Standardized_SMILES>  (755) 
CN(C)CC(C)(C)COc1ccnc2ccc(C#CCNC(=O)c3cccn(Cc4ccc(F)c(F)c4)c3=O)cc12

>  <Name>  (755) 
nan

>  <Pocket>  (755) 
nan

>  <ATP_Site>  (755) 
nan

>  <Peripheral>  (755) 
nan

>  <Num_H_Atoms_ProtBoundConf>  (755) 
nan

>  <Num_Resolved_Atoms>  (755) 
nan

>  <Num_Not_Resolved_Atoms>  (755) 
nan

$$$$
CHEMBL3689273
     RDKit          3D

  0  0  0  0  0  0  0  0  0  0999 V3000
M  V30 BEGIN CTAB
M  V30 COUNTS 67 70 0 0 0
M  V30 BEGIN ATOM
M  V30 1 C 1.761577 -7.651312 -1.676021 0
M  V30 2 N 3.205204 -7.719604 -1.807717 0
M  V30 3 C 3.487836 -9.067670 -2.288384 0
M  V30 4 C 3.709235 -6.719341 -2.727845 0
M  V30 5 C 3.542843 -5.338926 -2.182778 0
M  V30 6 O 4.184387 -5.096488 -0.990777 0
M  V30 7 C 3.921978 -4.262707 -3.155207 0
M  V30 8 O 3.531015 -3.010129 -2.663075 0
M  V30 9 C 3.725909 -1.793539 -3.299715 0
M  V30 10 C 4.333139 -1.538787 -4.528302 0
M  V30 11 C 4.418512 -0.235346 -4.971589 0
M  V30 12 N 3.929129 0.778388 -4.241479 0
M  V30 13 C 3.330552 0.567472 -3.038944 0
M  V30 14 C 2.874276 1.703563 -2.402804 0
M  V30 15 C 2.261226 1.514186 -1.181176 0
M  V30 16 C 2.121979 0.237465 -0.640145 0
M  V30 17 C 1.469702 0.056221 0.648936 0
M  V30 18 C 0.932053 -0.076949 1.723465 0
M  V30 19 C 0.296231 -0.222816 3.034942 0
M  V30 20 N -0.636683 0.849887 3.192046 0
M  V30 21 C -1.326681 0.822178 4.432610 0
M  V30 22 O -0.915999 -0.189721 5.100908 0
M  V30 23 C -2.335841 1.746567 4.927843 0
M  V30 24 C -2.822910 1.429590 6.202988 0
M  V30 25 N -3.759945 2.201201 6.777394 0
M  V30 26 C -4.273249 3.290918 6.184944 0
M  V30 27 N -3.808843 3.597951 4.962282 0
M  V30 28 C -4.349337 4.755551 4.325373 0
M  V30 29 C -5.534117 4.540153 3.499148 0
M  V30 30 C -6.752028 4.644176 4.162985 0
M  V30 31 C -7.956668 4.462760 3.486985 0
M  V30 32 C -7.920572 4.174334 2.128800 0
M  V30 33 F -9.086663 3.993995 1.452769 0
M  V30 34 C -6.697144 4.074462 1.484035 0
M  V30 35 F -6.684426 3.788507 0.143393 0
M  V30 36 C -5.481116 4.252599 2.143900 0
M  V30 37 C -2.885775 2.864518 4.360266 0
M  V30 38 O -2.446812 3.131378 3.236941 0
M  V30 39 C 2.605239 -0.847241 -1.339006 0
M  V30 40 C 3.229455 -0.734876 -2.565382 0
M  V30 41 H 1.441732 -6.861883 -0.967276 0
M  V30 42 H 1.259046 -7.573613 -2.669655 0
M  V30 43 H 1.436553 -8.619762 -1.241763 0
M  V30 44 H 2.775707 -9.804072 -1.859406 0
M  V30 45 H 3.329118 -9.028860 -3.394122 0
M  V30 46 H 4.511874 -9.393416 -2.031127 0
M  V30 47 H 3.066238 -6.793197 -3.641375 0
M  V30 48 H 4.740106 -6.984653 -3.007040 0
M  V30 49 H 2.441335 -5.206885 -1.994992 0
M  V30 50 H 4.154612 -4.108095 -0.848796 0
M  V30 51 H 3.624759 -4.462091 -4.203868 0
M  V30 52 H 5.049469 -4.246805 -3.189998 0
M  V30 53 H 4.686842 -2.435397 -5.020760 0
M  V30 54 H 4.904635 -0.098669 -5.941531 0
M  V30 55 H 2.985171 2.676629 -2.824319 0
M  V30 56 H 1.867502 2.337740 -0.598587 0
M  V30 57 H 1.061317 -0.238827 3.843731 0
M  V30 58 H -0.230674 -1.208947 3.122128 0
M  V30 59 H -0.870785 1.626817 2.536249 0
M  V30 60 H -2.540912 0.604873 6.836704 0
M  V30 61 H -5.027124 3.899079 6.665319 0
M  V30 62 H -3.543877 5.164216 3.648770 0
M  V30 63 H -4.498242 5.548534 5.105799 0
M  V30 64 H -6.836684 4.863022 5.199497 0
M  V30 65 H -8.936872 4.529986 3.942771 0
M  V30 66 H -4.535164 4.176323 1.647212 0
M  V30 67 H 2.498414 -1.834829 -0.921396 0
M  V30 END ATOM
M  V30 BEGIN BOND
M  V30 1 1 1 2
M  V30 2 1 2 3
M  V30 3 1 2 4
M  V30 4 1 4 5
M  V30 5 1 5 6
M  V30 6 1 5 7
M  V30 7 1 7 8
M  V30 8 1 8 9
M  V30 9 2 9 10
M  V30 10 1 10 11
M  V30 11 2 11 12
M  V30 12 1 12 13
M  V30 13 2 13 14
M  V30 14 1 14 15
M  V30 15 2 15 16
M  V30 16 1 16 17
M  V30 17 3 17 18
M  V30 18 1 18 19
M  V30 19 1 19 20
M  V30 20 1 20 21
M  V30 21 2 21 22
M  V30 22 1 21 23
M  V30 23 2 23 24
M  V30 24 1 24 25
M  V30 25 2 25 26
M  V30 26 1 26 27
M  V30 27 1 27 28
M  V30 28 1 28 29
M  V30 29 2 29 30
M  V30 30 1 30 31
M  V30 31 2 31 32
M  V30 32 1 32 33
M  V30 33 1 32 34
M  V30 34 1 34 35
M  V30 35 2 34 36
M  V30 36 1 27 37
M  V30 37 2 37 38
M  V30 38 1 16 39
M  V30 39 2 39 40
M  V30 40 1 40 9
M  V30 41 1 40 13
M  V30 42 1 37 23
M  V30 43 1 36 29
M  V30 44 1 1 41
M  V30 45 1 1 42
M  V30 46 1 1 43
M  V30 47 1 3 44
M  V30 48 1 3 45
M  V30 49 1 3 46
M  V30 50 1 4 47
M  V30 51 1 4 48
M  V30 52 1 5 49
M  V30 53 1 6 50
M  V30 54 1 7 51
M  V30 55 1 7 52
M  V30 56 1 10 53
M  V30 57 1 11 54
M  V30 58 1 14 55
M  V30 59 1 15 56
M  V30 60 1 19 57
M  V30 61 1 19 58
M  V30 62 1 20 59
M  V30 63 1 24 60
M  V30 64 1 26 61
M  V30 65 1 28 62
M  V30 66 1 28 63
M  V30 67 1 30 64
M  V30 68 1 31 65
M  V30 69 1 36 66
M  V30 70 1 39 67
M  V30 END BOND
M  V30 END CTAB
M  END
>  <Dataset>  (756) 
ChEMBL_Kinases

>  <Ligand_Instance>  (756) 
nan

>  <PDB_ID>  (756) 
nan

>  <Standardized_SMILES>  (756) 
CN(C)CC(O)COc1ccnc2ccc(C#CCNC(=O)c3cncn(Cc4ccc(F)c(F)c4)c3=O)cc12

>  <Name>  (756) 
nan

>  <Pocket>  (756) 
nan

>  <ATP_Site>  (756) 
nan

>  <Peripheral>  (756) 
nan

>  <Num_H_Atoms_ProtBoundConf>  (756) 
nan

>  <Num_Resolved_Atoms>  (756) 
nan

>  <Num_Not_Resolved_Atoms>  (756) 
nan

$$$$
CHEMBL3689274
     RDKit          3D

  0  0  0  0  0  0  0  0  0  0999 V3000
M  V30 BEGIN CTAB
M  V30 COUNTS 68 71 0 0 0
M  V30 BEGIN ATOM
M  V30 1 C 4.161638 -7.449617 -1.016841 0
M  V30 2 N 4.044416 -6.012799 -0.902484 0
M  V30 3 C 3.907827 -5.707726 0.525454 0
M  V30 4 C 2.866677 -5.486437 -1.550379 0
M  V30 5 C 2.972673 -5.635079 -3.075639 0
M  V30 6 O 3.092582 -7.029109 -3.277253 0
M  V30 7 C 1.643848 -5.238531 -3.660986 0
M  V30 8 O 1.319049 -3.899115 -3.583108 0
M  V30 9 C 1.934751 -2.802048 -4.122383 0
M  V30 10 C 3.043939 -2.629086 -4.913438 0
M  V30 11 C 3.491888 -1.407616 -5.349601 0
M  V30 12 N 2.830867 -0.298502 -5.001785 0
M  V30 13 C 1.728875 -0.391832 -4.224414 0
M  V30 14 C 1.146577 0.821629 -3.940969 0
M  V30 15 C 0.017025 0.827009 -3.152317 0
M  V30 16 C -0.478094 -0.371320 -2.684711 0
M  V30 17 C -1.653106 -0.306426 -1.866166 0
M  V30 18 C -2.648964 -0.230526 -1.167827 0
M  V30 19 C -3.846458 -0.130991 -0.297733 0
M  V30 20 N -3.382236 0.459534 0.941613 0
M  V30 21 C -4.303552 0.690441 1.998140 0
M  V30 22 O -5.458971 0.297009 1.612104 0
M  V30 23 C -4.052059 1.267297 3.312468 0
M  V30 24 C -5.193223 1.354278 4.121027 0
M  V30 25 C -5.107721 1.878352 5.388900 0
M  V30 26 C -3.930893 2.333967 5.920763 0
M  V30 27 N -2.856445 2.234529 5.116065 0
M  V30 28 C -1.587883 2.706218 5.633349 0
M  V30 29 C -1.472733 4.147871 5.291748 0
M  V30 30 C -2.021275 5.038398 6.212905 0
M  V30 31 C -1.933507 6.407022 5.934194 0
M  V30 32 C -1.333714 6.900413 4.799547 0
M  V30 33 F -1.257256 8.233955 4.544456 0
M  V30 34 C -0.795074 6.004637 3.896884 0
M  V30 35 F -0.188060 6.398694 2.759648 0
M  V30 36 C -0.868586 4.631947 4.149719 0
M  V30 37 C -2.900541 1.732592 3.881769 0
M  V30 38 O -1.904786 1.647888 3.155073 0
M  V30 39 C 0.142798 -1.559243 -2.998169 0
M  V30 40 C 1.270610 -1.624666 -3.779437 0
M  V30 41 H 3.149880 -7.886689 -1.113913 0
M  V30 42 H 4.592624 -7.841960 -0.050104 0
M  V30 43 H 4.827125 -7.707166 -1.869492 0
M  V30 44 H 3.251807 -4.823872 0.654426 0
M  V30 45 H 4.891490 -5.431749 0.957835 0
M  V30 46 H 3.525387 -6.591511 1.088515 0
M  V30 47 H 2.002313 -6.115701 -1.227838 0
M  V30 48 H 2.764332 -4.429248 -1.278619 0
M  V30 49 H 3.833585 -5.093365 -3.449548 0
M  V30 50 H 3.687423 -7.178944 -4.056509 0
M  V30 51 H 1.597715 -5.519678 -4.752325 0
M  V30 52 H 0.835962 -5.812982 -3.142482 0
M  V30 53 H 3.532742 -3.553026 -5.171823 0
M  V30 54 H 4.379830 -1.434445 -5.964953 0
M  V30 55 H 1.514414 1.760535 -4.293078 0
M  V30 56 H -0.467336 1.764045 -2.909614 0
M  V30 57 H -4.248292 -1.150040 -0.188227 0
M  V30 58 H -4.606590 0.518378 -0.741486 0
M  V30 59 H -2.385225 0.737783 1.121323 0
M  V30 60 H -6.169715 1.020210 3.791700 0
M  V30 61 H -5.995515 1.941018 6.001687 0
M  V30 62 H -3.871914 2.745094 6.919260 0
M  V30 63 H -0.733099 2.126941 5.223507 0
M  V30 64 H -1.581190 2.594017 6.750998 0
M  V30 65 H -2.523528 4.791129 7.149639 0
M  V30 66 H -2.351370 7.133994 6.632138 0
M  V30 67 H -0.444911 3.939057 3.442491 0
M  V30 68 H -0.266069 -2.485702 -2.618924 0
M  V30 END ATOM
M  V30 BEGIN BOND
M  V30 1 1 1 2
M  V30 2 1 2 3
M  V30 3 1 2 4
M  V30 4 1 4 5
M  V30 5 1 5 6
M  V30 6 1 5 7
M  V30 7 1 7 8
M  V30 8 1 8 9
M  V30 9 2 9 10
M  V30 10 1 10 11
M  V30 11 2 11 12
M  V30 12 1 12 13
M  V30 13 2 13 14
M  V30 14 1 14 15
M  V30 15 2 15 16
M  V30 16 1 16 17
M  V30 17 3 17 18
M  V30 18 1 18 19
M  V30 19 1 19 20
M  V30 20 1 20 21
M  V30 21 2 21 22
M  V30 22 1 21 23
M  V30 23 2 23 24
M  V30 24 1 24 25
M  V30 25 2 25 26
M  V30 26 1 26 27
M  V30 27 1 27 28
M  V30 28 1 28 29
M  V30 29 2 29 30
M  V30 30 1 30 31
M  V30 31 2 31 32
M  V30 32 1 32 33
M  V30 33 1 32 34
M  V30 34 1 34 35
M  V30 35 2 34 36
M  V30 36 1 27 37
M  V30 37 2 37 38
M  V30 38 1 16 39
M  V30 39 2 39 40
M  V30 40 1 40 9
M  V30 41 1 40 13
M  V30 42 1 37 23
M  V30 43 1 36 29
M  V30 44 1 1 41
M  V30 45 1 1 42
M  V30 46 1 1 43
M  V30 47 1 3 44
M  V30 48 1 3 45
M  V30 49 1 3 46
M  V30 50 1 4 47
M  V30 51 1 4 48
M  V30 52 1 5 49
M  V30 53 1 6 50
M  V30 54 1 7 51
M  V30 55 1 7 52
M  V30 56 1 10 53
M  V30 57 1 11 54
M  V30 58 1 14 55
M  V30 59 1 15 56
M  V30 60 1 19 57
M  V30 61 1 19 58
M  V30 62 1 20 59
M  V30 63 1 24 60
M  V30 64 1 25 61
M  V30 65 1 26 62
M  V30 66 1 28 63
M  V30 67 1 28 64
M  V30 68 1 30 65
M  V30 69 1 31 66
M  V30 70 1 36 67
M  V30 71 1 39 68
M  V30 END BOND
M  V30 END CTAB
M  END
>  <Dataset>  (757) 
ChEMBL_Kinases

>  <Ligand_Instance>  (757) 
nan

>  <PDB_ID>  (757) 
nan

>  <Standardized_SMILES>  (757) 
CN(C)CC(O)COc1ccnc2ccc(C#CCNC(=O)c3cccn(Cc4ccc(F)c(F)c4)c3=O)cc12

>  <Name>  (757) 
nan

>  <Pocket>  (757) 
nan

>  <ATP_Site>  (757) 
nan

>  <Peripheral>  (757) 
nan

>  <Num_H_Atoms_ProtBoundConf>  (757) 
nan

>  <Num_Resolved_Atoms>  (757) 
nan

>  <Num_Not_Resolved_Atoms>  (757) 
nan

$$$$
CHEMBL3689275
     RDKit          3D

  0  0  0  0  0  0  0  0  0  0999 V3000
M  V30 BEGIN CTAB
M  V30 COUNTS 64 68 0 0 0
M  V30 BEGIN ATOM
M  V30 1 C 5.025428 0.826132 5.173228 0
M  V30 2 N 3.681776 0.272104 4.976631 0
M  V30 3 C 3.733944 -0.936184 4.181067 0
M  V30 4 C 3.386011 -0.555106 2.786012 0
M  V30 5 C 2.682290 0.799801 2.862290 0
M  V30 6 O 3.332736 1.693332 2.128224 0
M  V30 7 C 3.471993 2.593607 1.200936 0
M  V30 8 C 4.806172 3.041419 1.199133 0
M  V30 9 C 5.255877 4.019954 0.299596 0
M  V30 10 N 4.369637 4.522111 -0.567809 0
M  V30 11 C 3.080117 4.173434 -0.657416 0
M  V30 12 C 2.150868 4.675499 -1.540339 0
M  V30 13 C 0.830863 4.209229 -1.513272 0
M  V30 14 C 0.436828 3.229668 -0.592308 0
M  V30 15 C -0.928396 2.750285 -0.568526 0
M  V30 16 C -2.061761 2.330042 -0.551081 0
M  V30 17 C -3.440778 1.794108 -0.519472 0
M  V30 18 N -3.463694 0.449678 -1.105445 0
M  V30 19 C -2.618007 -0.422447 -0.378918 0
M  V30 20 O -2.086928 0.240697 0.578911 0
M  V30 21 C -2.360324 -1.824744 -0.628551 0
M  V30 22 C -1.466478 -2.410093 0.278050 0
M  V30 23 N -1.124654 -3.703393 0.181453 0
M  V30 24 C -1.600484 -4.509692 -0.764560 0
M  V30 25 N -2.458898 -3.965260 -1.642580 0
M  V30 26 C -3.024405 -4.775003 -2.703946 0
M  V30 27 C -4.294066 -5.423768 -2.280126 0
M  V30 28 C -4.172812 -6.676676 -1.683202 0
M  V30 29 C -5.270223 -7.415259 -1.231050 0
M  V30 30 C -6.506989 -6.818972 -1.414035 0
M  V30 31 F -7.618351 -7.489811 -0.993402 0
M  V30 32 C -6.684941 -5.583803 -1.997512 0
M  V30 33 F -7.906431 -5.045289 -2.153665 0
M  V30 34 C -5.563738 -4.902995 -2.423716 0
M  V30 35 C -2.837457 -2.678668 -1.595981 0
M  V30 36 O -3.631026 -2.138167 -2.392383 0
M  V30 37 C 1.399486 2.757476 0.270243 0
M  V30 38 C 2.697225 3.212277 0.247507 0
M  V30 39 C 2.782976 1.166283 4.332980 0
M  V30 40 H 5.465511 0.417651 6.111412 0
M  V30 41 H 4.993636 1.932454 5.201836 0
M  V30 42 H 5.670376 0.459041 4.343120 0
M  V30 43 H 4.764528 -1.334987 4.248088 0
M  V30 44 H 2.967580 -1.666308 4.557093 0
M  V30 45 H 4.268978 -0.467676 2.137079 0
M  V30 46 H 2.722995 -1.303091 2.283167 0
M  V30 47 H 1.576115 0.622309 2.654270 0
M  V30 48 H 5.646915 2.736741 1.834995 0
M  V30 49 H 6.254317 4.422931 0.224403 0
M  V30 50 H 2.498590 5.423882 -2.226826 0
M  V30 51 H 0.123611 4.616452 -2.212456 0
M  V30 52 H -4.067082 2.481943 -1.104299 0
M  V30 53 H -3.788883 1.796435 0.515753 0
M  V30 54 H -3.976873 0.065638 -1.924355 0
M  V30 55 H -0.991505 -1.883901 1.106745 0
M  V30 56 H -1.310143 -5.543220 -0.819774 0
M  V30 57 H -2.274732 -5.544294 -2.957153 0
M  V30 58 H -3.262135 -4.159634 -3.597574 0
M  V30 59 H -3.208887 -7.156414 -1.533095 0
M  V30 60 H -5.169085 -8.375986 -0.774203 0
M  V30 61 H -5.639173 -3.947637 -2.880939 0
M  V30 62 H 1.035467 2.010886 0.949369 0
M  V30 63 H 3.109709 2.218341 4.404947 0
M  V30 64 H 1.797251 1.111260 4.795146 0
M  V30 END ATOM
M  V30 BEGIN BOND
M  V30 1 1 1 2
M  V30 2 1 2 3
M  V30 3 1 3 4
M  V30 4 1 4 5
M  V30 5 1 5 6
M  V30 6 1 6 7
M  V30 7 2 7 8
M  V30 8 1 8 9
M  V30 9 2 9 10
M  V30 10 1 10 11
M  V30 11 2 11 12
M  V30 12 1 12 13
M  V30 13 2 13 14
M  V30 14 1 14 15
M  V30 15 3 15 16
M  V30 16 1 16 17
M  V30 17 1 17 18
M  V30 18 1 18 19
M  V30 19 2 19 20
M  V30 20 1 19 21
M  V30 21 2 21 22
M  V30 22 1 22 23
M  V30 23 2 23 24
M  V30 24 1 24 25
M  V30 25 1 25 26
M  V30 26 1 26 27
M  V30 27 2 27 28
M  V30 28 1 28 29
M  V30 29 2 29 30
M  V30 30 1 30 31
M  V30 31 1 30 32
M  V30 32 1 32 33
M  V30 33 2 32 34
M  V30 34 1 25 35
M  V30 35 2 35 36
M  V30 36 1 14 37
M  V30 37 2 37 38
M  V30 38 1 5 39
M  V30 39 1 39 2
M  V30 40 1 38 7
M  V30 41 1 38 11
M  V30 42 1 35 21
M  V30 43 1 34 27
M  V30 44 1 1 40
M  V30 45 1 1 41
M  V30 46 1 1 42
M  V30 47 1 3 43
M  V30 48 1 3 44
M  V30 49 1 4 45
M  V30 50 1 4 46
M  V30 51 1 5 47
M  V30 52 1 8 48
M  V30 53 1 9 49
M  V30 54 1 12 50
M  V30 55 1 13 51
M  V30 56 1 17 52
M  V30 57 1 17 53
M  V30 58 1 18 54
M  V30 59 1 22 55
M  V30 60 1 24 56
M  V30 61 1 26 57
M  V30 62 1 26 58
M  V30 63 1 28 59
M  V30 64 1 29 60
M  V30 65 1 34 61
M  V30 66 1 37 62
M  V30 67 1 39 63
M  V30 68 1 39 64
M  V30 END BOND
M  V30 END CTAB
M  END
>  <Dataset>  (758) 
ChEMBL_Kinases

>  <Ligand_Instance>  (758) 
nan

>  <PDB_ID>  (758) 
nan

>  <Standardized_SMILES>  (758) 
CN1CCC(Oc2ccnc3ccc(C#CCNC(=O)c4cncn(Cc5ccc(F)c(F)c5)c4=O)cc23)C1

>  <Name>  (758) 
nan

>  <Pocket>  (758) 
nan

>  <ATP_Site>  (758) 
nan

>  <Peripheral>  (758) 
nan

>  <Num_H_Atoms_ProtBoundConf>  (758) 
nan

>  <Num_Resolved_Atoms>  (758) 
nan

>  <Num_Not_Resolved_Atoms>  (758) 
nan

$$$$
CHEMBL3689276
     RDKit          3D

  0  0  0  0  0  0  0  0  0  0999 V3000
M  V30 BEGIN CTAB
M  V30 COUNTS 65 69 0 0 0
M  V30 BEGIN ATOM
M  V30 1 C 3.885182 0.242072 4.945191 0
M  V30 2 N 2.438697 0.285470 5.099266 0
M  V30 3 C 1.828695 -0.828812 4.373261 0
M  V30 4 C 1.815795 -0.423539 2.937151 0
M  V30 5 C 1.830895 1.127319 2.973138 0
M  V30 6 O 2.853153 1.554523 2.261553 0
M  V30 7 C 3.492233 2.064284 1.249136 0
M  V30 8 C 4.857137 2.171037 1.566115 0
M  V30 9 C 5.788979 2.691213 0.652473 0
M  V30 10 N 5.324732 3.083558 -0.539800 0
M  V30 11 C 4.048723 3.024713 -0.939964 0
M  V30 12 C 3.603791 3.436409 -2.176332 0
M  V30 13 C 2.239697 3.321217 -2.478937 0
M  V30 14 C 1.362956 2.793066 -1.522531 0
M  V30 15 C -0.021660 2.694743 -1.876365 0
M  V30 16 C -1.215097 2.590039 -2.182975 0
M  V30 17 C -2.635418 2.439508 -2.555017 0
M  V30 18 N -2.864785 1.076055 -3.079551 0
M  V30 19 C -2.576203 0.111320 -2.166443 0
M  V30 20 O -2.169164 0.356140 -0.988624 0
M  V30 21 C -2.423653 -1.187605 -1.634587 0
M  V30 22 C -2.782856 -1.702693 -3.012015 0
M  V30 23 C -2.889196 -3.058214 -3.466035 0
M  V30 24 C -2.636745 -4.084210 -2.544722 0
M  V30 25 N -2.313568 -3.646901 -1.302642 0
M  V30 26 C -2.052077 -4.456017 -0.129345 0
M  V30 27 C -3.424627 -4.695606 0.465351 0
M  V30 28 C -4.075927 -5.804709 -0.019856 0
M  V30 29 C -5.353485 -6.198877 0.377155 0
M  V30 30 C -5.976299 -5.403512 1.317984 0
M  V30 31 F -7.233566 -5.664312 1.796301 0
M  V30 32 C -5.328308 -4.280661 1.817283 0
M  V30 33 F -5.846059 -3.427100 2.742141 0
M  V30 34 C -4.061518 -3.918900 1.401698 0
M  V30 35 C -2.284591 -2.372199 -1.149730 0
M  V30 36 O -1.985702 -1.810398 -0.014092 0
M  V30 37 C 1.822420 2.386393 -0.292392 0
M  V30 38 C 3.163488 2.509017 -0.018203 0
M  V30 39 C 1.892359 1.472621 4.462691 0
M  V30 40 H 4.374477 -0.274790 5.776162 0
M  V30 41 H 4.323696 1.253395 4.741787 0
M  V30 42 H 4.083886 -0.369459 4.041457 0
M  V30 43 H 2.393119 -1.770272 4.503367 0
M  V30 44 H 0.799580 -1.024098 4.699954 0
M  V30 45 H 2.707417 -0.815550 2.422695 0
M  V30 46 H 0.918080 -0.793211 2.392991 0
M  V30 47 H 0.815428 1.442603 2.584336 0
M  V30 48 H 5.382767 1.896729 2.487067 0
M  V30 49 H 6.848808 2.805692 0.819957 0
M  V30 50 H 4.371110 3.823950 -2.823683 0
M  V30 51 H 1.956416 3.659893 -3.460893 0
M  V30 52 H -2.789607 3.153218 -3.386354 0
M  V30 53 H -3.300310 2.575778 -1.702053 0
M  V30 54 H -3.175257 0.534715 -3.904773 0
M  V30 55 H -3.062964 -1.353445 -4.064250 0
M  V30 56 H -3.124640 -3.627700 -4.377832 0
M  V30 57 H -2.631706 -5.160479 -2.564338 0
M  V30 58 H -1.596830 -5.407346 -0.451343 0
M  V30 59 H -1.444469 -3.966166 0.639757 0
M  V30 60 H -3.652491 -6.490953 -0.769735 0
M  V30 61 H -5.861999 -7.070727 -0.006786 0
M  V30 62 H -3.536818 -3.060382 1.775754 0
M  V30 63 H 1.108131 1.987574 0.398251 0
M  V30 64 H 2.457221 2.389092 4.649010 0
M  V30 65 H 0.857461 1.587678 4.836557 0
M  V30 END ATOM
M  V30 BEGIN BOND
M  V30 1 1 1 2
M  V30 2 1 2 3
M  V30 3 1 3 4
M  V30 4 1 4 5
M  V30 5 1 5 6
M  V30 6 1 6 7
M  V30 7 2 7 8
M  V30 8 1 8 9
M  V30 9 2 9 10
M  V30 10 1 10 11
M  V30 11 2 11 12
M  V30 12 1 12 13
M  V30 13 2 13 14
M  V30 14 1 14 15
M  V30 15 3 15 16
M  V30 16 1 16 17
M  V30 17 1 17 18
M  V30 18 1 18 19
M  V30 19 2 19 20
M  V30 20 1 19 21
M  V30 21 2 21 22
M  V30 22 1 22 23
M  V30 23 2 23 24
M  V30 24 1 24 25
M  V30 25 1 25 26
M  V30 26 1 26 27
M  V30 27 2 27 28
M  V30 28 1 28 29
M  V30 29 2 29 30
M  V30 30 1 30 31
M  V30 31 1 30 32
M  V30 32 1 32 33
M  V30 33 2 32 34
M  V30 34 1 25 35
M  V30 35 2 35 36
M  V30 36 1 14 37
M  V30 37 2 37 38
M  V30 38 1 5 39
M  V30 39 1 39 2
M  V30 40 1 38 7
M  V30 41 1 38 11
M  V30 42 1 35 21
M  V30 43 1 34 27
M  V30 44 1 1 40
M  V30 45 1 1 41
M  V30 46 1 1 42
M  V30 47 1 3 43
M  V30 48 1 3 44
M  V30 49 1 4 45
M  V30 50 1 4 46
M  V30 51 1 5 47
M  V30 52 1 8 48
M  V30 53 1 9 49
M  V30 54 1 12 50
M  V30 55 1 13 51
M  V30 56 1 17 52
M  V30 57 1 17 53
M  V30 58 1 18 54
M  V30 59 1 22 55
M  V30 60 1 23 56
M  V30 61 1 24 57
M  V30 62 1 26 58
M  V30 63 1 26 59
M  V30 64 1 28 60
M  V30 65 1 29 61
M  V30 66 1 34 62
M  V30 67 1 37 63
M  V30 68 1 39 64
M  V30 69 1 39 65
M  V30 END BOND
M  V30 END CTAB
M  END
>  <Dataset>  (759) 
ChEMBL_Kinases

>  <Ligand_Instance>  (759) 
nan

>  <PDB_ID>  (759) 
nan

>  <Standardized_SMILES>  (759) 
CN1CCC(Oc2ccnc3ccc(C#CCNC(=O)c4cccn(Cc5ccc(F)c(F)c5)c4=O)cc23)C1

>  <Name>  (759) 
nan

>  <Pocket>  (759) 
nan

>  <ATP_Site>  (759) 
nan

>  <Peripheral>  (759) 
nan

>  <Num_H_Atoms_ProtBoundConf>  (759) 
nan

>  <Num_Resolved_Atoms>  (759) 
nan

>  <Num_Not_Resolved_Atoms>  (759) 
nan

$$$$
CHEMBL3689277
     RDKit          3D

  0  0  0  0  0  0  0  0  0  0999 V3000
M  V30 BEGIN CTAB
M  V30 COUNTS 66 70 0 0 0
M  V30 BEGIN ATOM
M  V30 1 O 0.851451 -2.723513 2.287305 0
M  V30 2 C 0.770286 -3.930626 2.726299 0
M  V30 3 N 1.849498 -4.732701 2.854342 0
M  V30 4 C 3.117399 -4.090673 2.452634 0
M  V30 5 C 3.064438 -3.632125 1.059610 0
M  V30 6 C 3.013310 -3.232764 -0.088390 0
M  V30 7 C 2.952228 -2.738664 -1.436204 0
M  V30 8 C 2.968915 -3.532563 -2.560145 0
M  V30 9 C 2.904361 -2.962847 -3.808901 0
M  V30 10 C 2.823272 -1.591174 -3.888265 0
M  V30 11 N 2.764398 -1.099056 -5.137626 0
M  V30 12 C 2.684024 0.211959 -5.414366 0
M  V30 13 C 2.663927 1.036478 -4.312877 0
M  V30 14 C 2.716899 0.671429 -2.989237 0
M  V30 15 O 2.710771 1.291878 -1.815988 0
M  V30 16 C 2.645803 2.537193 -1.286399 0
M  V30 17 C 1.432395 3.371239 -1.525634 0
M  V30 18 C 0.206952 2.811375 -0.821900 0
M  V30 19 C -0.806515 2.500161 -1.901719 0
M  V30 20 C -1.210711 3.851441 -2.496283 0
M  V30 21 C 0.092168 4.511165 -2.956603 0
M  V30 22 O 1.177538 3.650991 -2.852088 0
M  V30 23 C 2.801405 -0.716873 -2.790087 0
M  V30 24 C 2.870558 -1.371594 -1.575628 0
M  V30 25 C -0.572368 -3.491171 2.764424 0
M  V30 26 C -0.890941 -4.835722 3.351880 0
M  V30 27 N -2.107817 -5.380922 3.762923 0
M  V30 28 C -3.240323 -4.618849 3.638695 0
M  V30 29 N -3.030365 -3.401902 3.119345 0
M  V30 30 C -4.019756 -2.385051 2.860116 0
M  V30 31 C -4.214171 -1.452815 4.016332 0
M  V30 32 C -5.099434 -1.806223 5.050311 0
M  V30 33 C -5.223553 -0.886007 6.068700 0
M  V30 34 C -4.562177 0.317236 6.145137 0
M  V30 35 F -4.728910 1.187613 7.181235 0
M  V30 36 C -3.687356 0.658790 5.118312 0
M  V30 37 F -3.016630 1.837832 5.154965 0
M  V30 38 C -3.537117 -0.234809 4.081580 0
M  V30 39 C -1.795448 -3.098076 2.801792 0
M  V30 40 O -1.394125 -1.958428 2.282382 0
M  V30 41 H 1.420222 -5.602067 3.219118 0
M  V30 42 H 3.907987 -4.863956 2.560292 0
M  V30 43 H 3.272085 -3.246232 3.145278 0
M  V30 44 H 3.034289 -4.589332 -2.399683 0
M  V30 45 H 2.918224 -3.588595 -4.681847 0
M  V30 46 H 2.636748 0.674821 -6.385698 0
M  V30 47 H 2.612083 2.101330 -4.460729 0
M  V30 48 H 3.536945 3.171719 -1.585598 0
M  V30 49 H 2.808997 2.452086 -0.158791 0
M  V30 50 H 1.640924 4.370191 -1.034520 0
M  V30 51 H -0.255306 3.547317 -0.136643 0
M  V30 52 H 0.460291 1.900351 -0.234688 0
M  V30 53 H -1.685894 1.937275 -1.548045 0
M  V30 54 H -0.291025 1.961637 -2.731746 0
M  V30 55 H -1.710391 4.431821 -1.693256 0
M  V30 56 H -1.888006 3.714702 -3.367271 0
M  V30 57 H 0.260162 5.455823 -2.369962 0
M  V30 58 H -0.025996 4.794768 -4.020848 0
M  V30 59 H 2.855447 -0.715953 -0.694968 0
M  V30 60 H -0.430589 -5.845161 3.683664 0
M  V30 61 H -4.290365 -4.718686 3.842130 0
M  V30 62 H -5.016067 -2.858307 2.673281 0
M  V30 63 H -3.775293 -1.826634 1.952207 0
M  V30 64 H -5.633494 -2.731253 5.028903 0
M  V30 65 H -5.890772 -1.122879 6.871082 0
M  V30 66 H -2.858700 0.079283 3.325597 0
M  V30 END ATOM
M  V30 BEGIN BOND
M  V30 1 2 1 2
M  V30 2 1 2 3
M  V30 3 1 3 4
M  V30 4 1 4 5
M  V30 5 3 5 6
M  V30 6 1 6 7
M  V30 7 2 7 8
M  V30 8 1 8 9
M  V30 9 2 9 10
M  V30 10 1 10 11
M  V30 11 2 11 12
M  V30 12 1 12 13
M  V30 13 2 13 14
M  V30 14 1 14 15
M  V30 15 1 15 16
M  V30 16 1 16 17
M  V30 17 1 17 18
M  V30 18 1 18 19
M  V30 19 1 19 20
M  V30 20 1 20 21
M  V30 21 1 21 22
M  V30 22 1 14 23
M  V30 23 2 23 24
M  V30 24 1 2 25
M  V30 25 2 25 26
M  V30 26 1 26 27
M  V30 27 2 27 28
M  V30 28 1 28 29
M  V30 29 1 29 30
M  V30 30 1 30 31
M  V30 31 2 31 32
M  V30 32 1 32 33
M  V30 33 2 33 34
M  V30 34 1 34 35
M  V30 35 1 34 36
M  V30 36 1 36 37
M  V30 37 2 36 38
M  V30 38 1 29 39
M  V30 39 2 39 40
M  V30 40 1 24 7
M  V30 41 1 39 25
M  V30 42 1 23 10
M  V30 43 1 38 31
M  V30 44 1 22 17
M  V30 45 1 3 41
M  V30 46 1 4 42
M  V30 47 1 4 43
M  V30 48 1 8 44
M  V30 49 1 9 45
M  V30 50 1 12 46
M  V30 51 1 13 47
M  V30 52 1 16 48
M  V30 53 1 16 49
M  V30 54 1 17 50
M  V30 55 1 18 51
M  V30 56 1 18 52
M  V30 57 1 19 53
M  V30 58 1 19 54
M  V30 59 1 20 55
M  V30 60 1 20 56
M  V30 61 1 21 57
M  V30 62 1 21 58
M  V30 63 1 24 59
M  V30 64 1 26 60
M  V30 65 1 28 61
M  V30 66 1 30 62
M  V30 67 1 30 63
M  V30 68 1 32 64
M  V30 69 1 33 65
M  V30 70 1 38 66
M  V30 END BOND
M  V30 END CTAB
M  END
>  <Dataset>  (760) 
ChEMBL_Kinases

>  <Ligand_Instance>  (760) 
nan

>  <PDB_ID>  (760) 
nan

>  <Standardized_SMILES>  (760) 
O=C(NCC#Cc1ccc2nccc(OCC3CCCCO3)c2c1)c1cncn(Cc2ccc(F)c(F)c2)c1=O

>  <Name>  (760) 
nan

>  <Pocket>  (760) 
nan

>  <ATP_Site>  (760) 
nan

>  <Peripheral>  (760) 
nan

>  <Num_H_Atoms_ProtBoundConf>  (760) 
nan

>  <Num_Resolved_Atoms>  (760) 
nan

>  <Num_Not_Resolved_Atoms>  (760) 
nan

$$$$
CHEMBL3689278
     RDKit          3D

  0  0  0  0  0  0  0  0  0  0999 V3000
M  V30 BEGIN CTAB
M  V30 COUNTS 67 71 0 0 0
M  V30 BEGIN ATOM
M  V30 1 O 2.948365 -4.051963 4.461013 0
M  V30 2 C 2.207107 -3.060697 4.146537 0
M  V30 3 N 2.463742 -2.666553 2.810986 0
M  V30 4 C 3.433401 -3.296966 1.917864 0
M  V30 5 C 3.404521 -2.624346 0.593905 0
M  V30 6 C 3.359759 -2.077820 -0.489613 0
M  V30 7 C 3.282023 -1.435740 -1.772241 0
M  V30 8 C 4.327059 -0.805965 -2.404565 0
M  V30 9 C 4.154336 -0.222324 -3.632761 0
M  V30 10 C 2.904685 -0.287772 -4.208708 0
M  V30 11 N 2.788913 0.292759 -5.404147 0
M  V30 12 C 1.655526 0.327844 -6.114573 0
M  V30 13 C 0.579636 -0.288994 -5.524453 0
M  V30 14 C 0.545752 -0.923255 -4.308560 0
M  V30 15 O -0.338916 -1.569336 -3.553873 0
M  V30 16 C -1.634326 -1.953385 -3.516985 0
M  V30 17 C -2.565006 -0.765332 -3.512777 0
M  V30 18 C -3.935654 -1.221813 -3.071748 0
M  V30 19 C -4.601060 -1.836626 -4.273374 0
M  V30 20 C -4.582673 -0.911414 -5.466496 0
M  V30 21 C -3.692037 0.278184 -5.265046 0
M  V30 22 O -2.525976 0.051907 -4.580627 0
M  V30 23 C 1.783542 -0.905565 -3.642444 0
M  V30 24 C 2.068536 -1.465313 -2.397192 0
M  V30 25 C 1.262084 -2.474232 5.069776 0
M  V30 26 C 1.201861 -3.072896 6.335315 0
M  V30 27 C 0.336924 -2.613481 7.303604 0
M  V30 28 C -0.504585 -1.548343 7.070530 0
M  V30 29 N -0.449110 -0.973391 5.859138 0
M  V30 30 C -1.294994 0.153618 5.518277 0
M  V30 31 C -0.678602 1.464255 5.843470 0
M  V30 32 C 0.107328 2.243300 5.027088 0
M  V30 33 C 0.585660 3.429943 5.517904 0
M  V30 34 C 0.340419 3.912214 6.777627 0
M  V30 35 F 0.821366 5.084969 7.245040 0
M  V30 36 C -0.456284 3.146273 7.638009 0
M  V30 37 F -0.749266 3.545164 8.896106 0
M  V30 38 C -0.939716 1.936154 7.127304 0
M  V30 39 C 0.393096 -1.420227 4.916139 0
M  V30 40 O 0.429586 -0.869639 3.792149 0
M  V30 41 H 1.921723 -1.864961 2.424937 0
M  V30 42 H 4.457226 -3.210826 2.327467 0
M  V30 43 H 3.236874 -4.370340 1.754300 0
M  V30 44 H 5.266436 -0.803907 -1.880057 0
M  V30 45 H 4.975862 0.262029 -4.110853 0
M  V30 46 H 1.506578 0.775699 -7.068729 0
M  V30 47 H -0.363946 -0.318176 -6.039623 0
M  V30 48 H -1.888161 -2.518498 -2.556320 0
M  V30 49 H -1.930308 -2.692909 -4.309290 0
M  V30 50 H -2.193629 -0.144870 -2.630183 0
M  V30 51 H -4.531143 -0.451529 -2.584327 0
M  V30 52 H -3.781513 -2.028524 -2.323274 0
M  V30 53 H -5.631287 -2.130172 -3.971633 0
M  V30 54 H -4.066691 -2.765701 -4.562254 0
M  V30 55 H -5.625458 -0.526872 -5.554108 0
M  V30 56 H -4.358074 -1.413003 -6.426544 0
M  V30 57 H -3.437221 0.655218 -6.277692 0
M  V30 58 H -4.231671 1.115529 -4.754191 0
M  V30 59 H 1.208535 -1.962359 -1.918160 0
M  V30 60 H 1.827521 -3.914876 6.604620 0
M  V30 61 H 0.280503 -3.064046 8.282721 0
M  V30 62 H -1.214455 -1.114768 7.759065 0
M  V30 63 H -2.266942 0.033593 6.030973 0
M  V30 64 H -1.530688 0.153149 4.412892 0
M  V30 65 H 0.293070 1.856518 4.036109 0
M  V30 66 H 1.209387 4.050472 4.877153 0
M  V30 67 H -1.558788 1.370718 7.834179 0
M  V30 END ATOM
M  V30 BEGIN BOND
M  V30 1 2 1 2
M  V30 2 1 2 3
M  V30 3 1 3 4
M  V30 4 1 4 5
M  V30 5 3 5 6
M  V30 6 1 6 7
M  V30 7 2 7 8
M  V30 8 1 8 9
M  V30 9 2 9 10
M  V30 10 1 10 11
M  V30 11 2 11 12
M  V30 12 1 12 13
M  V30 13 2 13 14
M  V30 14 1 14 15
M  V30 15 1 15 16
M  V30 16 1 16 17
M  V30 17 1 17 18
M  V30 18 1 18 19
M  V30 19 1 19 20
M  V30 20 1 20 21
M  V30 21 1 21 22
M  V30 22 1 14 23
M  V30 23 2 23 24
M  V30 24 1 2 25
M  V30 25 2 25 26
M  V30 26 1 26 27
M  V30 27 2 27 28
M  V30 28 1 28 29
M  V30 29 1 29 30
M  V30 30 1 30 31
M  V30 31 2 31 32
M  V30 32 1 32 33
M  V30 33 2 33 34
M  V30 34 1 34 35
M  V30 35 1 34 36
M  V30 36 1 36 37
M  V30 37 2 36 38
M  V30 38 1 29 39
M  V30 39 2 39 40
M  V30 40 1 24 7
M  V30 41 1 39 25
M  V30 42 1 23 10
M  V30 43 1 38 31
M  V30 44 1 22 17
M  V30 45 1 3 41
M  V30 46 1 4 42
M  V30 47 1 4 43
M  V30 48 1 8 44
M  V30 49 1 9 45
M  V30 50 1 12 46
M  V30 51 1 13 47
M  V30 52 1 16 48
M  V30 53 1 16 49
M  V30 54 1 17 50
M  V30 55 1 18 51
M  V30 56 1 18 52
M  V30 57 1 19 53
M  V30 58 1 19 54
M  V30 59 1 20 55
M  V30 60 1 20 56
M  V30 61 1 21 57
M  V30 62 1 21 58
M  V30 63 1 24 59
M  V30 64 1 26 60
M  V30 65 1 27 61
M  V30 66 1 28 62
M  V30 67 1 30 63
M  V30 68 1 30 64
M  V30 69 1 32 65
M  V30 70 1 33 66
M  V30 71 1 38 67
M  V30 END BOND
M  V30 END CTAB
M  END
>  <Dataset>  (761) 
ChEMBL_Kinases

>  <Ligand_Instance>  (761) 
nan

>  <PDB_ID>  (761) 
nan

>  <Standardized_SMILES>  (761) 
O=C(NCC#Cc1ccc2nccc(OCC3CCCCO3)c2c1)c1cccn(Cc2ccc(F)c(F)c2)c1=O

>  <Name>  (761) 
nan

>  <Pocket>  (761) 
nan

>  <ATP_Site>  (761) 
nan

>  <Peripheral>  (761) 
nan

>  <Num_H_Atoms_ProtBoundConf>  (761) 
nan

>  <Num_Resolved_Atoms>  (761) 
nan

>  <Num_Not_Resolved_Atoms>  (761) 
nan

$$$$
CHEMBL3689279
     RDKit          3D

  0  0  0  0  0  0  0  0  0  0999 V3000
M  V30 BEGIN CTAB
M  V30 COUNTS 66 69 0 0 0
M  V30 BEGIN ATOM
M  V30 1 C 5.938403 -1.253858 4.783594 0
M  V30 2 O 4.755522 -0.637612 4.408398 0
M  V30 3 C 3.947664 -1.372480 3.612486 0
M  V30 4 C 2.584541 -1.715898 4.192423 0
M  V30 5 C 3.715549 -0.698877 2.298016 0
M  V30 6 C 4.976126 -0.505189 1.458243 0
M  V30 7 O 4.722738 0.089865 0.284108 0
M  V30 8 C 5.036394 0.529837 -0.896588 0
M  V30 9 C 6.144667 0.512223 -1.696785 0
M  V30 10 C 6.182514 1.068497 -2.970633 0
M  V30 11 N 5.083196 1.642316 -3.421626 0
M  V30 12 C 3.909672 1.743930 -2.762110 0
M  V30 13 C 2.803011 2.372255 -3.274136 0
M  V30 14 C 1.634555 2.482726 -2.550478 0
M  V30 15 C 1.540696 1.961843 -1.294238 0
M  V30 16 C 0.408707 1.993010 -0.377500 0
M  V30 17 C -0.511689 1.998655 0.356846 0
M  V30 18 C -1.631948 1.994656 1.284489 0
M  V30 19 N -2.486517 0.823329 1.196474 0
M  V30 20 C -1.887410 -0.455376 1.446606 0
M  V30 21 O -0.722694 -0.224199 1.660901 0
M  V30 22 C -2.854530 -1.485195 1.348367 0
M  V30 23 C -2.159651 -2.786820 1.386364 0
M  V30 24 C -2.860265 -4.061611 1.271412 0
M  V30 25 C -4.278385 -4.012695 1.109870 0
M  V30 26 N -5.059469 -2.890187 1.051368 0
M  V30 27 C -6.319633 -2.239256 0.837358 0
M  V30 28 C -6.562375 -1.924815 -0.575317 0
M  V30 29 C -7.909798 -2.296153 -1.144001 0
M  V30 30 C -7.754508 -1.832360 -2.385595 0
M  V30 31 C -7.225628 -1.272589 -3.439180 0
M  V30 32 F -7.476179 -0.974939 -4.690475 0
M  V30 33 C -5.899922 -0.931166 -2.817291 0
M  V30 34 F -4.953708 -0.318562 -3.544237 0
M  V30 35 C -5.792677 -1.308523 -1.516680 0
M  V30 36 C -3.961171 -2.192090 1.199247 0
M  V30 37 O -4.489910 -0.896106 1.244751 0
M  V30 38 C 2.682471 1.333435 -0.829015 0
M  V30 39 C 3.918579 1.171552 -1.482135 0
M  V30 40 H 6.583504 -1.510994 3.922494 0
M  V30 41 H 5.668013 -2.148125 5.408905 0
M  V30 42 H 6.517456 -0.610954 5.488974 0
M  V30 43 H 4.507646 -2.347310 3.389497 0
M  V30 44 H 2.128567 -0.865496 4.693076 0
M  V30 45 H 1.957912 -2.092025 3.318546 0
M  V30 46 H 2.636965 -2.594437 4.883183 0
M  V30 47 H 3.280241 0.307840 2.496500 0
M  V30 48 H 3.015910 -1.229297 1.638301 0
M  V30 49 H 5.600043 0.221019 2.081458 0
M  V30 50 H 5.477558 -1.466844 1.384916 0
M  V30 51 H 6.977866 0.014234 -1.228196 0
M  V30 52 H 7.071068 1.032690 -3.576117 0
M  V30 53 H 2.868257 2.789559 -4.277467 0
M  V30 54 H 0.737093 2.963947 -2.902870 0
M  V30 55 H -1.239453 2.059880 2.359898 0
M  V30 56 H -2.263825 2.890143 1.158652 0
M  V30 57 H -3.483395 1.049246 0.918608 0
M  V30 58 H -1.072223 -3.094048 1.495513 0
M  V30 59 H -2.460998 -5.077806 1.302192 0
M  V30 60 H -4.990630 -4.864079 1.019234 0
M  V30 61 H -7.106357 -3.038302 1.145057 0
M  V30 62 H -6.499419 -1.381706 1.487731 0
M  V30 63 H -8.622299 -2.779214 -0.565700 0
M  V30 64 H -8.810390 -2.122016 -2.842124 0
M  V30 65 H -4.765199 -1.001445 -1.204294 0
M  V30 66 H 2.655934 0.889666 0.157965 0
M  V30 END ATOM
M  V30 BEGIN BOND
M  V30 1 1 1 2
M  V30 2 1 2 3
M  V30 3 1 3 4
M  V30 4 1 3 5
M  V30 5 1 5 6
M  V30 6 1 6 7
M  V30 7 1 7 8
M  V30 8 2 8 9
M  V30 9 1 9 10
M  V30 10 2 10 11
M  V30 11 1 11 12
M  V30 12 2 12 13
M  V30 13 1 13 14
M  V30 14 2 14 15
M  V30 15 1 15 16
M  V30 16 3 16 17
M  V30 17 1 17 18
M  V30 18 1 18 19
M  V30 19 1 19 20
M  V30 20 2 20 21
M  V30 21 1 20 22
M  V30 22 2 22 23
M  V30 23 1 23 24
M  V30 24 2 24 25
M  V30 25 1 25 26
M  V30 26 1 26 27
M  V30 27 1 27 28
M  V30 28 2 28 29
M  V30 29 1 29 30
M  V30 30 2 30 31
M  V30 31 1 31 32
M  V30 32 1 31 33
M  V30 33 1 33 34
M  V30 34 2 33 35
M  V30 35 1 26 36
M  V30 36 2 36 37
M  V30 37 1 15 38
M  V30 38 2 38 39
M  V30 39 1 39 8
M  V30 40 1 39 12
M  V30 41 1 36 22
M  V30 42 1 35 28
M  V30 43 1 1 40
M  V30 44 1 1 41
M  V30 45 1 1 42
M  V30 46 1 3 43
M  V30 47 1 4 44
M  V30 48 1 4 45
M  V30 49 1 4 46
M  V30 50 1 5 47
M  V30 51 1 5 48
M  V30 52 1 6 49
M  V30 53 1 6 50
M  V30 54 1 9 51
M  V30 55 1 10 52
M  V30 56 1 13 53
M  V30 57 1 14 54
M  V30 58 1 18 55
M  V30 59 1 18 56
M  V30 60 1 19 57
M  V30 61 1 23 58
M  V30 62 1 24 59
M  V30 63 1 25 60
M  V30 64 1 27 61
M  V30 65 1 27 62
M  V30 66 1 29 63
M  V30 67 1 30 64
M  V30 68 1 35 65
M  V30 69 1 38 66
M  V30 END BOND
M  V30 END CTAB
M  END
>  <Dataset>  (762) 
ChEMBL_Kinases

>  <Ligand_Instance>  (762) 
nan

>  <PDB_ID>  (762) 
nan

>  <Standardized_SMILES>  (762) 
COC(C)CCOc1ccnc2ccc(C#CCNC(=O)c3cccn(Cc4ccc(F)c(F)c4)c3=O)cc12

>  <Name>  (762) 
nan

>  <Pocket>  (762) 
nan

>  <ATP_Site>  (762) 
nan

>  <Peripheral>  (762) 
nan

>  <Num_H_Atoms_ProtBoundConf>  (762) 
nan

>  <Num_Resolved_Atoms>  (762) 
nan

>  <Num_Not_Resolved_Atoms>  (762) 
nan

$$$$
CHEMBL3689271
     RDKit          3D

  0  0  0  0  0  0  0  0  0  0999 V3000
M  V30 BEGIN CTAB
M  V30 COUNTS 72 75 0 0 0
M  V30 BEGIN ATOM
M  V30 1 C 2.415705 -1.739801 3.047440 0
M  V30 2 N 3.005322 -2.879325 2.429258 0
M  V30 3 C 2.697549 -4.060015 3.210013 0
M  V30 4 C 2.828079 -3.127609 1.069472 0
M  V30 5 C 3.471328 -2.301308 0.024953 0
M  V30 6 C 5.000488 -2.324970 0.153463 0
M  V30 7 C 3.265821 -3.165656 -1.282894 0
M  V30 8 C 2.900743 -0.995150 -0.338995 0
M  V30 9 O 2.780542 0.038042 0.523186 0
M  V30 10 C 3.559202 0.850599 1.244357 0
M  V30 11 C 4.902483 1.028133 1.445581 0
M  V30 12 C 5.517303 1.942749 2.245913 0
M  V30 13 N 4.698741 2.768943 2.916904 0
M  V30 14 C 3.369466 2.706041 2.813165 0
M  V30 15 C 2.679592 3.622550 3.565658 0
M  V30 16 C 1.307599 3.610650 3.503777 0
M  V30 17 C 0.648447 2.699568 2.705204 0
M  V30 18 C -0.790571 2.646887 2.603469 0
M  V30 19 C -1.994896 2.582285 2.515240 0
M  V30 20 C -3.468348 2.484951 2.391219 0
M  V30 21 N -3.722307 1.380475 1.455931 0
M  V30 22 C -5.044616 1.051637 1.129366 0
M  V30 23 O -5.852320 1.827687 1.747359 0
M  V30 24 C -5.526785 0.011349 0.238755 0
M  V30 25 C -6.918410 -0.076548 0.089766 0
M  V30 26 N -7.463079 -1.001959 -0.721143 0
M  V30 27 C -6.718023 -1.880641 -1.423046 0
M  V30 28 N -5.381025 -1.824163 -1.303267 0
M  V30 29 C -4.541303 -2.744945 -2.034222 0
M  V30 30 C -4.138068 -2.245322 -3.371780 0
M  V30 31 C -2.973833 -1.544498 -3.589541 0
M  V30 32 C -2.504148 -1.035294 -4.780667 0
M  V30 33 C -3.307648 -1.260099 -5.891090 0
M  V30 34 F -2.967740 -0.816302 -7.117944 0
M  V30 35 C -4.508085 -1.966620 -5.744910 0
M  V30 36 F -5.286439 -2.180214 -6.840692 0
M  V30 37 C -4.916048 -2.448589 -4.517170 0
M  V30 38 C -4.820792 -0.909339 -0.500429 0
M  V30 39 O -3.586275 -0.851193 -0.383836 0
M  V30 40 C 1.402079 1.806571 1.975021 0
M  V30 41 C 2.786746 1.756770 1.984780 0
M  V30 42 H 3.163461 -0.975706 3.369528 0
M  V30 43 H 1.953626 -2.043441 4.051630 0
M  V30 44 H 1.560995 -1.317037 2.491347 0
M  V30 45 H 3.457444 -4.859562 3.080660 0
M  V30 46 H 1.681959 -4.376476 2.881214 0
M  V30 47 H 2.615985 -3.804334 4.284934 0
M  V30 48 H 1.716577 -3.095969 0.861966 0
M  V30 49 H 3.043241 -4.242702 0.901352 0
M  V30 50 H 5.391082 -1.574101 -0.552384 0
M  V30 51 H 5.308588 -2.014225 1.173805 0
M  V30 52 H 5.348872 -3.330092 -0.106032 0
M  V30 53 H 3.590511 -4.204353 -1.072992 0
M  V30 54 H 2.220981 -3.065736 -1.592962 0
M  V30 55 H 3.925475 -2.702003 -2.029111 0
M  V30 56 H 1.846225 -1.236758 -0.742676 0
M  V30 57 H 3.411020 -0.698946 -1.319539 0
M  V30 58 H 5.511330 0.347542 0.876873 0
M  V30 59 H 6.583556 1.956631 2.297216 0
M  V30 60 H 3.163655 4.348776 4.201072 0
M  V30 61 H 0.709900 4.308988 4.074190 0
M  V30 62 H -3.949906 2.331826 3.371270 0
M  V30 63 H -3.811438 3.450678 1.986870 0
M  V30 64 H -2.957136 0.823902 1.020588 0
M  V30 65 H -7.660895 0.562027 0.588303 0
M  V30 66 H -7.227399 -2.593918 -2.053482 0
M  V30 67 H -5.095823 -3.704570 -2.184476 0
M  V30 68 H -3.586525 -2.914457 -1.485217 0
M  V30 69 H -2.294973 -1.336751 -2.746672 0
M  V30 70 H -1.573168 -0.493102 -4.865334 0
M  V30 71 H -5.854259 -2.995774 -4.429626 0
M  V30 72 H 0.882831 1.095184 1.350695 0
M  V30 END ATOM
M  V30 BEGIN BOND
M  V30 1 1 1 2
M  V30 2 1 2 3
M  V30 3 1 2 4
M  V30 4 1 4 5
M  V30 5 1 5 6
M  V30 6 1 5 7
M  V30 7 1 5 8
M  V30 8 1 8 9
M  V30 9 1 9 10
M  V30 10 2 10 11
M  V30 11 1 11 12
M  V30 12 2 12 13
M  V30 13 1 13 14
M  V30 14 2 14 15
M  V30 15 1 15 16
M  V30 16 2 16 17
M  V30 17 1 17 18
M  V30 18 3 18 19
M  V30 19 1 19 20
M  V30 20 1 20 21
M  V30 21 1 21 22
M  V30 22 2 22 23
M  V30 23 1 22 24
M  V30 24 2 24 25
M  V30 25 1 25 26
M  V30 26 2 26 27
M  V30 27 1 27 28
M  V30 28 1 28 29
M  V30 29 1 29 30
M  V30 30 2 30 31
M  V30 31 1 31 32
M  V30 32 2 32 33
M  V30 33 1 33 34
M  V30 34 1 33 35
M  V30 35 1 35 36
M  V30 36 2 35 37
M  V30 37 1 28 38
M  V30 38 2 38 39
M  V30 39 1 17 40
M  V30 40 2 40 41
M  V30 41 1 41 10
M  V30 42 1 41 14
M  V30 43 1 38 24
M  V30 44 1 37 30
M  V30 45 1 1 42
M  V30 46 1 1 43
M  V30 47 1 1 44
M  V30 48 1 3 45
M  V30 49 1 3 46
M  V30 50 1 3 47
M  V30 51 1 4 48
M  V30 52 1 4 49
M  V30 53 1 6 50
M  V30 54 1 6 51
M  V30 55 1 6 52
M  V30 56 1 7 53
M  V30 57 1 7 54
M  V30 58 1 7 55
M  V30 59 1 8 56
M  V30 60 1 8 57
M  V30 61 1 11 58
M  V30 62 1 12 59
M  V30 63 1 15 60
M  V30 64 1 16 61
M  V30 65 1 20 62
M  V30 66 1 20 63
M  V30 67 1 21 64
M  V30 68 1 25 65
M  V30 69 1 27 66
M  V30 70 1 29 67
M  V30 71 1 29 68
M  V30 72 1 31 69
M  V30 73 1 32 70
M  V30 74 1 37 71
M  V30 75 1 40 72
M  V30 END BOND
M  V30 END CTAB
M  END
>  <Dataset>  (763) 
ChEMBL_Kinases

>  <Ligand_Instance>  (763) 
nan

>  <PDB_ID>  (763) 
nan

>  <Standardized_SMILES>  (763) 
CN(C)CC(C)(C)COc1ccnc2ccc(C#CCNC(=O)c3cncn(Cc4ccc(F)c(F)c4)c3=O)cc12

>  <Name>  (763) 
nan

>  <Pocket>  (763) 
nan

>  <ATP_Site>  (763) 
nan

>  <Peripheral>  (763) 
nan

>  <Num_H_Atoms_ProtBoundConf>  (763) 
nan

>  <Num_Resolved_Atoms>  (763) 
nan

>  <Num_Not_Resolved_Atoms>  (763) 
nan

$$$$
CHEMBL3689196
     RDKit          3D

  0  0  0  0  0  0  0  0  0  0999 V3000
M  V30 BEGIN CTAB
M  V30 COUNTS 72 75 0 0 0
M  V30 BEGIN ATOM
M  V30 1 C 1.465129 -5.100418 0.961830 0
M  V30 2 N 0.835990 -4.202906 0.049016 0
M  V30 3 C -0.477622 -4.794128 -0.253590 0
M  V30 4 C 1.475509 -3.964975 -1.185372 0
M  V30 5 C 2.739929 -3.169286 -1.199325 0
M  V30 6 C 3.806249 -3.799762 -0.360999 0
M  V30 7 C 3.249982 -3.339752 -2.670237 0
M  V30 8 C 2.531963 -1.712903 -1.020297 0
M  V30 9 N 3.710009 -0.872517 -1.020895 0
M  V30 10 C 3.228771 0.494845 -0.996932 0
M  V30 11 C 3.321828 1.488605 -1.960389 0
M  V30 12 N 2.746748 2.669967 -1.820194 0
M  V30 13 C 2.028833 3.029121 -0.773519 0
M  V30 14 C 1.323413 4.157892 -0.508882 0
M  V30 15 C 0.530264 4.473094 0.558233 0
M  V30 16 C 0.474737 3.453135 1.478413 0
M  V30 17 C -0.408264 3.417637 2.638477 0
M  V30 18 C -1.147798 3.372259 3.582392 0
M  V30 19 C -2.075782 3.290574 4.743914 0
M  V30 20 N -2.916926 2.089670 4.630661 0
M  V30 21 C -3.755631 0.901057 4.526918 0
M  V30 22 O -4.355249 1.147855 5.587899 0
M  V30 23 C -3.705692 -0.088845 3.460136 0
M  V30 24 C -4.555562 -1.140405 3.703557 0
M  V30 25 N -4.546619 -2.162486 2.788847 0
M  V30 26 C -3.746557 -2.134347 1.714435 0
M  V30 27 N -2.900692 -1.089265 1.469067 0
M  V30 28 C -2.016430 -1.068059 0.337005 0
M  V30 29 C -2.555502 -0.437190 -0.883309 0
M  V30 30 C -2.479817 0.873950 -1.277174 0
M  V30 31 C -2.971705 1.451005 -2.421045 0
M  V30 32 C -3.635278 0.593611 -3.288511 0
M  V30 33 F -4.155298 1.065699 -4.446089 0
M  V30 34 C -3.752983 -0.754448 -2.954823 0
M  V30 35 F -4.397783 -1.564604 -3.817533 0
M  V30 36 C -3.223101 -1.256799 -1.776012 0
M  V30 37 C -2.911080 -0.089649 2.361817 0
M  V30 38 O -2.128316 0.793464 2.051223 0
M  V30 39 C 1.153346 2.228650 1.351687 0
M  V30 40 C 1.929875 2.049428 0.193001 0
M  V30 41 N 2.508340 0.802442 0.111684 0
M  V30 42 H 0.649363 -5.429234 1.677728 0
M  V30 43 H 2.254040 -4.720622 1.597150 0
M  V30 44 H 1.752690 -6.063575 0.465425 0
M  V30 45 H -1.074699 -4.142994 -0.914622 0
M  V30 46 H -0.277524 -5.777898 -0.770280 0
M  V30 47 H -1.029553 -5.060139 0.677509 0
M  V30 48 H 1.649257 -4.896647 -1.778035 0
M  V30 49 H 0.745186 -3.386933 -1.818851 0
M  V30 50 H 4.832440 -3.706418 -0.851480 0
M  V30 51 H 3.904052 -3.331297 0.626755 0
M  V30 52 H 3.672082 -4.904122 -0.303895 0
M  V30 53 H 2.500997 -2.904046 -3.357169 0
M  V30 54 H 4.271592 -3.000076 -2.782626 0
M  V30 55 H 3.256153 -4.434070 -2.843241 0
M  V30 56 H 1.892081 -1.363320 -1.881065 0
M  V30 57 H 2.010867 -1.464623 -0.046689 0
M  V30 58 H 4.754016 -0.774379 -1.032031 0
M  V30 59 H 3.900897 1.190788 -2.799666 0
M  V30 60 H 1.404767 4.935178 -1.273998 0
M  V30 61 H -0.030613 5.339303 0.777846 0
M  V30 62 H -1.488607 3.261068 5.656891 0
M  V30 63 H -2.748213 4.154619 4.761958 0
M  V30 64 H -2.409997 1.901483 3.742849 0
M  V30 65 H -5.177147 -1.104878 4.588633 0
M  V30 66 H -3.784188 -2.987994 1.018668 0
M  V30 67 H -1.636385 -2.091492 0.156687 0
M  V30 68 H -1.132395 -0.421962 0.631491 0
M  V30 69 H -1.947002 1.546451 -0.586604 0
M  V30 70 H -2.846222 2.504474 -2.626642 0
M  V30 71 H -3.353172 -2.310120 -1.580305 0
M  V30 72 H 1.126279 1.424134 2.073160 0
M  V30 END ATOM
M  V30 BEGIN BOND
M  V30 1 1 1 2
M  V30 2 1 2 3
M  V30 3 1 2 4
M  V30 4 1 4 5
M  V30 5 1 5 6
M  V30 6 1 5 7
M  V30 7 1 5 8
M  V30 8 1 8 9
M  V30 9 1 9 10
M  V30 10 2 10 11
M  V30 11 1 11 12
M  V30 12 2 12 13
M  V30 13 1 13 14
M  V30 14 2 14 15
M  V30 15 1 15 16
M  V30 16 1 16 17
M  V30 17 3 17 18
M  V30 18 1 18 19
M  V30 19 1 19 20
M  V30 20 1 20 21
M  V30 21 2 21 22
M  V30 22 1 21 23
M  V30 23 2 23 24
M  V30 24 1 24 25
M  V30 25 2 25 26
M  V30 26 1 26 27
M  V30 27 1 27 28
M  V30 28 1 28 29
M  V30 29 2 29 30
M  V30 30 1 30 31
M  V30 31 2 31 32
M  V30 32 1 32 33
M  V30 33 1 32 34
M  V30 34 1 34 35
M  V30 35 2 34 36
M  V30 36 1 27 37
M  V30 37 2 37 38
M  V30 38 2 16 39
M  V30 39 1 39 40
M  V30 40 2 40 41
M  V30 41 1 41 10
M  V30 42 1 40 13
M  V30 43 1 37 23
M  V30 44 1 36 29
M  V30 45 1 1 42
M  V30 46 1 1 43
M  V30 47 1 1 44
M  V30 48 1 3 45
M  V30 49 1 3 46
M  V30 50 1 3 47
M  V30 51 1 4 48
M  V30 52 1 4 49
M  V30 53 1 6 50
M  V30 54 1 6 51
M  V30 55 1 6 52
M  V30 56 1 7 53
M  V30 57 1 7 54
M  V30 58 1 7 55
M  V30 59 1 8 56
M  V30 60 1 8 57
M  V30 61 1 9 58
M  V30 62 1 11 59
M  V30 63 1 14 60
M  V30 64 1 15 61
M  V30 65 1 19 62
M  V30 66 1 19 63
M  V30 67 1 20 64
M  V30 68 1 24 65
M  V30 69 1 26 66
M  V30 70 1 28 67
M  V30 71 1 28 68
M  V30 72 1 30 69
M  V30 73 1 31 70
M  V30 74 1 36 71
M  V30 75 1 39 72
M  V30 END BOND
M  V30 END CTAB
M  END
>  <Dataset>  (764) 
ChEMBL_Kinases

>  <Ligand_Instance>  (764) 
nan

>  <PDB_ID>  (764) 
nan

>  <Standardized_SMILES>  (764) 
CN(C)CC(C)(C)CNc1cnc2ccc(C#CCNC(=O)c3cncn(Cc4ccc(F)c(F)c4)c3=O)cc2n1

>  <Name>  (764) 
nan

>  <Pocket>  (764) 
nan

>  <ATP_Site>  (764) 
nan

>  <Peripheral>  (764) 
nan

>  <Num_H_Atoms_ProtBoundConf>  (764) 
nan

>  <Num_Resolved_Atoms>  (764) 
nan

>  <Num_Not_Resolved_Atoms>  (764) 
nan

$$$$
CHEMBL3689195
     RDKit          3D

  0  0  0  0  0  0  0  0  0  0999 V3000
M  V30 BEGIN CTAB
M  V30 COUNTS 64 68 0 0 0
M  V30 BEGIN ATOM
M  V30 1 C 2.918874 1.728714 6.975490 0
M  V30 2 N 3.103122 0.907325 5.823665 0
M  V30 3 C 3.904614 -0.277804 6.158443 0
M  V30 4 C 4.555642 -0.811092 4.875003 0
M  V30 5 N 3.617079 -0.512558 3.811604 0
M  V30 6 C 3.967177 -0.126417 2.489972 0
M  V30 7 C 5.288842 -0.013156 2.116058 0
M  V30 8 N 5.512926 0.359319 0.842353 0
M  V30 9 C 4.539171 0.616444 -0.048994 0
M  V30 10 C 4.785489 0.998157 -1.353207 0
M  V30 11 C 3.718137 1.247016 -2.216622 0
M  V30 12 C 2.390410 1.124611 -1.811604 0
M  V30 13 C 1.320580 1.391587 -2.736103 0
M  V30 14 C 0.424704 1.597393 -3.521162 0
M  V30 15 C -0.666837 1.828760 -4.492644 0
M  V30 16 N -1.771258 0.897298 -4.229993 0
M  V30 17 C -2.266106 1.094355 -2.924314 0
M  V30 18 O -1.585221 2.027874 -2.391177 0
M  V30 19 C -3.337069 0.404681 -2.257218 0
M  V30 20 C -3.590645 0.836315 -0.948318 0
M  V30 21 N -4.563587 0.277969 -0.210141 0
M  V30 22 C -5.346891 -0.713832 -0.664938 0
M  V30 23 N -5.129000 -1.150731 -1.917346 0
M  V30 24 C -5.914654 -2.207840 -2.492521 0
M  V30 25 C -5.347478 -3.552619 -2.249864 0
M  V30 26 C -4.450525 -4.244436 -3.032647 0
M  V30 27 C -4.008973 -5.498259 -2.675489 0
M  V30 28 C -4.460880 -6.097258 -1.510722 0
M  V30 29 F -4.052576 -7.336832 -1.115443 0
M  V30 30 C -5.366569 -5.413382 -0.708383 0
M  V30 31 F -5.805328 -6.017651 0.441096 0
M  V30 32 C -5.790863 -4.170944 -1.082167 0
M  V30 33 C -4.163771 -0.612671 -2.680343 0
M  V30 34 O -3.941799 -1.000646 -3.845688 0
M  V30 35 C 2.155337 0.743669 -0.509801 0
M  V30 36 C 3.214278 0.498763 0.339985 0
M  V30 37 N 2.995899 0.124993 1.618245 0
M  V30 38 C 2.229556 -0.644067 4.215839 0
M  V30 39 C 1.867447 0.397633 5.254262 0
M  V30 40 H 1.851356 1.679735 7.276708 0
M  V30 41 H 3.265892 2.761752 6.770835 0
M  V30 42 H 3.514979 1.323117 7.805121 0
M  V30 43 H 3.178560 -1.013323 6.561868 0
M  V30 44 H 4.683304 -0.049745 6.905451 0
M  V30 45 H 4.612232 -1.928900 5.026623 0
M  V30 46 H 5.557354 -0.414951 4.735258 0
M  V30 47 H 6.111990 -0.207406 2.789371 0
M  V30 48 H 5.805237 1.090336 -1.657551 0
M  V30 49 H 3.966063 1.546388 -3.238931 0
M  V30 50 H -0.998124 2.883976 -4.479875 0
M  V30 51 H -0.246917 1.622450 -5.480427 0
M  V30 52 H -2.228644 0.149982 -4.820269 0
M  V30 53 H -3.056469 1.618772 -0.432956 0
M  V30 54 H -6.145400 -1.211002 -0.134436 0
M  V30 55 H -6.018914 -2.103112 -3.611064 0
M  V30 56 H -6.950981 -2.146163 -2.111369 0
M  V30 57 H -4.134873 -3.742159 -3.914501 0
M  V30 58 H -3.311307 -6.015953 -3.301025 0
M  V30 59 H -6.493565 -3.704998 -0.407042 0
M  V30 60 H 1.128244 0.647899 -0.193181 0
M  V30 61 H 2.024766 -1.679701 4.586483 0
M  V30 62 H 1.574666 -0.525129 3.328284 0
M  V30 63 H 1.309863 1.238751 4.782676 0
M  V30 64 H 1.261899 -0.106676 6.012496 0
M  V30 END ATOM
M  V30 BEGIN BOND
M  V30 1 1 1 2
M  V30 2 1 2 3
M  V30 3 1 3 4
M  V30 4 1 4 5
M  V30 5 1 5 6
M  V30 6 2 6 7
M  V30 7 1 7 8
M  V30 8 2 8 9
M  V30 9 1 9 10
M  V30 10 2 10 11
M  V30 11 1 11 12
M  V30 12 1 12 13
M  V30 13 3 13 14
M  V30 14 1 14 15
M  V30 15 1 15 16
M  V30 16 1 16 17
M  V30 17 2 17 18
M  V30 18 1 17 19
M  V30 19 2 19 20
M  V30 20 1 20 21
M  V30 21 2 21 22
M  V30 22 1 22 23
M  V30 23 1 23 24
M  V30 24 1 24 25
M  V30 25 2 25 26
M  V30 26 1 26 27
M  V30 27 2 27 28
M  V30 28 1 28 29
M  V30 29 1 28 30
M  V30 30 1 30 31
M  V30 31 2 30 32
M  V30 32 1 23 33
M  V30 33 2 33 34
M  V30 34 2 12 35
M  V30 35 1 35 36
M  V30 36 2 36 37
M  V30 37 1 5 38
M  V30 38 1 38 39
M  V30 39 1 39 2
M  V30 40 1 37 6
M  V30 41 1 36 9
M  V30 42 1 33 19
M  V30 43 1 32 25
M  V30 44 1 1 40
M  V30 45 1 1 41
M  V30 46 1 1 42
M  V30 47 1 3 43
M  V30 48 1 3 44
M  V30 49 1 4 45
M  V30 50 1 4 46
M  V30 51 1 7 47
M  V30 52 1 10 48
M  V30 53 1 11 49
M  V30 54 1 15 50
M  V30 55 1 15 51
M  V30 56 1 16 52
M  V30 57 1 20 53
M  V30 58 1 22 54
M  V30 59 1 24 55
M  V30 60 1 24 56
M  V30 61 1 26 57
M  V30 62 1 27 58
M  V30 63 1 32 59
M  V30 64 1 35 60
M  V30 65 1 38 61
M  V30 66 1 38 62
M  V30 67 1 39 63
M  V30 68 1 39 64
M  V30 END BOND
M  V30 END CTAB
M  END
>  <Dataset>  (765) 
ChEMBL_Kinases

>  <Ligand_Instance>  (765) 
nan

>  <PDB_ID>  (765) 
nan

>  <Standardized_SMILES>  (765) 
CN1CCN(c2cnc3ccc(C#CCNC(=O)c4cncn(Cc5ccc(F)c(F)c5)c4=O)cc3n2)CC1

>  <Name>  (765) 
nan

>  <Pocket>  (765) 
nan

>  <ATP_Site>  (765) 
nan

>  <Peripheral>  (765) 
nan

>  <Num_H_Atoms_ProtBoundConf>  (765) 
nan

>  <Num_Resolved_Atoms>  (765) 
nan

>  <Num_Not_Resolved_Atoms>  (765) 
nan

$$$$
CHEMBL3689194
     RDKit          3D

  0  0  0  0  0  0  0  0  0  0999 V3000
M  V30 BEGIN CTAB
M  V30 COUNTS 71 76 0 0 0
M  V30 BEGIN ATOM
M  V30 1 O 6.495571 -0.679466 4.857281 0
M  V30 2 C 5.410486 -1.312486 4.618678 0
M  V30 3 N 4.999465 -1.011312 3.306257 0
M  V30 4 C 5.527247 -0.182228 2.260940 0
M  V30 5 C 4.699830 -0.200069 1.053729 0
M  V30 6 C 4.005907 -0.227136 0.069258 0
M  V30 7 C 3.155777 -0.240954 -1.108424 0
M  V30 8 C 3.594986 -0.604460 -2.361066 0
M  V30 9 C 2.699548 -0.581744 -3.428323 0
M  V30 10 C 1.389871 -0.202086 -3.246279 0
M  V30 11 N 0.518191 -0.179179 -4.290723 0
M  V30 12 C -0.757694 0.196899 -4.086718 0
M  V30 13 C -1.219542 0.565028 -2.842396 0
M  V30 14 N -2.552753 0.975878 -2.599713 0
M  V30 15 C -3.595520 1.124991 -3.565325 0
M  V30 16 C -3.339782 2.318242 -4.470556 0
M  V30 17 C -4.226992 2.111465 -5.692746 0
M  V30 18 N -5.251554 1.126850 -5.409306 0
M  V30 19 C -6.166467 1.043377 -6.504469 0
M  V30 20 C -5.561492 0.684798 -7.842846 0
M  V30 21 C -6.451570 -0.271506 -7.142932 0
M  V30 22 C -5.896889 1.565707 -4.175740 0
M  V30 23 C -4.970197 1.329815 -2.988946 0
M  V30 24 N -0.332297 0.531156 -1.834544 0
M  V30 25 C 0.951791 0.162170 -1.990364 0
M  V30 26 C 1.826933 0.149386 -0.897842 0
M  V30 27 C 4.808532 -2.163052 5.617674 0
M  V30 28 C 5.468939 -2.244915 6.838361 0
M  V30 29 N 4.964535 -3.015547 7.822250 0
M  V30 30 C 3.828494 -3.720540 7.667771 0
M  V30 31 N 3.155646 -3.672369 6.505958 0
M  V30 32 C 1.933135 -4.425455 6.325601 0
M  V30 33 C 0.763261 -3.570388 6.749125 0
M  V30 34 C 0.056991 -2.816115 5.852849 0
M  V30 35 C -1.002940 -2.075375 6.383540 0
M  V30 36 C -1.257689 -2.152833 7.751238 0
M  V30 37 F -2.317903 -1.385873 8.138576 0
M  V30 38 C -0.518335 -2.923104 8.601791 0
M  V30 39 F -0.859950 -2.922241 9.921754 0
M  V30 40 C 0.557843 -3.690756 8.129009 0
M  V30 41 C 3.655395 -2.906999 5.526024 0
M  V30 42 O 3.033757 -2.867458 4.462342 0
M  V30 43 H 4.106272 -1.505850 3.017127 0
M  V30 44 H 6.573344 -0.486671 2.035667 0
M  V30 45 H 5.530309 0.860694 2.638591 0
M  V30 46 H 4.625385 -0.894733 -2.459318 0
M  V30 47 H 3.056182 -0.874137 -4.407718 0
M  V30 48 H -1.386289 0.179688 -4.953446 0
M  V30 49 H -2.852378 1.201532 -1.639182 0
M  V30 50 H -3.656570 0.207125 -4.211511 0
M  V30 51 H -2.299937 2.323944 -4.769336 0
M  V30 52 H -3.648728 3.238284 -3.914981 0
M  V30 53 H -3.640422 1.726894 -6.559101 0
M  V30 54 H -4.727699 3.026614 -6.025957 0
M  V30 55 H -7.006800 1.786064 -6.512119 0
M  V30 56 H -5.925137 1.242059 -8.728097 0
M  V30 57 H -4.473583 0.420071 -7.881409 0
M  V30 58 H -7.463389 -0.413428 -7.570220 0
M  V30 59 H -6.034785 -1.205473 -6.725983 0
M  V30 60 H -6.085626 2.659807 -4.299206 0
M  V30 61 H -6.866717 1.074207 -4.007583 0
M  V30 62 H -5.339177 0.511448 -2.375499 0
M  V30 63 H -4.967226 2.252913 -2.355302 0
M  V30 64 H 1.383393 0.449561 0.047681 0
M  V30 65 H 6.400996 -1.717329 7.074706 0
M  V30 66 H 3.500500 -4.309413 8.507888 0
M  V30 67 H 1.958986 -5.394341 6.840098 0
M  V30 68 H 1.796291 -4.566284 5.214141 0
M  V30 69 H 0.310361 -2.800234 4.816802 0
M  V30 70 H -1.573753 -1.475772 5.687676 0
M  V30 71 H 1.120906 -4.286784 8.804439 0
M  V30 END ATOM
M  V30 BEGIN BOND
M  V30 1 2 1 2
M  V30 2 1 2 3
M  V30 3 1 3 4
M  V30 4 1 4 5
M  V30 5 3 5 6
M  V30 6 1 6 7
M  V30 7 2 7 8
M  V30 8 1 8 9
M  V30 9 2 9 10
M  V30 10 1 10 11
M  V30 11 2 11 12
M  V30 12 1 12 13
M  V30 13 1 13 14
M  V30 14 1 14 15
M  V30 15 1 15 16
M  V30 16 1 16 17
M  V30 17 1 17 18
M  V30 18 1 18 19
M  V30 19 1 19 20
M  V30 20 1 20 21
M  V30 21 1 18 22
M  V30 22 1 22 23
M  V30 23 2 13 24
M  V30 24 1 24 25
M  V30 25 2 25 26
M  V30 26 1 2 27
M  V30 27 2 27 28
M  V30 28 1 28 29
M  V30 29 2 29 30
M  V30 30 1 30 31
M  V30 31 1 31 32
M  V30 32 1 32 33
M  V30 33 2 33 34
M  V30 34 1 34 35
M  V30 35 2 35 36
M  V30 36 1 36 37
M  V30 37 1 36 38
M  V30 38 1 38 39
M  V30 39 2 38 40
M  V30 40 1 31 41
M  V30 41 2 41 42
M  V30 42 1 26 7
M  V30 43 1 41 27
M  V30 44 1 25 10
M  V30 45 1 40 33
M  V30 46 1 23 15
M  V30 47 1 21 19
M  V30 48 1 3 43
M  V30 49 1 4 44
M  V30 50 1 4 45
M  V30 51 1 8 46
M  V30 52 1 9 47
M  V30 53 1 12 48
M  V30 54 1 14 49
M  V30 55 1 15 50
M  V30 56 1 16 51
M  V30 57 1 16 52
M  V30 58 1 17 53
M  V30 59 1 17 54
M  V30 60 1 19 55
M  V30 61 1 20 56
M  V30 62 1 20 57
M  V30 63 1 21 58
M  V30 64 1 21 59
M  V30 65 1 22 60
M  V30 66 1 22 61
M  V30 67 1 23 62
M  V30 68 1 23 63
M  V30 69 1 26 64
M  V30 70 1 28 65
M  V30 71 1 30 66
M  V30 72 1 32 67
M  V30 73 1 32 68
M  V30 74 1 34 69
M  V30 75 1 35 70
M  V30 76 1 40 71
M  V30 END BOND
M  V30 END CTAB
M  END
>  <Dataset>  (766) 
ChEMBL_Kinases

>  <Ligand_Instance>  (766) 
nan

>  <PDB_ID>  (766) 
nan

>  <Standardized_SMILES>  (766) 
O=C(NCC#Cc1ccc2ncc(NC3CCN(C4CC4)CC3)nc2c1)c1cncn(Cc2ccc(F)c(F)c2)c1=O

>  <Name>  (766) 
nan

>  <Pocket>  (766) 
nan

>  <ATP_Site>  (766) 
nan

>  <Peripheral>  (766) 
nan

>  <Num_H_Atoms_ProtBoundConf>  (766) 
nan

>  <Num_Resolved_Atoms>  (766) 
nan

>  <Num_Not_Resolved_Atoms>  (766) 
nan

$$$$
CHEMBL3689193
     RDKit          3D

  0  0  0  0  0  0  0  0  0  0999 V3000
M  V30 BEGIN CTAB
M  V30 COUNTS 70 74 0 0 0
M  V30 BEGIN ATOM
M  V30 1 C 2.905882 -4.467986 2.754983 0
M  V30 2 C 3.714059 -4.855766 1.559529 0
M  V30 3 N 4.657929 -3.793884 1.179848 0
M  V30 4 C 5.368767 -4.298349 0.018626 0
M  V30 5 C 6.213574 -3.162187 -0.486254 0
M  V30 6 C 7.104830 -2.543313 0.526939 0
M  V30 7 N 7.276057 -1.099900 0.291810 0
M  V30 8 C 6.183184 -0.194046 0.295410 0
M  V30 9 C 6.259145 1.167550 0.084537 0
M  V30 10 N 5.169219 1.956378 0.105208 0
M  V30 11 C 3.942832 1.444484 0.335341 0
M  V30 12 C 2.799386 2.218018 0.365005 0
M  V30 13 C 1.564139 1.635503 0.606688 0
M  V30 14 C 1.468328 0.262172 0.821774 0
M  V30 15 C 0.168344 -0.345367 1.075092 0
M  V30 16 C -0.913882 -0.850400 1.266120 0
M  V30 17 C -2.219450 -1.477477 1.478661 0
M  V30 18 N -3.203684 -0.461887 1.120260 0
M  V30 19 C -4.534710 -0.930828 1.277295 0
M  V30 20 O -4.494541 -2.137051 1.697593 0
M  V30 21 C -5.771236 -0.209078 1.020065 0
M  V30 22 C -6.929938 -0.954855 1.274214 0
M  V30 23 N -8.140174 -0.424211 1.083551 0
M  V30 24 C -8.331805 0.828744 0.646217 0
M  V30 25 N -7.221209 1.542904 0.402846 0
M  V30 26 C -7.389167 2.900661 -0.071331 0
M  V30 27 C -7.437124 2.866425 -1.554096 0
M  V30 28 C -6.379462 2.976050 -2.430567 0
M  V30 29 C -6.563652 2.927265 -3.794990 0
M  V30 30 C -7.836438 2.764192 -4.334781 0
M  V30 31 F -8.009691 2.717116 -5.676391 0
M  V30 32 C -8.899451 2.653697 -3.470456 0
M  V30 33 F -10.128046 2.495803 -4.017717 0
M  V30 34 C -8.710179 2.703026 -2.108780 0
M  V30 35 C -5.996591 1.066940 0.574541 0
M  V30 36 O -4.961592 1.715538 0.353685 0
M  V30 37 C 2.608887 -0.536241 0.796151 0
M  V30 38 C 3.832196 0.086305 0.550057 0
M  V30 39 N 4.951043 -0.662766 0.519882 0
M  V30 40 C 6.790972 -2.827394 1.952064 0
M  V30 41 C 5.599285 -3.669633 2.244479 0
M  V30 42 H 3.425497 -4.777828 3.697069 0
M  V30 43 H 1.911419 -4.937715 2.678908 0
M  V30 44 H 2.759640 -3.363761 2.704993 0
M  V30 45 H 3.024022 -5.077580 0.721113 0
M  V30 46 H 4.287747 -5.781900 1.809017 0
M  V30 47 H 4.685723 -4.597651 -0.793049 0
M  V30 48 H 6.057617 -5.129878 0.267400 0
M  V30 49 H 6.773187 -3.583974 -1.372676 0
M  V30 50 H 5.500723 -2.442767 -0.961557 0
M  V30 51 H 8.132804 -2.963438 0.324143 0
M  V30 52 H 8.210409 -0.627894 0.104229 0
M  V30 53 H 7.264171 1.573531 -0.102160 0
M  V30 54 H 2.891987 3.298158 0.193687 0
M  V30 55 H 0.675973 2.265618 0.625484 0
M  V30 56 H -2.368988 -2.357250 0.795164 0
M  V30 57 H -2.348127 -1.841752 2.509724 0
M  V30 58 H -3.069791 0.514722 0.780763 0
M  V30 59 H -6.962991 -1.964844 1.625869 0
M  V30 60 H -9.300744 1.266972 0.488912 0
M  V30 61 H -6.487196 3.479421 0.214399 0
M  V30 62 H -8.319565 3.362678 0.321839 0
M  V30 63 H -5.416556 3.100720 -1.974564 0
M  V30 64 H -5.707698 3.016975 -4.455234 0
M  V30 65 H -9.612273 2.606398 -1.522667 0
M  V30 66 H 2.563670 -1.592363 0.957958 0
M  V30 67 H 6.647213 -1.841996 2.474627 0
M  V30 68 H 7.648948 -3.279534 2.502827 0
M  V30 69 H 5.032433 -3.271381 3.135352 0
M  V30 70 H 5.876482 -4.712160 2.533827 0
M  V30 END ATOM
M  V30 BEGIN BOND
M  V30 1 1 1 2
M  V30 2 1 2 3
M  V30 3 1 3 4
M  V30 4 1 4 5
M  V30 5 1 5 6
M  V30 6 1 6 7
M  V30 7 1 7 8
M  V30 8 2 8 9
M  V30 9 1 9 10
M  V30 10 2 10 11
M  V30 11 1 11 12
M  V30 12 2 12 13
M  V30 13 1 13 14
M  V30 14 1 14 15
M  V30 15 3 15 16
M  V30 16 1 16 17
M  V30 17 1 17 18
M  V30 18 1 18 19
M  V30 19 2 19 20
M  V30 20 1 19 21
M  V30 21 2 21 22
M  V30 22 1 22 23
M  V30 23 2 23 24
M  V30 24 1 24 25
M  V30 25 1 25 26
M  V30 26 1 26 27
M  V30 27 2 27 28
M  V30 28 1 28 29
M  V30 29 2 29 30
M  V30 30 1 30 31
M  V30 31 1 30 32
M  V30 32 1 32 33
M  V30 33 2 32 34
M  V30 34 1 25 35
M  V30 35 2 35 36
M  V30 36 2 14 37
M  V30 37 1 37 38
M  V30 38 2 38 39
M  V30 39 1 6 40
M  V30 40 1 40 41
M  V30 41 1 41 3
M  V30 42 1 39 8
M  V30 43 1 38 11
M  V30 44 1 35 21
M  V30 45 1 34 27
M  V30 46 1 1 42
M  V30 47 1 1 43
M  V30 48 1 1 44
M  V30 49 1 2 45
M  V30 50 1 2 46
M  V30 51 1 4 47
M  V30 52 1 4 48
M  V30 53 1 5 49
M  V30 54 1 5 50
M  V30 55 1 6 51
M  V30 56 1 7 52
M  V30 57 1 9 53
M  V30 58 1 12 54
M  V30 59 1 13 55
M  V30 60 1 17 56
M  V30 61 1 17 57
M  V30 62 1 18 58
M  V30 63 1 22 59
M  V30 64 1 24 60
M  V30 65 1 26 61
M  V30 66 1 26 62
M  V30 67 1 28 63
M  V30 68 1 29 64
M  V30 69 1 34 65
M  V30 70 1 37 66
M  V30 71 1 40 67
M  V30 72 1 40 68
M  V30 73 1 41 69
M  V30 74 1 41 70
M  V30 END BOND
M  V30 END CTAB
M  END
>  <Dataset>  (767) 
ChEMBL_Kinases

>  <Ligand_Instance>  (767) 
nan

>  <PDB_ID>  (767) 
nan

>  <Standardized_SMILES>  (767) 
CCN1CCC(Nc2cnc3ccc(C#CCNC(=O)c4cncn(Cc5ccc(F)c(F)c5)c4=O)cc3n2)CC1

>  <Name>  (767) 
nan

>  <Pocket>  (767) 
nan

>  <ATP_Site>  (767) 
nan

>  <Peripheral>  (767) 
nan

>  <Num_H_Atoms_ProtBoundConf>  (767) 
nan

>  <Num_Resolved_Atoms>  (767) 
nan

>  <Num_Not_Resolved_Atoms>  (767) 
nan

$$$$
CHEMBL3689192
     RDKit          3D

  0  0  0  0  0  0  0  0  0  0999 V3000
M  V30 BEGIN CTAB
M  V30 COUNTS 67 71 0 0 0
M  V30 BEGIN ATOM
M  V30 1 C 4.820243 -3.254570 5.178529 0
M  V30 2 N 4.619102 -3.296439 3.745560 0
M  V30 3 C 3.904725 -4.464453 3.335469 0
M  V30 4 C 4.722274 -5.437397 2.513260 0
M  V30 5 C 5.379139 -4.776591 1.321413 0
M  V30 6 C 5.708604 -3.320422 1.614601 0
M  V30 7 N 4.629092 -2.491428 1.158729 0
M  V30 8 C 4.576807 -1.073952 1.143518 0
M  V30 9 C 5.614679 -0.271800 1.559601 0
M  V30 10 N 5.520787 1.070335 1.535555 0
M  V30 11 C 4.412077 1.703892 1.105107 0
M  V30 12 C 4.252847 3.071896 1.055493 0
M  V30 13 C 3.047577 3.601252 0.585932 0
M  V30 14 C 2.018782 2.779800 0.172940 0
M  V30 15 C 0.760552 3.285567 -0.317701 0
M  V30 16 C -0.303100 3.694144 -0.719421 0
M  V30 17 C -1.614744 4.170836 -1.208441 0
M  V30 18 N -2.458304 3.054581 -1.593375 0
M  V30 19 C -2.678306 2.200293 -0.483206 0
M  V30 20 O -2.059559 2.681478 0.524912 0
M  V30 21 C -3.463022 0.978220 -0.446622 0
M  V30 22 C -3.486607 0.357511 0.809040 0
M  V30 23 N -4.160428 -0.776240 1.021260 0
M  V30 24 C -4.847421 -1.385672 0.063593 0
M  V30 25 N -4.841868 -0.816032 -1.141844 0
M  V30 26 C -5.569389 -1.422788 -2.238250 0
M  V30 27 C -6.977809 -0.932608 -2.330051 0
M  V30 28 C -7.896250 -1.657893 -1.609199 0
M  V30 29 C -9.256115 -1.356760 -1.569391 0
M  V30 30 C -9.692218 -0.268936 -2.297367 0
M  V30 31 F -10.990282 0.138597 -2.349143 0
M  V30 32 C -8.780836 0.466997 -3.024818 0
M  V30 33 F -9.148697 1.536824 -3.752598 0
M  V30 34 C -7.421372 0.151540 -3.053840 0
M  V30 35 C -4.185437 0.319891 -1.416089 0
M  V30 36 O -4.148251 0.894906 -2.528780 0
M  V30 37 C 2.139920 1.396623 0.207405 0
M  V30 38 C 3.364068 0.916294 0.684874 0
M  V30 39 N 3.493109 -0.419207 0.722967 0
M  V30 40 C 5.914172 -3.252624 3.117112 0
M  V30 41 H 5.074202 -4.234763 5.615442 0
M  V30 42 H 5.598767 -2.530477 5.438339 0
M  V30 43 H 3.884976 -2.917016 5.706140 0
M  V30 44 H 2.972895 -4.173707 2.837056 0
M  V30 45 H 3.609822 -5.019531 4.262523 0
M  V30 46 H 5.443009 -5.990140 3.148636 0
M  V30 47 H 4.023486 -6.204603 2.126948 0
M  V30 48 H 4.652393 -4.797224 0.485368 0
M  V30 49 H 6.262736 -5.379456 1.050888 0
M  V30 50 H 6.624918 -3.025540 1.071472 0
M  V30 51 H 3.757613 -2.977400 0.785344 0
M  V30 52 H 6.540193 -0.694606 1.913145 0
M  V30 53 H 5.069087 3.684664 1.382785 0
M  V30 54 H 2.910653 4.678899 0.542333 0
M  V30 55 H -1.435693 4.776645 -2.106033 0
M  V30 56 H -2.089566 4.698378 -0.380277 0
M  V30 57 H -2.899329 2.799972 -2.501757 0
M  V30 58 H -2.960918 0.761034 1.676844 0
M  V30 59 H -5.407739 -2.297327 0.173198 0
M  V30 60 H -5.565223 -2.533482 -2.156940 0
M  V30 61 H -5.057799 -1.187514 -3.199485 0
M  V30 62 H -7.639753 -2.523913 -1.011980 0
M  V30 63 H -9.977741 -1.928698 -1.001459 0
M  V30 64 H -6.669961 0.691595 -3.603916 0
M  V30 65 H 1.366230 0.713617 -0.103833 0
M  V30 66 H 6.579216 -2.465000 3.458483 0
M  V30 67 H 6.425747 -4.220287 3.398775 0
M  V30 END ATOM
M  V30 BEGIN BOND
M  V30 1 1 1 2
M  V30 2 1 2 3
M  V30 3 1 3 4
M  V30 4 1 4 5
M  V30 5 1 5 6
M  V30 6 1 6 7
M  V30 7 1 7 8
M  V30 8 2 8 9
M  V30 9 1 9 10
M  V30 10 2 10 11
M  V30 11 1 11 12
M  V30 12 2 12 13
M  V30 13 1 13 14
M  V30 14 1 14 15
M  V30 15 3 15 16
M  V30 16 1 16 17
M  V30 17 1 17 18
M  V30 18 1 18 19
M  V30 19 2 19 20
M  V30 20 1 19 21
M  V30 21 2 21 22
M  V30 22 1 22 23
M  V30 23 2 23 24
M  V30 24 1 24 25
M  V30 25 1 25 26
M  V30 26 1 26 27
M  V30 27 2 27 28
M  V30 28 1 28 29
M  V30 29 2 29 30
M  V30 30 1 30 31
M  V30 31 1 30 32
M  V30 32 1 32 33
M  V30 33 2 32 34
M  V30 34 1 25 35
M  V30 35 2 35 36
M  V30 36 2 14 37
M  V30 37 1 37 38
M  V30 38 2 38 39
M  V30 39 1 6 40
M  V30 40 1 40 2
M  V30 41 1 39 8
M  V30 42 1 38 11
M  V30 43 1 35 21
M  V30 44 1 34 27
M  V30 45 1 1 41
M  V30 46 1 1 42
M  V30 47 1 1 43
M  V30 48 1 3 44
M  V30 49 1 3 45
M  V30 50 1 4 46
M  V30 51 1 4 47
M  V30 52 1 5 48
M  V30 53 1 5 49
M  V30 54 1 6 50
M  V30 55 1 7 51
M  V30 56 1 9 52
M  V30 57 1 12 53
M  V30 58 1 13 54
M  V30 59 1 17 55
M  V30 60 1 17 56
M  V30 61 1 18 57
M  V30 62 1 22 58
M  V30 63 1 24 59
M  V30 64 1 26 60
M  V30 65 1 26 61
M  V30 66 1 28 62
M  V30 67 1 29 63
M  V30 68 1 34 64
M  V30 69 1 37 65
M  V30 70 1 40 66
M  V30 71 1 40 67
M  V30 END BOND
M  V30 END CTAB
M  END
>  <Dataset>  (768) 
ChEMBL_Kinases

>  <Ligand_Instance>  (768) 
nan

>  <PDB_ID>  (768) 
nan

>  <Standardized_SMILES>  (768) 
CN1CCCC(Nc2cnc3ccc(C#CCNC(=O)c4cncn(Cc5ccc(F)c(F)c5)c4=O)cc3n2)C1

>  <Name>  (768) 
nan

>  <Pocket>  (768) 
nan

>  <ATP_Site>  (768) 
nan

>  <Peripheral>  (768) 
nan

>  <Num_H_Atoms_ProtBoundConf>  (768) 
nan

>  <Num_Resolved_Atoms>  (768) 
nan

>  <Num_Not_Resolved_Atoms>  (768) 
nan

$$$$
CHEMBL3689191
     RDKit          3D

  0  0  0  0  0  0  0  0  0  0999 V3000
M  V30 BEGIN CTAB
M  V30 COUNTS 67 71 0 0 0
M  V30 BEGIN ATOM
M  V30 1 C 3.737998 -2.835790 5.075552 0
M  V30 2 N 4.111894 -2.988085 3.690248 0
M  V30 3 C 3.235953 -2.288271 2.789646 0
M  V30 4 C 3.981943 -1.608116 1.670171 0
M  V30 5 C 5.038616 -0.673503 2.149269 0
M  V30 6 N 5.886252 -0.239460 1.029394 0
M  V30 7 C 5.359700 0.463337 -0.087342 0
M  V30 8 C 6.176830 0.870762 -1.148374 0
M  V30 9 N 5.678452 1.537584 -2.206799 0
M  V30 10 C 4.372111 1.841939 -2.291401 0
M  V30 11 C 3.762159 2.518825 -3.327286 0
M  V30 12 C 2.405216 2.785615 -3.323142 0
M  V30 13 C 1.612505 2.377126 -2.269193 0
M  V30 14 C 0.196330 2.627548 -2.212971 0
M  V30 15 C -0.995877 2.823098 -2.151333 0
M  V30 16 C -2.460040 3.044136 -2.058463 0
M  V30 17 N -3.062853 2.056577 -1.163328 0
M  V30 18 C -2.823739 0.761573 -1.659508 0
M  V30 19 O -2.150045 0.848768 -2.744845 0
M  V30 20 C -3.240139 -0.506317 -1.090230 0
M  V30 21 C -2.847367 -1.636183 -1.820274 0
M  V30 22 N -3.151799 -2.873512 -1.429028 0
M  V30 23 C -3.853076 -3.117632 -0.312501 0
M  V30 24 N -4.240552 -2.048742 0.403802 0
M  V30 25 C -5.002473 -2.251156 1.620307 0
M  V30 26 C -6.450680 -2.261085 1.285623 0
M  V30 27 C -6.982042 -3.515857 0.965087 0
M  V30 28 C -8.302594 -3.739302 0.626512 0
M  V30 29 C -9.134985 -2.646606 0.608260 0
M  V30 30 F -10.434711 -2.751569 0.293266 0
M  V30 31 C -8.647910 -1.381757 0.920221 0
M  V30 32 F -9.388768 -0.256352 0.928085 0
M  V30 33 C -7.324325 -1.193992 1.253878 0
M  V30 34 C -3.958016 -0.791407 0.049799 0
M  V30 35 O -4.304038 0.211213 0.693645 0
M  V30 36 C 2.179630 1.697157 -1.211685 0
M  V30 37 C 3.537953 1.455452 -1.263122 0
M  V30 38 N 4.068049 0.790921 -0.220606 0
M  V30 39 C 5.833345 -1.299991 3.234967 0
M  V30 40 C 5.505993 -2.738782 3.429402 0
M  V30 41 H 4.407501 -3.493403 5.665333 0
M  V30 42 H 2.723223 -3.279940 5.181835 0
M  V30 43 H 3.818601 -1.819089 5.470704 0
M  V30 44 H 2.463940 -2.957581 2.370145 0
M  V30 45 H 2.711264 -1.503139 3.369667 0
M  V30 46 H 3.308227 -1.139029 0.935076 0
M  V30 47 H 4.512942 -2.435381 1.123429 0
M  V30 48 H 4.497542 0.221746 2.573941 0
M  V30 49 H 6.909767 -0.441618 1.030584 0
M  V30 50 H 7.221138 0.655175 -1.132446 0
M  V30 51 H 4.396845 2.833198 -4.147228 0
M  V30 52 H 1.924722 3.310020 -4.122668 0
M  V30 53 H -2.857197 2.990782 -3.073799 0
M  V30 54 H -2.701599 4.030661 -1.638003 0
M  V30 55 H -3.601600 2.151291 -0.281393 0
M  V30 56 H -2.275637 -1.564108 -2.740892 0
M  V30 57 H -4.063928 -4.137957 -0.055045 0
M  V30 58 H -4.818479 -1.405015 2.313909 0
M  V30 59 H -4.728693 -3.201393 2.115808 0
M  V30 60 H -6.345891 -4.409939 0.969505 0
M  V30 61 H -8.652170 -4.731562 0.389355 0
M  V30 62 H -6.887716 -0.254123 1.503181 0
M  V30 63 H 1.575260 1.378707 -0.395024 0
M  V30 64 H 5.743777 -0.698262 4.161993 0
M  V30 65 H 6.919911 -1.262708 2.924427 0
M  V30 66 H 6.066815 -3.100200 4.335405 0
M  V30 67 H 5.817297 -3.305512 2.531273 0
M  V30 END ATOM
M  V30 BEGIN BOND
M  V30 1 1 1 2
M  V30 2 1 2 3
M  V30 3 1 3 4
M  V30 4 1 4 5
M  V30 5 1 5 6
M  V30 6 1 6 7
M  V30 7 2 7 8
M  V30 8 1 8 9
M  V30 9 2 9 10
M  V30 10 1 10 11
M  V30 11 2 11 12
M  V30 12 1 12 13
M  V30 13 1 13 14
M  V30 14 3 14 15
M  V30 15 1 15 16
M  V30 16 1 16 17
M  V30 17 1 17 18
M  V30 18 2 18 19
M  V30 19 1 18 20
M  V30 20 2 20 21
M  V30 21 1 21 22
M  V30 22 2 22 23
M  V30 23 1 23 24
M  V30 24 1 24 25
M  V30 25 1 25 26
M  V30 26 2 26 27
M  V30 27 1 27 28
M  V30 28 2 28 29
M  V30 29 1 29 30
M  V30 30 1 29 31
M  V30 31 1 31 32
M  V30 32 2 31 33
M  V30 33 1 24 34
M  V30 34 2 34 35
M  V30 35 2 13 36
M  V30 36 1 36 37
M  V30 37 2 37 38
M  V30 38 1 5 39
M  V30 39 1 39 40
M  V30 40 1 40 2
M  V30 41 1 38 7
M  V30 42 1 37 10
M  V30 43 1 34 20
M  V30 44 1 33 26
M  V30 45 1 1 41
M  V30 46 1 1 42
M  V30 47 1 1 43
M  V30 48 1 3 44
M  V30 49 1 3 45
M  V30 50 1 4 46
M  V30 51 1 4 47
M  V30 52 1 5 48
M  V30 53 1 6 49
M  V30 54 1 8 50
M  V30 55 1 11 51
M  V30 56 1 12 52
M  V30 57 1 16 53
M  V30 58 1 16 54
M  V30 59 1 17 55
M  V30 60 1 21 56
M  V30 61 1 23 57
M  V30 62 1 25 58
M  V30 63 1 25 59
M  V30 64 1 27 60
M  V30 65 1 28 61
M  V30 66 1 33 62
M  V30 67 1 36 63
M  V30 68 1 39 64
M  V30 69 1 39 65
M  V30 70 1 40 66
M  V30 71 1 40 67
M  V30 END BOND
M  V30 END CTAB
M  END
>  <Dataset>  (769) 
ChEMBL_Kinases

>  <Ligand_Instance>  (769) 
nan

>  <PDB_ID>  (769) 
nan

>  <Standardized_SMILES>  (769) 
CN1CCC(Nc2cnc3ccc(C#CCNC(=O)c4cncn(Cc5ccc(F)c(F)c5)c4=O)cc3n2)CC1

>  <Name>  (769) 
nan

>  <Pocket>  (769) 
nan

>  <ATP_Site>  (769) 
nan

>  <Peripheral>  (769) 
nan

>  <Num_H_Atoms_ProtBoundConf>  (769) 
nan

>  <Num_Resolved_Atoms>  (769) 
nan

>  <Num_Not_Resolved_Atoms>  (769) 
nan

$$$$
CHEMBL3689190
     RDKit          3D

  0  0  0  0  0  0  0  0  0  0999 V3000
M  V30 BEGIN CTAB
M  V30 COUNTS 62 65 0 0 0
M  V30 BEGIN ATOM
M  V30 1 C 3.844867 -1.303930 8.418543 0
M  V30 2 N 3.649609 -2.130704 7.273259 0
M  V30 3 C 4.802679 -2.127073 6.412654 0
M  V30 4 C 2.393520 -2.002406 6.607770 0
M  V30 5 C 2.156971 -0.701740 5.915970 0
M  V30 6 S 3.400619 -0.408553 4.653692 0
M  V30 7 C 3.123518 1.144660 3.815617 0
M  V30 8 C 3.654819 2.374559 4.219772 0
M  V30 9 N 3.364416 3.468210 3.493783 0
M  V30 10 C 2.593418 3.461895 2.398671 0
M  V30 11 C 2.301426 4.587443 1.661212 0
M  V30 12 C 1.503291 4.563564 0.532444 0
M  V30 13 C 0.987584 3.335233 0.149972 0
M  V30 14 C 0.143461 3.164828 -1.004524 0
M  V30 15 C -0.569756 3.002893 -1.966876 0
M  V30 16 C -1.443207 2.778533 -3.144109 0
M  V30 17 N -1.550295 1.336550 -3.415615 0
M  V30 18 C -2.106594 0.654684 -2.299508 0
M  V30 19 O -2.345403 1.522412 -1.390039 0
M  V30 20 C -2.376670 -0.766155 -2.161769 0
M  V30 21 C -2.932373 -1.105359 -0.920930 0
M  V30 22 N -3.239224 -2.382050 -0.638717 0
M  V30 23 C -3.038199 -3.388922 -1.505329 0
M  V30 24 N -2.509794 -3.068840 -2.686083 0
M  V30 25 C -2.281109 -4.122463 -3.645769 0
M  V30 26 C -3.504703 -4.276975 -4.479795 0
M  V30 27 C -4.501807 -5.148341 -4.022650 0
M  V30 28 C -5.669025 -5.325316 -4.776196 0
M  V30 29 C -5.807644 -4.630550 -5.959662 0
M  V30 30 F -6.962844 -4.835631 -6.659387 0
M  V30 31 C -4.851276 -3.765636 -6.442353 0
M  V30 32 F -5.009924 -3.092700 -7.611788 0
M  V30 33 C -3.715622 -3.618378 -5.671018 0
M  V30 34 C -2.180896 -1.814826 -3.030804 0
M  V30 35 O -1.685342 -1.470179 -4.121132 0
M  V30 36 C 1.276154 2.212470 0.881858 0
M  V30 37 C 2.074339 2.245504 2.008186 0
M  V30 38 N 2.331779 1.096736 2.702950 0
M  V30 39 H 2.945336 -1.349098 9.061559 0
M  V30 40 H 4.121855 -0.273220 8.156226 0
M  V30 41 H 4.700498 -1.728858 9.001218 0
M  V30 42 H 4.506578 -2.571189 5.419830 0
M  V30 43 H 5.570199 -2.824817 6.860549 0
M  V30 44 H 5.298679 -1.158681 6.332869 0
M  V30 45 H 2.397713 -2.786785 5.795094 0
M  V30 46 H 1.567373 -2.304479 7.269050 0
M  V30 47 H 1.176574 -0.804892 5.380398 0
M  V30 48 H 2.003902 0.148226 6.608081 0
M  V30 49 H 4.274267 2.364168 5.104329 0
M  V30 50 H 2.705441 5.543214 1.962039 0
M  V30 51 H 1.262327 5.425751 -0.057148 0
M  V30 52 H -0.979945 3.308186 -3.977157 0
M  V30 53 H -2.487833 3.109944 -2.933347 0
M  V30 54 H -1.296303 0.768099 -4.252118 0
M  V30 55 H -3.151443 -0.390939 -0.117813 0
M  V30 56 H -3.310410 -4.391407 -1.206907 0
M  V30 57 H -2.136427 -5.085294 -3.091073 0
M  V30 58 H -1.389992 -3.892030 -4.269785 0
M  V30 59 H -4.396129 -5.682951 -3.112704 0
M  V30 60 H -6.415294 -6.000561 -4.399611 0
M  V30 61 H -2.968677 -2.950152 -6.038002 0
M  V30 62 H 0.879765 1.242076 0.595832 0
M  V30 END ATOM
M  V30 BEGIN BOND
M  V30 1 1 1 2
M  V30 2 1 2 3
M  V30 3 1 2 4
M  V30 4 1 4 5
M  V30 5 1 5 6
M  V30 6 1 6 7
M  V30 7 2 7 8
M  V30 8 1 8 9
M  V30 9 2 9 10
M  V30 10 1 10 11
M  V30 11 2 11 12
M  V30 12 1 12 13
M  V30 13 1 13 14
M  V30 14 3 14 15
M  V30 15 1 15 16
M  V30 16 1 16 17
M  V30 17 1 17 18
M  V30 18 2 18 19
M  V30 19 1 18 20
M  V30 20 2 20 21
M  V30 21 1 21 22
M  V30 22 2 22 23
M  V30 23 1 23 24
M  V30 24 1 24 25
M  V30 25 1 25 26
M  V30 26 2 26 27
M  V30 27 1 27 28
M  V30 28 2 28 29
M  V30 29 1 29 30
M  V30 30 1 29 31
M  V30 31 1 31 32
M  V30 32 2 31 33
M  V30 33 1 24 34
M  V30 34 2 34 35
M  V30 35 2 13 36
M  V30 36 1 36 37
M  V30 37 2 37 38
M  V30 38 1 38 7
M  V30 39 1 37 10
M  V30 40 1 34 20
M  V30 41 1 33 26
M  V30 42 1 1 39
M  V30 43 1 1 40
M  V30 44 1 1 41
M  V30 45 1 3 42
M  V30 46 1 3 43
M  V30 47 1 3 44
M  V30 48 1 4 45
M  V30 49 1 4 46
M  V30 50 1 5 47
M  V30 51 1 5 48
M  V30 52 1 8 49
M  V30 53 1 11 50
M  V30 54 1 12 51
M  V30 55 1 16 52
M  V30 56 1 16 53
M  V30 57 1 17 54
M  V30 58 1 21 55
M  V30 59 1 23 56
M  V30 60 1 25 57
M  V30 61 1 25 58
M  V30 62 1 27 59
M  V30 63 1 28 60
M  V30 64 1 33 61
M  V30 65 1 36 62
M  V30 END BOND
M  V30 END CTAB
M  END
>  <Dataset>  (770) 
ChEMBL_Kinases

>  <Ligand_Instance>  (770) 
nan

>  <PDB_ID>  (770) 
nan

>  <Standardized_SMILES>  (770) 
CN(C)CCSc1cnc2ccc(C#CCNC(=O)c3cncn(Cc4ccc(F)c(F)c4)c3=O)cc2n1

>  <Name>  (770) 
nan

>  <Pocket>  (770) 
nan

>  <ATP_Site>  (770) 
nan

>  <Peripheral>  (770) 
nan

>  <Num_H_Atoms_ProtBoundConf>  (770) 
nan

>  <Num_Resolved_Atoms>  (770) 
nan

>  <Num_Not_Resolved_Atoms>  (770) 
nan

$$$$
CHEMBL3689189
     RDKit          3D

  0  0  0  0  0  0  0  0  0  0999 V3000
M  V30 BEGIN CTAB
M  V30 COUNTS 65 68 0 0 0
M  V30 BEGIN ATOM
M  V30 1 C 3.938446 -4.678595 4.127112 0
M  V30 2 N 3.365608 -4.749961 2.818828 0
M  V30 3 C 2.153505 -5.571834 2.936926 0
M  V30 4 C 4.191263 -5.354240 1.816186 0
M  V30 5 C 5.402562 -4.541826 1.464639 0
M  V30 6 C 4.987471 -3.187014 0.937355 0
M  V30 7 O 6.110868 -2.386907 0.591620 0
M  V30 8 C 5.874626 -1.110037 0.091221 0
M  V30 9 C 6.954649 -0.316400 -0.251532 0
M  V30 10 N 6.725941 0.922784 -0.737229 0
M  V30 11 C 5.467356 1.402498 -0.894963 0
M  V30 12 C 5.244500 2.670206 -1.391922 0
M  V30 13 C 3.943059 3.134888 -1.542513 0
M  V30 14 C 2.840999 2.344684 -1.200586 0
M  V30 15 C 1.497583 2.861047 -1.370737 0
M  V30 16 C 0.373702 3.299067 -1.508157 0
M  V30 17 C -0.975110 3.820264 -1.658324 0
M  V30 18 N -1.972299 3.032191 -0.995947 0
M  V30 19 C -2.173155 1.669069 -1.340682 0
M  V30 20 O -1.342635 1.380509 -2.267292 0
M  V30 21 C -3.132019 0.737037 -0.773114 0
M  V30 22 C -3.061475 -0.540104 -1.343695 0
M  V30 23 N -3.865447 -1.537854 -0.950141 0
M  V30 24 C -4.780846 -1.358029 0.014801 0
M  V30 25 N -4.864015 -0.139482 0.574581 0
M  V30 26 C -5.838821 0.088504 1.613218 0
M  V30 27 C -7.100502 0.536754 0.971481 0
M  V30 28 C -8.016949 -0.415190 0.569547 0
M  V30 29 C -9.220562 -0.136303 -0.033750 0
M  V30 30 C -9.499136 1.210416 -0.236518 0
M  V30 31 F -10.687332 1.553941 -0.835146 0
M  V30 32 C -8.634674 2.216449 0.137368 0
M  V30 33 F -8.951540 3.514824 -0.081951 0
M  V30 34 C -7.461697 1.844985 0.730207 0
M  V30 35 C -4.080046 0.886362 0.211653 0
M  V30 36 O -4.110900 2.040206 0.695100 0
M  V30 37 C 3.065583 1.068584 -0.700198 0
M  V30 38 C 4.375922 0.612029 -0.553119 0
M  V30 39 N 4.622359 -0.620275 -0.070633 0
M  V30 40 H 3.469958 -3.780097 4.625832 0
M  V30 41 H 3.680456 -5.535416 4.791007 0
M  V30 42 H 5.038372 -4.537336 4.137903 0
M  V30 43 H 1.629157 -5.369944 3.908249 0
M  V30 44 H 1.448147 -5.336518 2.114926 0
M  V30 45 H 2.401683 -6.645818 2.942308 0
M  V30 46 H 4.480306 -6.368492 2.144645 0
M  V30 47 H 3.578672 -5.474221 0.901412 0
M  V30 48 H 5.900831 -5.070996 0.606713 0
M  V30 49 H 6.148375 -4.459443 2.256666 0
M  V30 50 H 4.266269 -3.254484 0.115914 0
M  V30 51 H 4.453520 -2.686874 1.776570 0
M  V30 52 H 7.969614 -0.707598 -0.122431 0
M  V30 53 H 6.072982 3.292759 -1.660175 0
M  V30 54 H 3.758153 4.128907 -1.932201 0
M  V30 55 H -0.963904 4.833709 -1.189695 0
M  V30 56 H -1.241621 4.012940 -2.727972 0
M  V30 57 H -2.579797 3.433018 -0.242542 0
M  V30 58 H -2.365092 -0.821639 -2.134666 0
M  V30 59 H -5.412138 -2.183432 0.307179 0
M  V30 60 H -5.481720 0.902730 2.271050 0
M  V30 61 H -6.010860 -0.852618 2.174191 0
M  V30 62 H -7.827518 -1.482371 0.714581 0
M  V30 63 H -9.926412 -0.895585 -0.342408 0
M  V30 64 H -6.772092 2.611479 1.031687 0
M  V30 65 H 2.236747 0.436283 -0.427648 0
M  V30 END ATOM
M  V30 BEGIN BOND
M  V30 1 1 1 2
M  V30 2 1 2 3
M  V30 3 1 2 4
M  V30 4 1 4 5
M  V30 5 1 5 6
M  V30 6 1 6 7
M  V30 7 1 7 8
M  V30 8 2 8 9
M  V30 9 1 9 10
M  V30 10 2 10 11
M  V30 11 1 11 12
M  V30 12 2 12 13
M  V30 13 1 13 14
M  V30 14 1 14 15
M  V30 15 3 15 16
M  V30 16 1 16 17
M  V30 17 1 17 18
M  V30 18 1 18 19
M  V30 19 2 19 20
M  V30 20 1 19 21
M  V30 21 2 21 22
M  V30 22 1 22 23
M  V30 23 2 23 24
M  V30 24 1 24 25
M  V30 25 1 25 26
M  V30 26 1 26 27
M  V30 27 2 27 28
M  V30 28 1 28 29
M  V30 29 2 29 30
M  V30 30 1 30 31
M  V30 31 1 30 32
M  V30 32 1 32 33
M  V30 33 2 32 34
M  V30 34 1 25 35
M  V30 35 2 35 36
M  V30 36 2 14 37
M  V30 37 1 37 38
M  V30 38 2 38 39
M  V30 39 1 39 8
M  V30 40 1 38 11
M  V30 41 1 35 21
M  V30 42 1 34 27
M  V30 43 1 1 40
M  V30 44 1 1 41
M  V30 45 1 1 42
M  V30 46 1 3 43
M  V30 47 1 3 44
M  V30 48 1 3 45
M  V30 49 1 4 46
M  V30 50 1 4 47
M  V30 51 1 5 48
M  V30 52 1 5 49
M  V30 53 1 6 50
M  V30 54 1 6 51
M  V30 55 1 9 52
M  V30 56 1 12 53
M  V30 57 1 13 54
M  V30 58 1 17 55
M  V30 59 1 17 56
M  V30 60 1 18 57
M  V30 61 1 22 58
M  V30 62 1 24 59
M  V30 63 1 26 60
M  V30 64 1 26 61
M  V30 65 1 28 62
M  V30 66 1 29 63
M  V30 67 1 34 64
M  V30 68 1 37 65
M  V30 END BOND
M  V30 END CTAB
M  END
>  <Dataset>  (771) 
ChEMBL_Kinases

>  <Ligand_Instance>  (771) 
nan

>  <PDB_ID>  (771) 
nan

>  <Standardized_SMILES>  (771) 
CN(C)CCCOc1cnc2ccc(C#CCNC(=O)c3cncn(Cc4ccc(F)c(F)c4)c3=O)cc2n1

>  <Name>  (771) 
nan

>  <Pocket>  (771) 
nan

>  <ATP_Site>  (771) 
nan

>  <Peripheral>  (771) 
nan

>  <Num_H_Atoms_ProtBoundConf>  (771) 
nan

>  <Num_Resolved_Atoms>  (771) 
nan

>  <Num_Not_Resolved_Atoms>  (771) 
nan

$$$$
CHEMBL3689188
     RDKit          3D

  0  0  0  0  0  0  0  0  0  0999 V3000
M  V30 BEGIN CTAB
M  V30 COUNTS 64 68 0 0 0
M  V30 BEGIN ATOM
M  V30 1 C 4.052493 0.678533 6.022409 0
M  V30 2 N 3.093674 -0.344490 5.581242 0
M  V30 3 C 3.698955 -1.646006 5.773180 0
M  V30 4 C 4.603456 -1.873174 4.583610 0
M  V30 5 C 4.117163 -0.896649 3.555800 0
M  V30 6 N 5.110498 0.087324 3.173122 0
M  V30 7 C 4.775843 1.073680 2.203112 0
M  V30 8 C 5.676886 2.042818 1.792428 0
M  V30 9 N 5.327847 2.976038 0.860171 0
M  V30 10 C 4.091322 2.977572 0.313331 0
M  V30 11 C 3.668317 3.887873 -0.632682 0
M  V30 12 C 2.396507 3.863852 -1.174034 0
M  V30 13 C 1.500955 2.888393 -0.755690 0
M  V30 14 C 0.162912 2.810823 -1.282039 0
M  V30 15 C -0.967603 2.730184 -1.713702 0
M  V30 16 C -2.352763 2.616130 -2.224698 0
M  V30 17 N -2.668944 1.204471 -2.489792 0
M  V30 18 C -2.567079 0.397922 -1.324209 0
M  V30 19 O -2.219592 1.152881 -0.350943 0
M  V30 20 C -2.804463 -1.031826 -1.206255 0
M  V30 21 C -2.615378 -1.519371 0.094424 0
M  V30 22 N -2.794780 -2.820543 0.373831 0
M  V30 23 C -3.158848 -3.712783 -0.559216 0
M  V30 24 N -3.344527 -3.262720 -1.811547 0
M  V30 25 C -3.735277 -4.169640 -2.849099 0
M  V30 26 C -5.213624 -4.270905 -2.950321 0
M  V30 27 C -5.889860 -5.224597 -2.180126 0
M  V30 28 C -7.271089 -5.401076 -2.202340 0
M  V30 29 C -7.967988 -4.574025 -3.038613 0
M  V30 30 F -9.329474 -4.708057 -3.096457 0
M  V30 31 C -7.378315 -3.610752 -3.828831 0
M  V30 32 F -8.094114 -2.797669 -4.655013 0
M  V30 33 C -6.007286 -3.487433 -3.760075 0
M  V30 34 C -3.177380 -1.980325 -2.132383 0
M  V30 35 O -3.334914 -1.505167 -3.276198 0
M  V30 36 C 1.892768 1.954380 0.196361 0
M  V30 37 C 3.175238 2.015731 0.711282 0
M  V30 38 N 3.558935 1.113703 1.632834 0
M  V30 39 C 2.936885 -0.170151 4.155256 0
M  V30 40 H 3.784428 1.098075 7.007850 0
M  V30 41 H 4.084628 1.533263 5.313235 0
M  V30 42 H 5.082533 0.242092 6.020995 0
M  V30 43 H 2.950616 -2.449508 5.909255 0
M  V30 44 H 4.294134 -1.595646 6.710579 0
M  V30 45 H 5.655459 -1.673466 4.802981 0
M  V30 46 H 4.520529 -2.940152 4.229127 0
M  V30 47 H 3.793188 -1.483711 2.660129 0
M  V30 48 H 6.076720 0.120145 3.571646 0
M  V30 49 H 6.682290 2.059708 2.221913 0
M  V30 50 H 4.352263 4.642518 -0.960189 0
M  V30 51 H 2.093911 4.590569 -1.913764 0
M  V30 52 H -2.401395 3.200305 -3.142446 0
M  V30 53 H -3.082379 3.005250 -1.473958 0
M  V30 54 H -2.945621 0.737497 -3.379469 0
M  V30 55 H -2.321196 -0.985717 1.009535 0
M  V30 56 H -3.310094 -4.765061 -0.362129 0
M  V30 57 H -3.277739 -3.932595 -3.832201 0
M  V30 58 H -3.369825 -5.193628 -2.552528 0
M  V30 59 H -5.319766 -5.861549 -1.531814 0
M  V30 60 H -7.719440 -6.164661 -1.573544 0
M  V30 61 H -5.525457 -2.738725 -4.372410 0
M  V30 62 H 1.171576 1.212836 0.496591 0
M  V30 63 H 3.002310 0.916460 3.939950 0
M  V30 64 H 1.991438 -0.624627 3.806249 0
M  V30 END ATOM
M  V30 BEGIN BOND
M  V30 1 1 1 2
M  V30 2 1 2 3
M  V30 3 1 3 4
M  V30 4 1 4 5
M  V30 5 1 5 6
M  V30 6 1 6 7
M  V30 7 2 7 8
M  V30 8 1 8 9
M  V30 9 2 9 10
M  V30 10 1 10 11
M  V30 11 2 11 12
M  V30 12 1 12 13
M  V30 13 1 13 14
M  V30 14 3 14 15
M  V30 15 1 15 16
M  V30 16 1 16 17
M  V30 17 1 17 18
M  V30 18 2 18 19
M  V30 19 1 18 20
M  V30 20 2 20 21
M  V30 21 1 21 22
M  V30 22 2 22 23
M  V30 23 1 23 24
M  V30 24 1 24 25
M  V30 25 1 25 26
M  V30 26 2 26 27
M  V30 27 1 27 28
M  V30 28 2 28 29
M  V30 29 1 29 30
M  V30 30 1 29 31
M  V30 31 1 31 32
M  V30 32 2 31 33
M  V30 33 1 24 34
M  V30 34 2 34 35
M  V30 35 2 13 36
M  V30 36 1 36 37
M  V30 37 2 37 38
M  V30 38 1 5 39
M  V30 39 1 39 2
M  V30 40 1 38 7
M  V30 41 1 37 10
M  V30 42 1 34 20
M  V30 43 1 33 26
M  V30 44 1 1 40
M  V30 45 1 1 41
M  V30 46 1 1 42
M  V30 47 1 3 43
M  V30 48 1 3 44
M  V30 49 1 4 45
M  V30 50 1 4 46
M  V30 51 1 5 47
M  V30 52 1 6 48
M  V30 53 1 8 49
M  V30 54 1 11 50
M  V30 55 1 12 51
M  V30 56 1 16 52
M  V30 57 1 16 53
M  V30 58 1 17 54
M  V30 59 1 21 55
M  V30 60 1 23 56
M  V30 61 1 25 57
M  V30 62 1 25 58
M  V30 63 1 27 59
M  V30 64 1 28 60
M  V30 65 1 33 61
M  V30 66 1 36 62
M  V30 67 1 39 63
M  V30 68 1 39 64
M  V30 END BOND
M  V30 END CTAB
M  END
>  <Dataset>  (772) 
ChEMBL_Kinases

>  <Ligand_Instance>  (772) 
nan

>  <PDB_ID>  (772) 
nan

>  <Standardized_SMILES>  (772) 
CN1CCC(Nc2cnc3ccc(C#CCNC(=O)c4cncn(Cc5ccc(F)c(F)c5)c4=O)cc3n2)C1

>  <Name>  (772) 
nan

>  <Pocket>  (772) 
nan

>  <ATP_Site>  (772) 
nan

>  <Peripheral>  (772) 
nan

>  <Num_H_Atoms_ProtBoundConf>  (772) 
nan

>  <Num_Resolved_Atoms>  (772) 
nan

>  <Num_Not_Resolved_Atoms>  (772) 
nan

$$$$
CHEMBL3689187
     RDKit          3D

  0  0  0  0  0  0  0  0  0  0999 V3000
M  V30 BEGIN CTAB
M  V30 COUNTS 55 58 0 0 0
M  V30 BEGIN ATOM
M  V30 1 C 6.196484 -1.970502 3.108385 0
M  V30 2 N 6.983064 -1.030159 2.293982 0
M  V30 3 C 8.378223 -1.336751 2.284422 0
M  V30 4 C 6.371486 0.056487 1.606101 0
M  V30 5 C 7.015718 0.990741 0.820019 0
M  V30 6 N 6.335757 1.981656 0.213054 0
M  V30 7 C 5.001858 2.108637 0.342691 0
M  V30 8 C 4.305464 3.124843 -0.279928 0
M  V30 9 C 2.937092 3.264493 -0.153776 0
M  V30 10 C 2.289893 2.313603 0.644900 0
M  V30 11 C 0.863430 2.491071 0.753276 0
M  V30 12 C -0.337747 2.632263 0.829014 0
M  V30 13 C -1.804499 2.827029 0.908397 0
M  V30 14 N -2.507607 1.702116 0.324030 0
M  V30 15 C -3.923890 1.643657 0.274406 0
M  V30 16 O -4.384357 2.701908 0.808704 0
M  V30 17 C -4.721857 0.573919 -0.283328 0
M  V30 18 C -6.099953 0.807407 -0.183030 0
M  V30 19 N -6.993345 -0.078628 -0.648174 0
M  V30 20 C -6.627686 -1.231249 -1.232169 0
M  V30 21 N -5.310722 -1.474868 -1.338477 0
M  V30 22 C -4.836144 -2.686138 -1.950815 0
M  V30 23 C -4.664909 -3.788030 -0.980527 0
M  V30 24 C -5.779918 -4.607989 -0.774681 0
M  V30 25 C -5.779358 -5.687235 0.105810 0
M  V30 26 C -4.599077 -5.893725 0.764266 0
M  V30 27 F -4.531329 -6.934639 1.641364 0
M  V30 28 C -3.461949 -5.140942 0.622389 0
M  V30 29 F -2.324782 -5.397948 1.304141 0
M  V30 30 C -3.531320 -4.090359 -0.263291 0
M  V30 31 C -4.386347 -0.616146 -0.886868 0
M  V30 32 O -3.147371 -0.793789 -0.960602 0
M  V30 33 C 2.964716 1.287592 1.278231 0
M  V30 34 C 4.340667 1.182529 1.125680 0
M  V30 35 N 5.039824 0.198164 1.724683 0
M  V30 36 H 6.647461 -2.101553 4.101426 0
M  V30 37 H 6.225835 -2.957601 2.590456 0
M  V30 38 H 5.131321 -1.665531 3.170547 0
M  V30 39 H 8.983055 -0.711069 1.630419 0
M  V30 40 H 8.785014 -1.161809 3.323044 0
M  V30 41 H 8.500464 -2.423655 2.104637 0
M  V30 42 H 8.084900 0.879144 0.723240 0
M  V30 43 H 4.859020 3.822830 -0.879233 0
M  V30 44 H 2.405495 4.067053 -0.648549 0
M  V30 45 H -2.079031 2.868058 1.996816 0
M  V30 46 H -2.025983 3.777617 0.429001 0
M  V30 47 H -1.945762 0.916974 -0.069137 0
M  V30 48 H -6.567120 1.695149 0.264216 0
M  V30 49 H -7.287656 -1.987304 -1.627630 0
M  V30 50 H -5.539408 -3.030099 -2.764731 0
M  V30 51 H -3.854230 -2.497976 -2.428012 0
M  V30 52 H -6.715333 -4.422610 -1.314253 0
M  V30 53 H -6.669597 -6.276141 0.216500 0
M  V30 54 H -2.677625 -3.449363 -0.431940 0
M  V30 55 H 2.414752 0.587931 1.878153 0
M  V30 END ATOM
M  V30 BEGIN BOND
M  V30 1 1 1 2
M  V30 2 1 2 3
M  V30 3 1 2 4
M  V30 4 2 4 5
M  V30 5 1 5 6
M  V30 6 2 6 7
M  V30 7 1 7 8
M  V30 8 2 8 9
M  V30 9 1 9 10
M  V30 10 1 10 11
M  V30 11 3 11 12
M  V30 12 1 12 13
M  V30 13 1 13 14
M  V30 14 1 14 15
M  V30 15 2 15 16
M  V30 16 1 15 17
M  V30 17 2 17 18
M  V30 18 1 18 19
M  V30 19 2 19 20
M  V30 20 1 20 21
M  V30 21 1 21 22
M  V30 22 1 22 23
M  V30 23 2 23 24
M  V30 24 1 24 25
M  V30 25 2 25 26
M  V30 26 1 26 27
M  V30 27 1 26 28
M  V30 28 1 28 29
M  V30 29 2 28 30
M  V30 30 1 21 31
M  V30 31 2 31 32
M  V30 32 2 10 33
M  V30 33 1 33 34
M  V30 34 2 34 35
M  V30 35 1 35 4
M  V30 36 1 34 7
M  V30 37 1 31 17
M  V30 38 1 30 23
M  V30 39 1 1 36
M  V30 40 1 1 37
M  V30 41 1 1 38
M  V30 42 1 3 39
M  V30 43 1 3 40
M  V30 44 1 3 41
M  V30 45 1 5 42
M  V30 46 1 8 43
M  V30 47 1 9 44
M  V30 48 1 13 45
M  V30 49 1 13 46
M  V30 50 1 14 47
M  V30 51 1 18 48
M  V30 52 1 20 49
M  V30 53 1 22 50
M  V30 54 1 22 51
M  V30 55 1 24 52
M  V30 56 1 25 53
M  V30 57 1 30 54
M  V30 58 1 33 55
M  V30 END BOND
M  V30 END CTAB
M  END
>  <Dataset>  (773) 
ChEMBL_Kinases

>  <Ligand_Instance>  (773) 
nan

>  <PDB_ID>  (773) 
nan

>  <Standardized_SMILES>  (773) 
CN(C)c1cnc2ccc(C#CCNC(=O)c3cncn(Cc4ccc(F)c(F)c4)c3=O)cc2n1

>  <Name>  (773) 
nan

>  <Pocket>  (773) 
nan

>  <ATP_Site>  (773) 
nan

>  <Peripheral>  (773) 
nan

>  <Num_H_Atoms_ProtBoundConf>  (773) 
nan

>  <Num_Resolved_Atoms>  (773) 
nan

>  <Num_Not_Resolved_Atoms>  (773) 
nan

$$$$
CHEMBL3689186
     RDKit          3D

  0  0  0  0  0  0  0  0  0  0999 V3000
M  V30 BEGIN CTAB
M  V30 COUNTS 52 55 0 0 0
M  V30 BEGIN ATOM
M  V30 1 C 4.658988 -3.007056 5.780250 0
M  V30 2 N 3.949355 -2.619295 4.577183 0
M  V30 3 C 4.187634 -1.358829 3.963965 0
M  V30 4 C 5.091008 -0.456504 4.473991 0
M  V30 5 N 5.325825 0.750662 3.895101 0
M  V30 6 C 4.642155 1.085543 2.764696 0
M  V30 7 C 4.813556 2.284771 2.109345 0
M  V30 8 C 4.080846 2.570223 0.951425 0
M  V30 9 C 3.178088 1.623740 0.474544 0
M  V30 10 C 2.388951 1.852901 -0.715443 0
M  V30 11 C 1.724051 2.024666 -1.711520 0
M  V30 12 C 0.907683 2.209186 -2.927757 0
M  V30 13 N -0.268838 1.328591 -2.836521 0
M  V30 14 C -1.007191 1.692794 -1.678606 0
M  V30 15 O -0.402907 2.657035 -1.110638 0
M  V30 16 C -2.239465 1.093661 -1.195350 0
M  V30 17 C -2.724578 1.679973 -0.018442 0
M  V30 18 N -3.855507 1.240188 0.556609 0
M  V30 19 C -4.576868 0.227966 0.045131 0
M  V30 20 N -4.125828 -0.331843 -1.066611 0
M  V30 21 C -4.853390 -1.414666 -1.656149 0
M  V30 22 C -4.413327 -2.756588 -1.140708 0
M  V30 23 C -3.425256 -3.556295 -1.660613 0
M  V30 24 C -3.141656 -4.766008 -1.067095 0
M  V30 25 C -3.809735 -5.236547 0.050735 0
M  V30 26 F -3.529946 -6.430632 0.636769 0
M  V30 27 C -4.821750 -4.446696 0.605370 0
M  V30 28 F -5.528723 -4.824947 1.697717 0
M  V30 29 C -5.083656 -3.233681 -0.015362 0
M  V30 30 C -2.999759 0.077612 -1.673345 0
M  V30 31 O -2.563972 -0.440518 -2.720022 0
M  V30 32 C 2.977537 0.408869 1.103592 0
M  V30 33 C 3.731316 0.187121 2.242182 0
M  V30 34 N 3.522351 -1.015141 2.850948 0
M  V30 35 H 5.728163 -2.660239 5.763303 0
M  V30 36 H 4.734003 -4.131505 5.790259 0
M  V30 37 H 4.162344 -2.630096 6.710558 0
M  V30 38 H 3.264041 -3.273728 4.167998 0
M  V30 39 H 5.654146 -0.663844 5.355182 0
M  V30 40 H 5.520820 3.006322 2.497497 0
M  V30 41 H 4.199394 3.499464 0.425063 0
M  V30 42 H 0.555586 3.258245 -3.015398 0
M  V30 43 H 1.539465 1.936570 -3.782043 0
M  V30 44 H -0.629300 0.545787 -3.424669 0
M  V30 45 H -2.235035 2.501664 0.490367 0
M  V30 46 H -5.470582 -0.051593 0.581102 0
M  V30 47 H -5.941283 -1.376674 -1.540315 0
M  V30 48 H -4.647315 -1.450660 -2.757491 0
M  V30 49 H -2.926310 -3.169053 -2.522403 0
M  V30 50 H -2.353988 -5.369025 -1.507631 0
M  V30 51 H -5.872188 -2.638387 0.432159 0
M  V30 52 H 2.275389 -0.330050 0.734780 0
M  V30 END ATOM
M  V30 BEGIN BOND
M  V30 1 1 1 2
M  V30 2 1 2 3
M  V30 3 2 3 4
M  V30 4 1 4 5
M  V30 5 2 5 6
M  V30 6 1 6 7
M  V30 7 2 7 8
M  V30 8 1 8 9
M  V30 9 1 9 10
M  V30 10 3 10 11
M  V30 11 1 11 12
M  V30 12 1 12 13
M  V30 13 1 13 14
M  V30 14 2 14 15
M  V30 15 1 14 16
M  V30 16 2 16 17
M  V30 17 1 17 18
M  V30 18 2 18 19
M  V30 19 1 19 20
M  V30 20 1 20 21
M  V30 21 1 21 22
M  V30 22 2 22 23
M  V30 23 1 23 24
M  V30 24 2 24 25
M  V30 25 1 25 26
M  V30 26 1 25 27
M  V30 27 1 27 28
M  V30 28 2 27 29
M  V30 29 1 20 30
M  V30 30 2 30 31
M  V30 31 2 9 32
M  V30 32 1 32 33
M  V30 33 2 33 34
M  V30 34 1 34 3
M  V30 35 1 33 6
M  V30 36 1 30 16
M  V30 37 1 29 22
M  V30 38 1 1 35
M  V30 39 1 1 36
M  V30 40 1 1 37
M  V30 41 1 2 38
M  V30 42 1 4 39
M  V30 43 1 7 40
M  V30 44 1 8 41
M  V30 45 1 12 42
M  V30 46 1 12 43
M  V30 47 1 13 44
M  V30 48 1 17 45
M  V30 49 1 19 46
M  V30 50 1 21 47
M  V30 51 1 21 48
M  V30 52 1 23 49
M  V30 53 1 24 50
M  V30 54 1 29 51
M  V30 55 1 32 52
M  V30 END BOND
M  V30 END CTAB
M  END
>  <Dataset>  (774) 
ChEMBL_Kinases

>  <Ligand_Instance>  (774) 
nan

>  <PDB_ID>  (774) 
nan

>  <Standardized_SMILES>  (774) 
CNc1cnc2ccc(C#CCNC(=O)c3cncn(Cc4ccc(F)c(F)c4)c3=O)cc2n1

>  <Name>  (774) 
nan

>  <Pocket>  (774) 
nan

>  <ATP_Site>  (774) 
nan

>  <Peripheral>  (774) 
nan

>  <Num_H_Atoms_ProtBoundConf>  (774) 
nan

>  <Num_Resolved_Atoms>  (774) 
nan

>  <Num_Not_Resolved_Atoms>  (774) 
nan

$$$$
CHEMBL3689185
     RDKit          3D

  0  0  0  0  0  0  0  0  0  0999 V3000
M  V30 BEGIN CTAB
M  V30 COUNTS 69 72 0 0 0
M  V30 BEGIN ATOM
M  V30 1 C 3.840665 -4.641935 0.632880 0
M  V30 2 N 2.422529 -4.631617 0.450679 0
M  V30 3 C 1.800414 -5.823066 0.942518 0
M  V30 4 C 2.045952 -4.404373 -0.929689 0
M  V30 5 C 2.432768 -2.966659 -1.265696 0
M  V30 6 C 2.089353 -2.602725 -2.679643 0
M  V30 7 N 2.479992 -1.206065 -2.918524 0
M  V30 8 C 2.188023 -0.688010 -4.258108 0
M  V30 9 C 3.113720 -0.312735 -2.002062 0
M  V30 10 C 4.430599 0.056868 -1.884861 0
M  V30 11 N 4.827574 0.910886 -0.929951 0
M  V30 12 C 3.997736 1.454585 -0.042113 0
M  V30 13 C 4.395489 2.326489 0.949222 0
M  V30 14 C 3.481030 2.857681 1.860293 0
M  V30 15 C 2.170441 2.470650 1.721543 0
M  V30 16 C 1.132177 2.921371 2.599582 0
M  V30 17 C 0.268900 3.282286 3.346859 0
M  V30 18 C -0.788668 3.697235 4.262774 0
M  V30 19 N -1.982541 2.968463 4.235060 0
M  V30 20 C -3.264223 2.315111 4.323436 0
M  V30 21 O -3.687470 3.098755 5.259853 0
M  V30 22 C -3.956278 1.218393 3.694811 0
M  V30 23 C -5.212900 1.132112 4.253269 0
M  V30 24 N -6.024265 0.156852 3.777323 0
M  V30 25 C -5.609417 -0.676206 2.809960 0
M  V30 26 N -4.389940 -0.603029 2.259149 0
M  V30 27 C -3.914092 -1.484190 1.226180 0
M  V30 28 C -4.164570 -1.027352 -0.141929 0
M  V30 29 C -5.338638 -1.301987 -0.805725 0
M  V30 30 C -5.651404 -0.911118 -2.095299 0
M  V30 31 C -4.654359 -0.184845 -2.715087 0
M  V30 32 F -4.851441 0.254749 -3.995158 0
M  V30 33 C -3.452480 0.127613 -2.110301 0
M  V30 34 F -2.490057 0.852701 -2.768513 0
M  V30 35 C -3.199565 -0.295549 -0.810384 0
M  V30 36 C -3.565989 0.350475 2.708382 0
M  V30 37 O -2.416478 0.528996 2.288468 0
M  V30 38 C 1.753011 1.593758 0.727690 0
M  V30 39 C 2.679526 1.068539 -0.178954 0
M  V30 40 N 2.231234 0.213194 -1.122523 0
M  V30 41 H 4.101426 -5.556557 1.200354 0
M  V30 42 H 4.134214 -3.744284 1.202645 0
M  V30 43 H 4.391453 -4.612971 -0.329195 0
M  V30 44 H 0.969060 -5.482978 1.616641 0
M  V30 45 H 2.520273 -6.382209 1.580063 0
M  V30 46 H 1.416068 -6.415870 0.085638 0
M  V30 47 H 2.593981 -5.139959 -1.548098 0
M  V30 48 H 0.960817 -4.559690 -1.061641 0
M  V30 49 H 1.854001 -2.345424 -0.566014 0
M  V30 50 H 3.529849 -2.882660 -1.123314 0
M  V30 51 H 0.989153 -2.740348 -2.854083 0
M  V30 52 H 2.691068 -3.228542 -3.374155 0
M  V30 53 H 1.504279 -1.336417 -4.818102 0
M  V30 54 H 3.142378 -0.636489 -4.826015 0
M  V30 55 H 1.797022 0.344110 -4.203969 0
M  V30 56 H 5.065811 -0.407499 -2.624564 0
M  V30 57 H 5.437311 2.609847 1.029362 0
M  V30 58 H 3.746767 3.543511 2.652048 0
M  V30 59 H -0.943481 4.808546 4.120759 0
M  V30 60 H -0.347408 3.593771 5.314595 0
M  V30 61 H -1.661680 2.295540 3.445211 0
M  V30 62 H -5.655778 1.741668 5.032545 0
M  V30 63 H -6.292787 -1.424600 2.473970 0
M  V30 64 H -2.827031 -1.674231 1.423618 0
M  V30 65 H -4.439528 -2.469379 1.378377 0
M  V30 66 H -6.093683 -1.886972 -0.256766 0
M  V30 67 H -6.593987 -1.163035 -2.550239 0
M  V30 68 H -2.252250 -0.024455 -0.396218 0
M  V30 69 H 0.705161 1.275494 0.605459 0
M  V30 END ATOM
M  V30 BEGIN BOND
M  V30 1 1 1 2
M  V30 2 1 2 3
M  V30 3 1 2 4
M  V30 4 1 4 5
M  V30 5 1 5 6
M  V30 6 1 6 7
M  V30 7 1 7 8
M  V30 8 1 7 9
M  V30 9 2 9 10
M  V30 10 1 10 11
M  V30 11 2 11 12
M  V30 12 1 12 13
M  V30 13 2 13 14
M  V30 14 1 14 15
M  V30 15 1 15 16
M  V30 16 3 16 17
M  V30 17 1 17 18
M  V30 18 1 18 19
M  V30 19 1 19 20
M  V30 20 2 20 21
M  V30 21 1 20 22
M  V30 22 2 22 23
M  V30 23 1 23 24
M  V30 24 2 24 25
M  V30 25 1 25 26
M  V30 26 1 26 27
M  V30 27 1 27 28
M  V30 28 2 28 29
M  V30 29 1 29 30
M  V30 30 2 30 31
M  V30 31 1 31 32
M  V30 32 1 31 33
M  V30 33 1 33 34
M  V30 34 2 33 35
M  V30 35 1 26 36
M  V30 36 2 36 37
M  V30 37 2 15 38
M  V30 38 1 38 39
M  V30 39 2 39 40
M  V30 40 1 40 9
M  V30 41 1 39 12
M  V30 42 1 36 22
M  V30 43 1 35 28
M  V30 44 1 1 41
M  V30 45 1 1 42
M  V30 46 1 1 43
M  V30 47 1 3 44
M  V30 48 1 3 45
M  V30 49 1 3 46
M  V30 50 1 4 47
M  V30 51 1 4 48
M  V30 52 1 5 49
M  V30 53 1 5 50
M  V30 54 1 6 51
M  V30 55 1 6 52
M  V30 56 1 8 53
M  V30 57 1 8 54
M  V30 58 1 8 55
M  V30 59 1 10 56
M  V30 60 1 13 57
M  V30 61 1 14 58
M  V30 62 1 18 59
M  V30 63 1 18 60
M  V30 64 1 19 61
M  V30 65 1 23 62
M  V30 66 1 25 63
M  V30 67 1 27 64
M  V30 68 1 27 65
M  V30 69 1 29 66
M  V30 70 1 30 67
M  V30 71 1 35 68
M  V30 72 1 38 69
M  V30 END BOND
M  V30 END CTAB
M  END
>  <Dataset>  (775) 
ChEMBL_Kinases

>  <Ligand_Instance>  (775) 
nan

>  <PDB_ID>  (775) 
nan

>  <Standardized_SMILES>  (775) 
CN(C)CCCN(C)c1cnc2ccc(C#CCNC(=O)c3cncn(Cc4ccc(F)c(F)c4)c3=O)cc2n1

>  <Name>  (775) 
nan

>  <Pocket>  (775) 
nan

>  <ATP_Site>  (775) 
nan

>  <Peripheral>  (775) 
nan

>  <Num_H_Atoms_ProtBoundConf>  (775) 
nan

>  <Num_Resolved_Atoms>  (775) 
nan

>  <Num_Not_Resolved_Atoms>  (775) 
nan

$$$$
CHEMBL3689184
     RDKit          3D

  0  0  0  0  0  0  0  0  0  0999 V3000
M  V30 BEGIN CTAB
M  V30 COUNTS 63 66 0 0 0
M  V30 BEGIN ATOM
M  V30 1 C 4.772652 -2.871117 4.456428 0
M  V30 2 N 5.307392 -3.646693 3.398616 0
M  V30 3 C 6.707878 -3.636434 3.230148 0
M  V30 4 C 4.483592 -3.901455 2.278613 0
M  V30 5 C 4.139095 -2.727190 1.421164 0
M  V30 6 N 5.331309 -2.124794 0.871337 0
M  V30 7 C 5.151043 -0.965979 0.031759 0
M  V30 8 C 6.205159 -0.291240 -0.560635 0
M  V30 9 N 6.012886 0.791443 -1.342318 0
M  V30 10 C 4.753472 1.257921 -1.573656 0
M  V30 11 C 4.437584 2.350343 -2.351732 0
M  V30 12 C 3.128400 2.748545 -2.528462 0
M  V30 13 C 2.082851 2.069058 -1.933310 0
M  V30 14 C 0.704589 2.453928 -2.093043 0
M  V30 15 C -0.455641 2.778280 -2.206553 0
M  V30 16 C -1.881401 3.181634 -2.320489 0
M  V30 17 N -2.685364 2.427201 -1.344925 0
M  V30 18 C -2.583715 1.031271 -1.587762 0
M  V30 19 O -1.814441 0.855614 -2.594994 0
M  V30 20 C -3.216576 -0.054559 -0.857672 0
M  V30 21 C -2.910395 -1.324076 -1.360380 0
M  V30 22 N -3.417488 -2.429976 -0.798070 0
M  V30 23 C -4.234373 -2.391067 0.261254 0
M  V30 24 N -4.528936 -1.178106 0.744354 0
M  V30 25 C -5.408568 -1.119392 1.890809 0
M  V30 26 C -6.805545 -1.026001 1.431358 0
M  V30 27 C -7.571563 -2.144580 1.164639 0
M  V30 28 C -8.884643 -2.083730 0.736045 0
M  V30 29 C -9.498017 -0.861193 0.553075 0
M  V30 30 F -10.777242 -0.790397 0.135560 0
M  V30 31 C -8.765206 0.287379 0.809422 0
M  V30 32 F -9.339029 1.517144 0.640020 0
M  V30 33 C -7.467445 0.180148 1.232324 0
M  V30 34 C -4.045166 -0.046484 0.214239 0
M  V30 35 O -4.312183 1.096758 0.656106 0
M  V30 36 C 2.360385 0.969461 -1.146479 0
M  V30 37 C 3.683811 0.606943 -0.997459 0
M  V30 38 N 3.918743 -0.467525 -0.225636 0
M  V30 39 H 3.711227 -3.175721 4.625948 0
M  V30 40 H 4.815340 -1.785016 4.224098 0
M  V30 41 H 5.333064 -3.115928 5.400244 0
M  V30 42 H 7.157212 -4.131186 4.137779 0
M  V30 43 H 7.199648 -2.643245 3.197456 0
M  V30 44 H 6.986064 -4.247960 2.361098 0
M  V30 45 H 4.966427 -4.697646 1.649007 0
M  V30 46 H 3.553395 -4.400226 2.654197 0
M  V30 47 H 3.431967 -3.060886 0.634300 0
M  V30 48 H 3.545673 -2.001733 2.035233 0
M  V30 49 H 6.316252 -2.410722 0.993563 0
M  V30 50 H 7.219374 -0.651406 -0.385681 0
M  V30 51 H 5.268101 2.878874 -2.816078 0
M  V30 52 H 2.899642 3.609189 -3.143276 0
M  V30 53 H -2.203350 2.987818 -3.347117 0
M  V30 54 H -1.940083 4.266823 -2.104451 0
M  V30 55 H -3.284729 2.734339 -0.547898 0
M  V30 56 H -2.263801 -1.516368 -2.212467 0
M  V30 57 H -4.629826 -3.294159 0.696260 0
M  V30 58 H -5.180420 -0.235278 2.520069 0
M  V30 59 H -5.223933 -2.014192 2.523085 0
M  V30 60 H -7.066505 -3.106466 1.315509 0
M  V30 61 H -9.453330 -2.983761 0.537341 0
M  V30 62 H -6.948037 1.109371 1.416728 0
M  V30 63 H 1.557256 0.431830 -0.678351 0
M  V30 END ATOM
M  V30 BEGIN BOND
M  V30 1 1 1 2
M  V30 2 1 2 3
M  V30 3 1 2 4
M  V30 4 1 4 5
M  V30 5 1 5 6
M  V30 6 1 6 7
M  V30 7 2 7 8
M  V30 8 1 8 9
M  V30 9 2 9 10
M  V30 10 1 10 11
M  V30 11 2 11 12
M  V30 12 1 12 13
M  V30 13 1 13 14
M  V30 14 3 14 15
M  V30 15 1 15 16
M  V30 16 1 16 17
M  V30 17 1 17 18
M  V30 18 2 18 19
M  V30 19 1 18 20
M  V30 20 2 20 21
M  V30 21 1 21 22
M  V30 22 2 22 23
M  V30 23 1 23 24
M  V30 24 1 24 25
M  V30 25 1 25 26
M  V30 26 2 26 27
M  V30 27 1 27 28
M  V30 28 2 28 29
M  V30 29 1 29 30
M  V30 30 1 29 31
M  V30 31 1 31 32
M  V30 32 2 31 33
M  V30 33 1 24 34
M  V30 34 2 34 35
M  V30 35 2 13 36
M  V30 36 1 36 37
M  V30 37 2 37 38
M  V30 38 1 38 7
M  V30 39 1 37 10
M  V30 40 1 34 20
M  V30 41 1 33 26
M  V30 42 1 1 39
M  V30 43 1 1 40
M  V30 44 1 1 41
M  V30 45 1 3 42
M  V30 46 1 3 43
M  V30 47 1 3 44
M  V30 48 1 4 45
M  V30 49 1 4 46
M  V30 50 1 5 47
M  V30 51 1 5 48
M  V30 52 1 6 49
M  V30 53 1 8 50
M  V30 54 1 11 51
M  V30 55 1 12 52
M  V30 56 1 16 53
M  V30 57 1 16 54
M  V30 58 1 17 55
M  V30 59 1 21 56
M  V30 60 1 23 57
M  V30 61 1 25 58
M  V30 62 1 25 59
M  V30 63 1 27 60
M  V30 64 1 28 61
M  V30 65 1 33 62
M  V30 66 1 36 63
M  V30 END BOND
M  V30 END CTAB
M  END
>  <Dataset>  (776) 
ChEMBL_Kinases

>  <Ligand_Instance>  (776) 
nan

>  <PDB_ID>  (776) 
nan

>  <Standardized_SMILES>  (776) 
CN(C)CCNc1cnc2ccc(C#CCNC(=O)c3cncn(Cc4ccc(F)c(F)c4)c3=O)cc2n1

>  <Name>  (776) 
nan

>  <Pocket>  (776) 
nan

>  <ATP_Site>  (776) 
nan

>  <Peripheral>  (776) 
nan

>  <Num_H_Atoms_ProtBoundConf>  (776) 
nan

>  <Num_Resolved_Atoms>  (776) 
nan

>  <Num_Not_Resolved_Atoms>  (776) 
nan

$$$$
CHEMBL3688935
     RDKit          3D

  0  0  0  0  0  0  0  0  0  0999 V3000
M  V30 BEGIN CTAB
M  V30 COUNTS 62 67 0 0 0
M  V30 BEGIN ATOM
M  V30 1 C 1.440926 0.602949 3.908725 0
M  V30 2 C 2.025721 1.830431 3.241225 0 CFG=1
M  V30 3 C 3.550431 1.751212 3.263583 0
M  V30 4 O 4.095268 2.572339 2.312518 0
M  V30 5 C 3.321619 3.647297 1.949271 0
M  V30 6 C 2.039933 3.247305 1.258265 0
M  V30 7 N 1.638737 1.975609 1.854398 0
M  V30 8 C 0.943719 1.035846 1.061001 0
M  V30 9 N 0.764326 1.285488 -0.244350 0
M  V30 10 C 0.109983 0.439875 -1.058895 0
M  V30 11 N -0.062505 0.712456 -2.438689 0
M  V30 12 C -1.142859 0.925738 -3.392640 0
M  V30 13 C -1.045002 2.328439 -3.938121 0
M  V30 14 O 0.033465 2.965159 -3.352462 0
M  V30 15 C 1.194311 2.283225 -3.714852 0
M  V30 16 C 1.147585 0.836983 -3.229680 0 CFG=2
M  V30 17 C 1.213182 -0.066238 -4.415878 0
M  V30 18 C -0.407538 -0.732934 -0.568290 0
M  V30 19 C -1.102046 -1.703446 -1.294891 0
M  V30 20 C -1.556615 -2.844436 -0.616346 0
M  V30 21 C -1.351124 -3.064397 0.752438 0
M  V30 22 C -2.147926 -4.186146 1.229118 0
M  V30 23 C -2.777025 -5.144778 0.472044 0
M  V30 24 C -3.487364 -6.140473 1.097118 0
M  V30 25 C -3.611259 -6.239296 2.488519 0
M  V30 26 N -4.236904 -7.097281 3.328061 0
M  V30 27 N -4.017903 -6.700746 4.597252 0
M  V30 28 C -3.238189 -5.573134 4.519048 0
M  V30 29 N -2.843533 -4.927327 5.713092 0
M  V30 30 C -2.964788 -5.255010 3.219568 0
M  V30 31 C -2.253917 -4.258660 2.586883 0
M  V30 32 N -0.685901 -2.081713 1.284901 0
M  V30 33 C -0.221635 -0.983749 0.762921 0
M  V30 34 N 0.432760 -0.116130 1.525515 0
M  V30 35 H 0.367466 0.626159 4.051309 0
M  V30 36 H 1.853131 -0.296353 3.408898 0
M  V30 37 H 1.909677 0.573512 4.936410 0
M  V30 38 H 1.710625 2.738326 3.793051 0
M  V30 39 H 3.922610 1.908041 4.287595 0
M  V30 40 H 3.801752 0.691788 2.970666 0
M  V30 41 H 3.161169 4.354301 2.792479 0
M  V30 42 H 3.938443 4.217176 1.190560 0
M  V30 43 H 2.236457 3.150829 0.188359 0
M  V30 44 H 1.283375 4.030015 1.511832 0
M  V30 45 H -1.179873 0.163374 -4.189570 0
M  V30 46 H -2.143497 0.849490 -2.884904 0
M  V30 47 H -1.967672 2.928282 -3.689238 0
M  V30 48 H -0.974562 2.347942 -5.042645 0
M  V30 49 H 2.042761 2.827736 -3.252600 0
M  V30 50 H 1.288472 2.346294 -4.817567 0
M  V30 51 H 2.045518 0.637112 -2.610854 0
M  V30 52 H 1.101488 0.519630 -5.377477 0
M  V30 53 H 2.240059 -0.530062 -4.514964 0
M  V30 54 H 0.509449 -0.898119 -4.434751 0
M  V30 55 H -1.201634 -1.435408 -2.341996 0
M  V30 56 H -2.063542 -3.424470 -1.405094 0
M  V30 57 H -2.697684 -5.100912 -0.592173 0
M  V30 58 H -3.975347 -6.883207 0.492037 0
M  V30 59 H -4.772889 -7.901179 2.901666 0
M  V30 60 H -3.089636 -4.136064 6.367247 0
M  V30 61 H -2.151111 -4.900422 6.517032 0
M  V30 62 H -1.794118 -3.550508 3.268027 0
M  V30 END ATOM
M  V30 BEGIN BOND
M  V30 1 1 1 2
M  V30 2 1 2 3
M  V30 3 1 3 4
M  V30 4 1 4 5
M  V30 5 1 5 6
M  V30 6 1 6 7
M  V30 7 1 7 8
M  V30 8 2 8 9
M  V30 9 1 9 10
M  V30 10 1 10 11
M  V30 11 1 11 12
M  V30 12 1 12 13
M  V30 13 1 13 14
M  V30 14 1 14 15
M  V30 15 1 15 16
M  V30 16 1 16 17
M  V30 17 2 10 18
M  V30 18 1 18 19
M  V30 19 2 19 20
M  V30 20 1 20 21
M  V30 21 1 21 22
M  V30 22 2 22 23
M  V30 23 1 23 24
M  V30 24 2 24 25
M  V30 25 1 25 26
M  V30 26 1 26 27
M  V30 27 2 27 28
M  V30 28 1 28 29
M  V30 29 1 28 30
M  V30 30 2 30 31
M  V30 31 2 21 32
M  V30 32 1 32 33
M  V30 33 2 33 34
M  V30 34 1 7 2
M  V30 35 1 34 8
M  V30 36 1 16 11
M  V30 37 1 33 18
M  V30 38 1 31 22
M  V30 39 1 30 25
M  V30 40 1 1 35
M  V30 41 1 1 36
M  V30 42 1 1 37
M  V30 43 1 2 38 CFG=1
M  V30 44 1 3 39
M  V30 45 1 3 40
M  V30 46 1 5 41
M  V30 47 1 5 42
M  V30 48 1 6 43
M  V30 49 1 6 44
M  V30 50 1 12 45
M  V30 51 1 12 46
M  V30 52 1 13 47
M  V30 53 1 13 48
M  V30 54 1 15 49
M  V30 55 1 15 50
M  V30 56 1 16 51 CFG=1
M  V30 57 1 17 52
M  V30 58 1 17 53
M  V30 59 1 17 54
M  V30 60 1 19 55
M  V30 61 1 20 56
M  V30 62 1 23 57
M  V30 63 1 24 58
M  V30 64 1 26 59
M  V30 65 1 29 60
M  V30 66 1 29 61
M  V30 67 1 31 62
M  V30 END BOND
M  V30 END CTAB
M  END
>  <Dataset>  (777) 
ChEMBL_Kinases

>  <Ligand_Instance>  (777) 
nan

>  <PDB_ID>  (777) 
nan

>  <Standardized_SMILES>  (777) 
C[C@H]1COCCN1c1nc(N2CCOC[C@@H]2C)c2ccc(-c3ccc4[nH]nc(N)c4c3)nc2n1

>  <Name>  (777) 
nan

>  <Pocket>  (777) 
nan

>  <ATP_Site>  (777) 
nan

>  <Peripheral>  (777) 
nan

>  <Num_H_Atoms_ProtBoundConf>  (777) 
nan

>  <Num_Resolved_Atoms>  (777) 
nan

>  <Num_Not_Resolved_Atoms>  (777) 
nan

$$$$
CHEMBL3688934
     RDKit          3D

  0  0  0  0  0  0  0  0  0  0999 V3000
M  V30 BEGIN CTAB
M  V30 COUNTS 59 63 0 0 0
M  V30 BEGIN ATOM
M  V30 1 C 1.685986 -2.121856 3.726117 0
M  V30 2 C 2.344396 -0.792936 3.897742 0 CFG=1
M  V30 3 C 3.848765 -0.853019 3.668436 0
M  V30 4 O 4.320618 0.396613 3.326440 0
M  V30 5 C 3.601582 1.451557 3.881537 0
M  V30 6 C 2.204711 1.547542 3.253801 0
M  V30 7 N 1.839440 0.178234 2.949277 0
M  V30 8 C 1.052479 -0.089208 1.797900 0
M  V30 9 N 0.700157 0.975143 1.057049 0
M  V30 10 C -0.053968 0.828761 -0.067833 0
M  V30 11 N -0.415483 1.978606 -0.850764 0
M  V30 12 C -0.178126 2.453495 -2.200899 0
M  V30 13 C -1.450933 3.087726 -2.718245 0
M  V30 14 O -1.756927 4.259138 -2.027335 0
M  V30 15 C -1.159356 4.281920 -0.767829 0
M  V30 16 C -1.235407 2.914590 -0.100829 0 CFG=2
M  V30 17 C -0.826311 3.071576 1.327628 0
M  V30 18 C -0.430327 -0.455574 -0.398658 0
M  V30 19 C -1.195759 -0.679485 -1.523001 0
M  V30 20 C -1.548512 -1.980121 -1.812622 0
M  V30 21 C -1.198583 -3.085525 -1.068010 0
M  V30 22 C -1.593191 -4.445820 -1.410439 0
M  V30 23 C -2.355302 -4.784147 -2.508104 0
M  V30 24 C -2.689942 -6.095861 -2.768246 0
M  V30 25 C -2.265845 -7.123652 -1.925505 0
M  V30 26 C -1.496774 -6.796287 -0.815131 0
M  V30 27 N -0.999334 -7.768090 0.128842 0
M  V30 28 C -1.177451 -5.467029 -0.581673 0
M  V30 29 N -0.450934 -2.813142 0.020240 0
M  V30 30 C -0.080834 -1.561797 0.345753 0
M  V30 31 N 0.663074 -1.324541 1.437544 0
M  V30 32 H 2.053095 -2.650946 2.838964 0
M  V30 33 H 1.872678 -2.722352 4.658783 0
M  V30 34 H 0.586286 -1.940801 3.732195 0
M  V30 35 H 2.119496 -0.385461 4.918529 0
M  V30 36 H 3.980689 -1.522492 2.778827 0
M  V30 37 H 4.330664 -1.284897 4.574649 0
M  V30 38 H 3.541720 1.370654 4.970755 0
M  V30 39 H 4.151850 2.377337 3.627150 0
M  V30 40 H 2.297504 2.181225 2.356426 0
M  V30 41 H 1.533632 1.967246 4.016977 0
M  V30 42 H 0.582918 3.276813 -2.086129 0
M  V30 43 H 0.147532 1.688885 -2.905149 0
M  V30 44 H -1.397058 3.288572 -3.788002 0
M  V30 45 H -2.280095 2.378557 -2.529258 0
M  V30 46 H -1.828914 4.933588 -0.133836 0
M  V30 47 H -0.157158 4.713964 -0.747678 0
M  V30 48 H -2.308141 2.634407 -0.127385 0
M  V30 49 H -1.316180 4.017337 1.691389 0
M  V30 50 H -1.120691 2.208367 1.958421 0
M  V30 51 H 0.258417 3.288310 1.381887 0
M  V30 52 H -1.507264 0.142581 -2.152149 0
M  V30 53 H -2.148192 -2.102902 -2.703686 0
M  V30 54 H -2.689533 -4.008949 -3.165708 0
M  V30 55 H -3.280884 -6.374888 -3.616197 0
M  V30 56 H -2.501965 -8.175746 -2.084899 0
M  V30 57 H 0.038533 -7.851811 0.186869 0
M  V30 58 H -1.421976 -8.427117 0.786702 0
M  V30 59 H -0.570003 -5.221230 0.297919 0
M  V30 END ATOM
M  V30 BEGIN BOND
M  V30 1 1 1 2
M  V30 2 1 2 3
M  V30 3 1 3 4
M  V30 4 1 4 5
M  V30 5 1 5 6
M  V30 6 1 6 7
M  V30 7 1 7 8
M  V30 8 2 8 9
M  V30 9 1 9 10
M  V30 10 1 10 11
M  V30 11 1 11 12
M  V30 12 1 12 13
M  V30 13 1 13 14
M  V30 14 1 14 15
M  V30 15 1 15 16
M  V30 16 1 16 17
M  V30 17 2 10 18
M  V30 18 1 18 19
M  V30 19 2 19 20
M  V30 20 1 20 21
M  V30 21 1 21 22
M  V30 22 2 22 23
M  V30 23 1 23 24
M  V30 24 2 24 25
M  V30 25 1 25 26
M  V30 26 1 26 27
M  V30 27 2 26 28
M  V30 28 2 21 29
M  V30 29 1 29 30
M  V30 30 2 30 31
M  V30 31 1 7 2
M  V30 32 1 31 8
M  V30 33 1 16 11
M  V30 34 1 30 18
M  V30 35 1 28 22
M  V30 36 1 1 32
M  V30 37 1 1 33
M  V30 38 1 1 34
M  V30 39 1 2 35 CFG=1
M  V30 40 1 3 36
M  V30 41 1 3 37
M  V30 42 1 5 38
M  V30 43 1 5 39
M  V30 44 1 6 40
M  V30 45 1 6 41
M  V30 46 1 12 42
M  V30 47 1 12 43
M  V30 48 1 13 44
M  V30 49 1 13 45
M  V30 50 1 15 46
M  V30 51 1 15 47
M  V30 52 1 16 48 CFG=1
M  V30 53 1 17 49
M  V30 54 1 17 50
M  V30 55 1 17 51
M  V30 56 1 19 52
M  V30 57 1 20 53
M  V30 58 1 23 54
M  V30 59 1 24 55
M  V30 60 1 25 56
M  V30 61 1 27 57
M  V30 62 1 27 58
M  V30 63 1 28 59
M  V30 END BOND
M  V30 END CTAB
M  END
>  <Dataset>  (778) 
ChEMBL_Kinases

>  <Ligand_Instance>  (778) 
nan

>  <PDB_ID>  (778) 
nan

>  <Standardized_SMILES>  (778) 
C[C@H]1COCCN1c1nc(N2CCOC[C@@H]2C)c2ccc(-c3cccc(N)c3)nc2n1

>  <Name>  (778) 
nan

>  <Pocket>  (778) 
nan

>  <ATP_Site>  (778) 
nan

>  <Peripheral>  (778) 
nan

>  <Num_H_Atoms_ProtBoundConf>  (778) 
nan

>  <Num_Resolved_Atoms>  (778) 
nan

>  <Num_Not_Resolved_Atoms>  (778) 
nan

$$$$
CHEMBL3689230
     RDKit          3D

  0  0  0  0  0  0  0  0  0  0999 V3000
M  V30 BEGIN CTAB
M  V30 COUNTS 78 83 0 0 0
M  V30 BEGIN ATOM
M  V30 1 O 2.126413 -6.891726 2.155525 0
M  V30 2 C 2.022749 -5.720831 1.784378 0
M  V30 3 N 3.246349 -5.440498 1.178859 0
M  V30 4 C 4.567659 -5.343801 0.605999 0
M  V30 5 C 4.657041 -4.022149 -0.091975 0
M  V30 6 C 4.707265 -2.962187 -0.655884 0
M  V30 7 C 4.741777 -1.703181 -1.333354 0
M  V30 8 C 5.839158 -1.086854 -1.860979 0
M  V30 9 C 5.637958 0.115883 -2.528198 0
M  V30 10 C 4.380287 0.652374 -2.646049 0
M  V30 11 N 4.194248 1.807858 -3.320350 0
M  V30 12 C 2.975363 2.332277 -3.464254 0
M  V30 13 C 1.823851 1.735354 -2.938178 0
M  V30 14 N 0.497880 2.263766 -3.134889 0
M  V30 15 C -0.782653 1.891599 -2.645218 0 CFG=1
M  V30 16 C -1.114211 0.448385 -2.697798 0
M  V30 17 C -2.314345 -0.012232 -1.973953 0
M  V30 18 C -2.943146 0.846970 -0.933132 0 CFG=2
M  V30 19 N -4.347012 0.490954 -0.874283 0
M  V30 20 C -5.208508 1.509341 -0.351389 0
M  V30 21 C -5.277999 1.405755 1.149917 0
M  V30 22 O -4.173360 0.790143 1.708031 0
M  V30 23 C -4.068242 -0.549167 1.337289 0
M  V30 24 C -4.520608 -0.740281 -0.083954 0
M  V30 25 C -2.669631 2.280274 -1.087251 0
M  V30 26 C -1.194441 2.530133 -1.337972 0
M  V30 27 N 2.002095 0.562556 -2.251295 0
M  V30 28 C 3.258885 0.062856 -2.128951 0
M  V30 29 C 3.468079 -1.142596 -1.459557 0
M  V30 30 C 0.969591 -4.784958 1.876983 0
M  V30 31 C -0.320962 -5.339526 2.241502 0
M  V30 32 C -1.471341 -4.460851 2.263913 0
M  V30 33 N -1.386306 -3.119063 1.954228 0
M  V30 34 N -0.202281 -2.525020 1.606828 0
M  V30 35 C 0.039240 -1.142124 1.323394 0
M  V30 36 C 0.223952 -0.349645 2.574813 0
M  V30 37 C -0.731966 0.547190 3.028592 0
M  V30 38 C -0.651320 1.273153 4.179982 0
M  V30 39 C 0.478269 1.124652 4.994469 0
M  V30 40 F 0.499561 1.866385 6.135831 0
M  V30 41 C 1.428993 0.251516 4.569180 0
M  V30 42 F 2.491407 0.150138 5.404074 0
M  V30 43 C 1.307373 -0.451388 3.413602 0
M  V30 44 C 0.361755 -3.628002 1.740158 0
M  V30 45 O 1.563218 -3.027101 1.388419 0
M  V30 46 H 3.047736 -4.443287 0.865645 0
M  V30 47 H 4.769555 -6.156436 -0.124727 0
M  V30 48 H 5.380471 -5.359425 1.354424 0
M  V30 49 H 6.715950 -1.666279 -1.660626 0
M  V30 50 H 6.540085 0.555558 -2.919163 0
M  V30 51 H 2.865255 3.266620 -4.017408 0
M  V30 52 H 0.546885 3.107129 -3.784268 0
M  V30 53 H -1.524361 2.366552 -3.390462 0
M  V30 54 H -0.239622 -0.091670 -2.222053 0
M  V30 55 H -1.125557 0.076310 -3.764087 0
M  V30 56 H -2.149441 -1.020979 -1.462838 0
M  V30 57 H -3.116469 -0.260170 -2.726181 0
M  V30 58 H -2.543456 0.561020 0.107073 0
M  V30 59 H -6.249546 1.271195 -0.740214 0
M  V30 60 H -5.006171 2.511759 -0.741425 0
M  V30 61 H -5.426134 2.406783 1.628540 0
M  V30 62 H -6.176064 0.779282 1.453090 0
M  V30 63 H -3.024297 -0.898172 1.457919 0
M  V30 64 H -4.679691 -1.205141 1.997563 0
M  V30 65 H -3.924809 -1.516524 -0.603560 0
M  V30 66 H -5.592589 -1.000136 -0.110319 0
M  V30 67 H -2.934850 2.881576 -0.191778 0
M  V30 68 H -3.265342 2.628837 -1.990331 0
M  V30 69 H -0.558356 2.074020 -0.562696 0
M  V30 70 H -1.016990 3.608451 -1.346916 0
M  V30 71 H 2.549509 -1.566106 -1.066727 0
M  V30 72 H -0.440341 -6.412371 2.500215 0
M  V30 73 H -2.461324 -4.902806 2.545283 0
M  V30 74 H -0.681530 -0.725679 0.622690 0
M  V30 75 H 1.039913 -1.082816 0.789512 0
M  V30 76 H -1.610391 0.709636 2.442543 0
M  V30 77 H -1.436973 1.958450 4.477002 0
M  V30 78 H 2.131713 -1.101972 3.189095 0
M  V30 END ATOM
M  V30 BEGIN BOND
M  V30 1 2 1 2
M  V30 2 1 2 3
M  V30 3 1 3 4
M  V30 4 1 4 5
M  V30 5 3 5 6
M  V30 6 1 6 7
M  V30 7 2 7 8
M  V30 8 1 8 9
M  V30 9 2 9 10
M  V30 10 1 10 11
M  V30 11 2 11 12
M  V30 12 1 12 13
M  V30 13 1 13 14
M  V30 14 1 14 15
M  V30 15 1 15 16
M  V30 16 1 16 17
M  V30 17 1 17 18
M  V30 18 1 18 19
M  V30 19 1 19 20
M  V30 20 1 20 21
M  V30 21 1 21 22
M  V30 22 1 22 23
M  V30 23 1 23 24
M  V30 24 1 18 25
M  V30 25 1 25 26
M  V30 26 2 13 27
M  V30 27 1 27 28
M  V30 28 2 28 29
M  V30 29 1 2 30
M  V30 30 2 30 31
M  V30 31 1 31 32
M  V30 32 2 32 33
M  V30 33 1 33 34
M  V30 34 1 34 35
M  V30 35 1 35 36
M  V30 36 2 36 37
M  V30 37 1 37 38
M  V30 38 2 38 39
M  V30 39 1 39 40
M  V30 40 1 39 41
M  V30 41 1 41 42
M  V30 42 2 41 43
M  V30 43 1 34 44
M  V30 44 2 44 45
M  V30 45 1 29 7
M  V30 46 1 44 30
M  V30 47 1 28 10
M  V30 48 1 43 36
M  V30 49 1 26 15
M  V30 50 1 24 19
M  V30 51 1 3 46
M  V30 52 1 4 47
M  V30 53 1 4 48
M  V30 54 1 8 49
M  V30 55 1 9 50
M  V30 56 1 12 51
M  V30 57 1 14 52
M  V30 58 1 15 53 CFG=3
M  V30 59 1 16 54
M  V30 60 1 16 55
M  V30 61 1 17 56
M  V30 62 1 17 57
M  V30 63 1 18 58 CFG=1
M  V30 64 1 20 59
M  V30 65 1 20 60
M  V30 66 1 21 61
M  V30 67 1 21 62
M  V30 68 1 23 63
M  V30 69 1 23 64
M  V30 70 1 24 65
M  V30 71 1 24 66
M  V30 72 1 25 67
M  V30 73 1 25 68
M  V30 74 1 26 69
M  V30 75 1 26 70
M  V30 76 1 29 71
M  V30 77 1 31 72
M  V30 78 1 32 73
M  V30 79 1 35 74
M  V30 80 1 35 75
M  V30 81 1 37 76
M  V30 82 1 38 77
M  V30 83 1 43 78
M  V30 END BOND
M  V30 END CTAB
M  END
>  <Dataset>  (779) 
ChEMBL_Kinases

>  <Ligand_Instance>  (779) 
nan

>  <PDB_ID>  (779) 
nan

>  <Standardized_SMILES>  (779) 
O=C(NCC#Cc1ccc2ncc(N[C@H]3CC[C@H](N4CCOCC4)CC3)nc2c1)c1ccnn(Cc2ccc(F)c(F)c2)c1=O

>  <Name>  (779) 
nan

>  <Pocket>  (779) 
nan

>  <ATP_Site>  (779) 
nan

>  <Peripheral>  (779) 
nan

>  <Num_H_Atoms_ProtBoundConf>  (779) 
nan

>  <Num_Resolved_Atoms>  (779) 
nan

>  <Num_Not_Resolved_Atoms>  (779) 
nan

$$$$
CHEMBL3687176
     RDKit          3D

  0  0  0  0  0  0  0  0  0  0999 V3000
M  V30 BEGIN CTAB
M  V30 COUNTS 55 58 0 0 0
M  V30 BEGIN ATOM
M  V30 1 C -1.042721 2.151958 6.241304 0
M  V30 2 O 0.240989 1.604837 6.092729 0
M  V30 3 C 0.155844 0.580558 5.157548 0
M  V30 4 C 1.461979 -0.100898 4.896624 0
M  V30 5 N 2.469115 0.786807 4.395871 0
M  V30 6 C 2.633721 1.001440 3.078099 0
M  V30 7 C 3.657818 1.889856 2.824372 0
M  V30 8 N 4.154494 2.384648 1.587705 0
M  V30 9 C 3.665813 2.049236 0.297544 0
M  V30 10 N 4.267322 2.623341 -0.787073 0
M  V30 11 C 3.863063 2.357780 -2.038188 0
M  V30 12 C 2.816124 1.485270 -2.235922 0
M  V30 13 C 2.193464 0.894213 -1.165630 0
M  V30 14 C 1.088546 -0.024643 -1.386308 0
M  V30 15 C 0.418625 -0.650758 -0.367905 0
M  V30 16 C -0.633696 -1.529455 -0.518303 0
M  V30 17 C -1.081418 -1.831213 -1.787070 0
M  V30 18 O -2.110697 -2.680522 -2.106282 0
M  V30 19 C -2.927197 -3.420431 -1.277269 0
M  V30 20 C -4.392983 -3.071781 -1.380917 0
M  V30 21 C -5.079116 -3.599800 -2.573039 0
M  V30 22 O -4.545836 -4.640525 -3.225932 0
M  V30 23 C -3.490604 -5.306579 -2.757721 0
M  V30 24 C -2.844830 -4.911469 -1.493891 0
M  V30 25 C -0.425853 -1.214184 -2.857364 0
M  V30 26 C -0.859321 -1.498627 -4.217260 0
M  V30 27 N -1.213745 -1.724133 -5.293538 0
M  V30 28 C 0.635548 -0.331383 -2.645642 0
M  V30 29 N 2.665906 1.219697 0.046470 0
M  V30 30 C 4.110559 2.205218 4.089176 0
M  V30 31 N 3.370720 1.523877 4.976124 0
M  V30 32 H -1.769096 1.391117 6.591122 0
M  V30 33 H -1.038609 2.967990 6.986511 0
M  V30 34 H -1.313311 2.530989 5.221614 0
M  V30 35 H -0.358474 0.902750 4.224794 0
M  V30 36 H -0.538354 -0.175070 5.606517 0
M  V30 37 H 1.316161 -0.957098 4.240660 0
M  V30 38 H 1.801506 -0.513973 5.885849 0
M  V30 39 H 2.072293 0.568465 2.261508 0
M  V30 40 H 4.964299 3.065455 1.653540 0
M  V30 41 H 4.427037 2.881789 -2.822613 0
M  V30 42 H 2.574768 1.343901 -3.270520 0
M  V30 43 H 0.686196 -0.485647 0.657935 0
M  V30 44 H -1.135237 -2.002594 0.314453 0
M  V30 45 H -2.639556 -3.248595 -0.221438 0
M  V30 46 H -4.449350 -1.959159 -1.270690 0
M  V30 47 H -4.874402 -3.472942 -0.442433 0
M  V30 48 H -5.223265 -2.753014 -3.279187 0
M  V30 49 H -6.134401 -3.870511 -2.275217 0
M  V30 50 H -2.700103 -5.312729 -3.565641 0
M  V30 51 H -3.764814 -6.398690 -2.671935 0
M  V30 52 H -1.787324 -5.230994 -1.497857 0
M  V30 53 H -3.363165 -5.386154 -0.628423 0
M  V30 54 H 1.057695 0.077348 -3.528888 0
M  V30 55 H 4.912956 2.874094 4.369275 0
M  V30 END ATOM
M  V30 BEGIN BOND
M  V30 1 1 1 2
M  V30 2 1 2 3
M  V30 3 1 3 4
M  V30 4 1 4 5
M  V30 5 1 5 6
M  V30 6 2 6 7
M  V30 7 1 7 8
M  V30 8 1 8 9
M  V30 9 2 9 10
M  V30 10 1 10 11
M  V30 11 2 11 12
M  V30 12 1 12 13
M  V30 13 1 13 14
M  V30 14 2 14 15
M  V30 15 1 15 16
M  V30 16 2 16 17
M  V30 17 1 17 18
M  V30 18 1 18 19
M  V30 19 1 19 20
M  V30 20 1 20 21
M  V30 21 1 21 22
M  V30 22 1 22 23
M  V30 23 1 23 24
M  V30 24 1 17 25
M  V30 25 1 25 26
M  V30 26 3 26 27
M  V30 27 2 25 28
M  V30 28 2 13 29
M  V30 29 1 7 30
M  V30 30 2 30 31
M  V30 31 1 31 5
M  V30 32 1 29 9
M  V30 33 1 28 14
M  V30 34 1 24 19
M  V30 35 1 1 32
M  V30 36 1 1 33
M  V30 37 1 1 34
M  V30 38 1 3 35
M  V30 39 1 3 36
M  V30 40 1 4 37
M  V30 41 1 4 38
M  V30 42 1 6 39
M  V30 43 1 8 40
M  V30 44 1 11 41
M  V30 45 1 12 42
M  V30 46 1 15 43
M  V30 47 1 16 44
M  V30 48 1 19 45
M  V30 49 1 20 46
M  V30 50 1 20 47
M  V30 51 1 21 48
M  V30 52 1 21 49
M  V30 53 1 23 50
M  V30 54 1 23 51
M  V30 55 1 24 52
M  V30 56 1 24 53
M  V30 57 1 28 54
M  V30 58 1 30 55
M  V30 END BOND
M  V30 END CTAB
M  END
>  <Dataset>  (780) 
ChEMBL_Kinases

>  <Ligand_Instance>  (780) 
nan

>  <PDB_ID>  (780) 
nan

>  <Standardized_SMILES>  (780) 
COCCn1cc(Nc2nccc(-c3ccc(OC4CCOCC4)c(C#N)c3)n2)cn1

>  <Name>  (780) 
nan

>  <Pocket>  (780) 
nan

>  <ATP_Site>  (780) 
nan

>  <Peripheral>  (780) 
nan

>  <Num_H_Atoms_ProtBoundConf>  (780) 
nan

>  <Num_Resolved_Atoms>  (780) 
nan

>  <Num_Not_Resolved_Atoms>  (780) 
nan

$$$$
CHEMBL3687177
     RDKit          3D

  0  0  0  0  0  0  0  0  0  0999 V3000
M  V30 BEGIN CTAB
M  V30 COUNTS 56 60 0 0 0
M  V30 BEGIN ATOM
M  V30 1 N 2.447246 -5.080878 -2.497951 0
M  V30 2 C 2.045997 -4.307205 -1.749552 0
M  V30 3 C 1.570308 -3.342731 -0.809626 0
M  V30 4 C 2.472112 -2.656952 -0.029813 0
M  V30 5 C 1.939341 -1.744370 0.854775 0
M  V30 6 C 2.892769 -1.016763 1.687187 0
M  V30 7 C 4.090826 -1.511356 2.142118 0
M  V30 8 C 4.881758 -0.693823 2.922597 0
M  V30 9 N 4.556738 0.564741 3.270919 0
M  V30 10 C 3.397909 1.083072 2.847434 0
M  V30 11 N 2.996242 2.419119 3.186533 0
M  V30 12 C 1.767350 2.906027 2.702486 0
M  V30 13 N 1.818867 3.530863 1.512902 0
M  V30 14 C 0.743294 4.054041 0.906577 0
M  V30 15 C -0.503514 3.953003 1.530376 0
M  V30 16 C -0.554943 3.311275 2.751395 0
M  V30 17 N 0.565969 2.792918 3.332991 0
M  V30 18 C -1.884741 3.206427 3.408788 0
M  V30 19 C -2.812446 2.666171 2.315068 0
M  V30 20 N -2.906888 3.577084 1.227013 0
M  V30 21 C -1.806531 4.462522 1.031371 0
M  V30 22 C 2.593174 0.275968 2.063806 0
M  V30 23 C 0.583887 -1.512397 0.971813 0
M  V30 24 C -0.272722 -2.251392 0.141684 0
M  V30 25 C 0.207546 -3.196235 -0.780531 0
M  V30 26 O -0.849101 -3.721157 -1.409589 0
M  V30 27 C -1.125835 -4.635687 -2.379212 0
M  V30 28 C -2.022830 -5.780417 -1.850517 0
M  V30 29 C -3.295499 -5.078712 -1.376162 0
M  V30 30 O -3.973608 -4.677487 -2.525765 0
M  V30 31 C -3.286822 -3.712276 -3.253254 0
M  V30 32 C -1.873258 -4.055290 -3.574578 0
M  V30 33 H 3.520125 -2.876679 -0.161675 0
M  V30 34 H 4.353088 -2.520891 1.863541 0
M  V30 35 H 5.818005 -1.104847 3.268085 0
M  V30 36 H 3.638218 2.976306 3.782299 0
M  V30 37 H 0.722423 4.564132 -0.042030 0
M  V30 38 H -2.285849 4.233348 3.636527 0
M  V30 39 H -1.876186 2.568355 4.289171 0
M  V30 40 H -3.778744 2.355932 2.712937 0
M  V30 41 H -2.280171 1.750795 1.939340 0
M  V30 42 H -3.258203 3.130668 0.359790 0
M  V30 43 H -1.741751 4.776509 -0.030050 0
M  V30 44 H -2.023473 5.404212 1.608402 0
M  V30 45 H 1.659390 0.739700 1.741261 0
M  V30 46 H 0.294852 -0.774808 1.699617 0
M  V30 47 H -1.310551 -1.947041 0.360839 0
M  V30 48 H -0.203876 -5.066486 -2.803221 0
M  V30 49 H -2.302275 -6.383829 -2.712745 0
M  V30 50 H -1.475563 -6.275499 -1.049480 0
M  V30 51 H -3.963018 -5.757271 -0.821261 0
M  V30 52 H -2.973955 -4.191403 -0.811059 0
M  V30 53 H -3.307848 -2.713920 -2.747111 0
M  V30 54 H -3.842138 -3.604079 -4.217519 0
M  V30 55 H -1.382447 -3.119360 -3.921106 0
M  V30 56 H -1.779142 -4.797815 -4.392988 0
M  V30 END ATOM
M  V30 BEGIN BOND
M  V30 1 3 1 2
M  V30 2 1 2 3
M  V30 3 2 3 4
M  V30 4 1 4 5
M  V30 5 1 5 6
M  V30 6 2 6 7
M  V30 7 1 7 8
M  V30 8 2 8 9
M  V30 9 1 9 10
M  V30 10 1 10 11
M  V30 11 1 11 12
M  V30 12 2 12 13
M  V30 13 1 13 14
M  V30 14 2 14 15
M  V30 15 1 15 16
M  V30 16 2 16 17
M  V30 17 1 16 18
M  V30 18 1 18 19
M  V30 19 1 19 20
M  V30 20 1 20 21
M  V30 21 2 10 22
M  V30 22 2 5 23
M  V30 23 1 23 24
M  V30 24 2 24 25
M  V30 25 1 25 26
M  V30 26 1 26 27
M  V30 27 1 27 28
M  V30 28 1 28 29
M  V30 29 1 29 30
M  V30 30 1 30 31
M  V30 31 1 31 32
M  V30 32 1 25 3
M  V30 33 1 32 27
M  V30 34 1 22 6
M  V30 35 1 17 12
M  V30 36 1 21 15
M  V30 37 1 4 33
M  V30 38 1 7 34
M  V30 39 1 8 35
M  V30 40 1 11 36
M  V30 41 1 14 37
M  V30 42 1 18 38
M  V30 43 1 18 39
M  V30 44 1 19 40
M  V30 45 1 19 41
M  V30 46 1 20 42
M  V30 47 1 21 43
M  V30 48 1 21 44
M  V30 49 1 22 45
M  V30 50 1 23 46
M  V30 51 1 24 47
M  V30 52 1 27 48
M  V30 53 1 28 49
M  V30 54 1 28 50
M  V30 55 1 29 51
M  V30 56 1 29 52
M  V30 57 1 31 53
M  V30 58 1 31 54
M  V30 59 1 32 55
M  V30 60 1 32 56
M  V30 END BOND
M  V30 END CTAB
M  END
>  <Dataset>  (781) 
ChEMBL_Kinases

>  <Ligand_Instance>  (781) 
nan

>  <PDB_ID>  (781) 
nan

>  <Standardized_SMILES>  (781) 
N#Cc1cc(-c2ccnc(Nc3ncc4c(n3)CCNC4)c2)ccc1OC1CCOCC1

>  <Name>  (781) 
nan

>  <Pocket>  (781) 
nan

>  <ATP_Site>  (781) 
nan

>  <Peripheral>  (781) 
nan

>  <Num_H_Atoms_ProtBoundConf>  (781) 
nan

>  <Num_Resolved_Atoms>  (781) 
nan

>  <Num_Not_Resolved_Atoms>  (781) 
nan

$$$$
CHEMBL3687178
     RDKit          3D

  0  0  0  0  0  0  0  0  0  0999 V3000
M  V30 BEGIN CTAB
M  V30 COUNTS 52 55 0 0 0
M  V30 BEGIN ATOM
M  V30 1 N 0.765500 -4.705007 -0.851694 0
M  V30 2 C 0.580546 -3.875124 -0.070615 0
M  V30 3 C 0.329789 -2.855348 0.907478 0
M  V30 4 C 1.271779 -1.850764 0.978963 0
M  V30 5 C 1.124391 -0.819128 1.880009 0
M  V30 6 C 2.037200 0.320462 2.040102 0
M  V30 7 C 2.335619 1.036650 3.180514 0
M  V30 8 C 3.228196 2.098598 3.063677 0
M  V30 9 N 3.772128 2.402551 1.872095 0
M  V30 10 C 3.495007 1.715724 0.744811 0
M  V30 11 N 4.180791 2.223042 -0.402098 0
M  V30 12 C 3.125508 3.039693 -0.911579 0
M  V30 13 C 2.365809 2.424828 -1.915742 0
M  V30 14 C 1.280835 2.996982 -2.575297 0
M  V30 15 C 0.933054 4.276460 -2.201604 0
M  V30 16 C -0.195841 4.967245 -2.846906 0
M  V30 17 N -0.881670 4.304095 -3.897910 0
M  V30 18 O -0.472478 6.106674 -2.413430 0
M  V30 19 C 1.683002 4.873159 -1.216760 0
M  V30 20 N 2.736451 4.293483 -0.588954 0
M  V30 21 C 2.616926 0.660284 0.826138 0
M  V30 22 C 0.023166 -0.754303 2.748954 0
M  V30 23 C -0.893579 -1.787050 2.637076 0
M  V30 24 C -0.766141 -2.828378 1.742386 0
M  V30 25 O -1.651138 -3.851687 1.611521 0
M  V30 26 C -2.861355 -4.046364 2.295583 0
M  V30 27 C -2.807857 -5.423413 2.925743 0
M  V30 28 C -2.371977 -6.376191 1.804312 0
M  V30 29 O -2.379715 -5.760338 0.569184 0
M  V30 30 C -3.573496 -5.136796 0.254018 0
M  V30 31 C -4.030141 -4.134981 1.296321 0
M  V30 32 H 2.182292 -1.782438 0.358865 0
M  V30 33 H 1.822415 0.677596 4.070463 0
M  V30 34 H 3.413410 2.608158 3.994324 0
M  V30 35 H 5.144848 2.077900 -0.794097 0
M  V30 36 H 2.600452 1.419701 -2.238130 0
M  V30 37 H 0.750299 2.455606 -3.334683 0
M  V30 38 H -1.705920 3.656666 -3.723546 0
M  V30 39 H -1.653454 3.726676 -3.448180 0
M  V30 40 H 1.449113 5.881310 -0.889183 0
M  V30 41 H 2.471324 0.182901 -0.143182 0
M  V30 42 H -0.121107 0.044311 3.467405 0
M  V30 43 H -1.761285 -1.770612 3.295979 0
M  V30 44 H -3.118445 -3.266121 3.017281 0
M  V30 45 H -3.811304 -5.729741 3.310055 0
M  V30 46 H -2.053283 -5.386961 3.740971 0
M  V30 47 H -1.341254 -6.743141 1.997193 0
M  V30 48 H -3.000798 -7.303757 1.787378 0
M  V30 49 H -3.366122 -4.543836 -0.683242 0
M  V30 50 H -4.361042 -5.869140 -0.027556 0
M  V30 51 H -4.306044 -3.156169 0.885532 0
M  V30 52 H -4.870060 -4.610507 1.853744 0
M  V30 END ATOM
M  V30 BEGIN BOND
M  V30 1 3 1 2
M  V30 2 1 2 3
M  V30 3 2 3 4
M  V30 4 1 4 5
M  V30 5 1 5 6
M  V30 6 2 6 7
M  V30 7 1 7 8
M  V30 8 2 8 9
M  V30 9 1 9 10
M  V30 10 1 10 11
M  V30 11 1 11 12
M  V30 12 2 12 13
M  V30 13 1 13 14
M  V30 14 2 14 15
M  V30 15 1 15 16
M  V30 16 1 16 17
M  V30 17 2 16 18
M  V30 18 1 15 19
M  V30 19 2 19 20
M  V30 20 2 10 21
M  V30 21 2 5 22
M  V30 22 1 22 23
M  V30 23 2 23 24
M  V30 24 1 24 25
M  V30 25 1 25 26
M  V30 26 1 26 27
M  V30 27 1 27 28
M  V30 28 1 28 29
M  V30 29 1 29 30
M  V30 30 1 30 31
M  V30 31 1 24 3
M  V30 32 1 31 26
M  V30 33 1 21 6
M  V30 34 1 20 12
M  V30 35 1 4 32
M  V30 36 1 7 33
M  V30 37 1 8 34
M  V30 38 1 11 35
M  V30 39 1 13 36
M  V30 40 1 14 37
M  V30 41 1 17 38
M  V30 42 1 17 39
M  V30 43 1 19 40
M  V30 44 1 21 41
M  V30 45 1 22 42
M  V30 46 1 23 43
M  V30 47 1 26 44
M  V30 48 1 27 45
M  V30 49 1 27 46
M  V30 50 1 28 47
M  V30 51 1 28 48
M  V30 52 1 30 49
M  V30 53 1 30 50
M  V30 54 1 31 51
M  V30 55 1 31 52
M  V30 END BOND
M  V30 END CTAB
M  END
>  <Dataset>  (782) 
ChEMBL_Kinases

>  <Ligand_Instance>  (782) 
nan

>  <PDB_ID>  (782) 
nan

>  <Standardized_SMILES>  (782) 
N#Cc1cc(-c2ccnc(Nc3ccc(C(N)=O)cn3)c2)ccc1OC1CCOCC1

>  <Name>  (782) 
nan

>  <Pocket>  (782) 
nan

>  <ATP_Site>  (782) 
nan

>  <Peripheral>  (782) 
nan

>  <Num_H_Atoms_ProtBoundConf>  (782) 
nan

>  <Num_Resolved_Atoms>  (782) 
nan

>  <Num_Not_Resolved_Atoms>  (782) 
nan

$$$$
CHEMBL3687179
     RDKit          3D

  0  0  0  0  0  0  0  0  0  0999 V3000
M  V30 BEGIN CTAB
M  V30 COUNTS 59 63 0 0 0
M  V30 BEGIN ATOM
M  V30 1 N -1.551868 -5.101741 2.514129 0
M  V30 2 C -1.006816 -4.405234 1.788689 0
M  V30 3 C -0.309775 -3.537530 0.902493 0
M  V30 4 C 0.966581 -3.135772 1.220333 0
M  V30 5 C 1.585393 -2.296494 0.321550 0
M  V30 6 C 2.942426 -1.849041 0.651392 0
M  V30 7 C 3.843184 -2.644834 1.365317 0
M  V30 8 C 5.101454 -2.121814 1.639177 0
M  V30 9 N 5.482922 -0.905033 1.255203 0
M  V30 10 C 4.680354 -0.070023 0.564398 0
M  V30 11 N 4.792989 1.253165 0.059907 0
M  V30 12 C 3.901800 2.147245 0.763151 0
M  V30 13 C 3.603588 3.457550 0.383763 0
M  V30 14 N 2.727609 3.995373 1.254901 0
M  V30 15 N 2.433966 3.109117 2.188521 0
M  V30 16 C 1.573573 3.063759 3.359509 0
M  V30 17 C 0.211553 2.532448 3.083656 0
M  V30 18 N -0.545027 3.277596 2.113928 0
M  V30 19 C -0.458083 2.934958 0.798185 0
M  V30 20 C -1.254569 3.763864 0.066608 0
M  V30 21 C -1.843290 4.638698 0.977005 0
M  V30 22 N -1.379782 4.296101 2.176947 0
M  V30 23 C 3.138314 1.982646 1.904211 0
M  V30 24 C 3.410409 -0.583028 0.279681 0
M  V30 25 C 0.985295 -1.850167 -0.865512 0
M  V30 26 C -0.316848 -2.314050 -1.100954 0
M  V30 27 C -1.002216 -3.170000 -0.225960 0
M  V30 28 O -2.202958 -3.418331 -0.737762 0
M  V30 29 C -3.333362 -4.137307 -0.415949 0
M  V30 30 C -3.625116 -5.209716 -1.494366 0
M  V30 31 C -5.006340 -5.024840 -2.071360 0
M  V30 32 O -5.220025 -3.804840 -2.670566 0
M  V30 33 C -4.555820 -2.775986 -2.002221 0
M  V30 34 C -4.538382 -3.187875 -0.549333 0
M  V30 35 H 1.418637 -3.472501 2.120656 0
M  V30 36 H 3.539951 -3.632499 1.680155 0
M  V30 37 H 5.836309 -2.692888 2.185578 0
M  V30 38 H 5.385662 1.653189 -0.694872 0
M  V30 39 H 4.024547 3.944275 -0.481215 0
M  V30 40 H 1.455503 4.130265 3.672463 0
M  V30 41 H 2.028354 2.508389 4.196158 0
M  V30 42 H 0.203189 1.458099 2.802208 0
M  V30 43 H -0.332225 2.559282 4.079902 0
M  V30 44 H 0.134413 2.137253 0.331605 0
M  V30 45 H -1.394464 3.738278 -1.002261 0
M  V30 46 H -2.536735 5.424933 0.696750 0
M  V30 47 H 3.168970 1.023977 2.438678 0
M  V30 48 H 2.645041 -0.033065 -0.268008 0
M  V30 49 H 1.549060 -1.190499 -1.515659 0
M  V30 50 H -0.661399 -1.886487 -2.057118 0
M  V30 51 H -3.350895 -4.622143 0.581365 0
M  V30 52 H -2.888968 -5.109744 -2.321273 0
M  V30 53 H -3.584520 -6.185040 -0.996581 0
M  V30 54 H -5.093149 -5.787042 -2.893239 0
M  V30 55 H -5.809746 -5.291502 -1.362553 0
M  V30 56 H -3.511305 -2.809615 -2.436577 0
M  V30 57 H -4.990901 -1.782657 -2.169071 0
M  V30 58 H -4.341694 -2.340667 0.129712 0
M  V30 59 H -5.455900 -3.665388 -0.205924 0
M  V30 END ATOM
M  V30 BEGIN BOND
M  V30 1 3 1 2
M  V30 2 1 2 3
M  V30 3 2 3 4
M  V30 4 1 4 5
M  V30 5 1 5 6
M  V30 6 2 6 7
M  V30 7 1 7 8
M  V30 8 2 8 9
M  V30 9 1 9 10
M  V30 10 1 10 11
M  V30 11 1 11 12
M  V30 12 1 12 13
M  V30 13 2 13 14
M  V30 14 1 14 15
M  V30 15 1 15 16
M  V30 16 1 16 17
M  V30 17 1 17 18
M  V30 18 1 18 19
M  V30 19 2 19 20
M  V30 20 1 20 21
M  V30 21 2 21 22
M  V30 22 1 15 23
M  V30 23 2 10 24
M  V30 24 2 5 25
M  V30 25 1 25 26
M  V30 26 2 26 27
M  V30 27 1 27 28
M  V30 28 1 28 29
M  V30 29 1 29 30
M  V30 30 1 30 31
M  V30 31 1 31 32
M  V30 32 1 32 33
M  V30 33 1 33 34
M  V30 34 1 27 3
M  V30 35 1 34 29
M  V30 36 1 24 6
M  V30 37 2 23 12
M  V30 38 1 22 18
M  V30 39 1 4 35
M  V30 40 1 7 36
M  V30 41 1 8 37
M  V30 42 1 11 38
M  V30 43 1 13 39
M  V30 44 1 16 40
M  V30 45 1 16 41
M  V30 46 1 17 42
M  V30 47 1 17 43
M  V30 48 1 19 44
M  V30 49 1 20 45
M  V30 50 1 21 46
M  V30 51 1 23 47
M  V30 52 1 24 48
M  V30 53 1 25 49
M  V30 54 1 26 50
M  V30 55 1 29 51
M  V30 56 1 30 52
M  V30 57 1 30 53
M  V30 58 1 31 54
M  V30 59 1 31 55
M  V30 60 1 33 56
M  V30 61 1 33 57
M  V30 62 1 34 58
M  V30 63 1 34 59
M  V30 END BOND
M  V30 END CTAB
M  END
>  <Dataset>  (783) 
ChEMBL_Kinases

>  <Ligand_Instance>  (783) 
nan

>  <PDB_ID>  (783) 
nan

>  <Standardized_SMILES>  (783) 
N#Cc1cc(-c2ccnc(Nc3cnn(CCn4cccn4)c3)c2)ccc1OC1CCOCC1

>  <Name>  (783) 
nan

>  <Pocket>  (783) 
nan

>  <ATP_Site>  (783) 
nan

>  <Peripheral>  (783) 
nan

>  <Num_H_Atoms_ProtBoundConf>  (783) 
nan

>  <Num_Resolved_Atoms>  (783) 
nan

>  <Num_Not_Resolved_Atoms>  (783) 
nan

$$$$
CHEMBL3687180
     RDKit          3D

  0  0  0  0  0  0  0  0  0  0999 V3000
M  V30 BEGIN CTAB
M  V30 COUNTS 64 68 0 0 0
M  V30 BEGIN ATOM
M  V30 1 N 3.485606 -5.101260 -2.743360 0
M  V30 2 C 3.038813 -4.200400 -2.172165 0
M  V30 3 C 2.486599 -3.056226 -1.467581 0
M  V30 4 C 3.206860 -2.615589 -0.377024 0
M  V30 5 C 2.742071 -1.532243 0.339711 0
M  V30 6 C 3.434348 -0.970809 1.494257 0
M  V30 7 C 4.632868 -1.487715 1.935500 0
M  V30 8 C 5.323313 -0.971817 3.011331 0
M  V30 9 N 4.796176 0.082568 3.652107 0
M  V30 10 C 3.611850 0.616999 3.240536 0
M  V30 11 N 3.135648 1.742218 3.963225 0
M  V30 12 C 1.909383 2.441714 3.808895 0
M  V30 13 C 1.433055 3.633895 4.328830 0
M  V30 14 N 0.191026 3.826806 3.872438 0
M  V30 15 N -0.205455 2.851421 3.082732 0
M  V30 16 C -1.462508 2.625772 2.359506 0
M  V30 17 C -2.394159 1.858851 3.265920 0
M  V30 18 N -3.640257 1.617067 2.597441 0
M  V30 19 C -4.614408 0.987868 3.494793 0
M  V30 20 C -3.894644 -0.101115 4.237703 0
M  V30 21 O -3.229050 -0.972488 3.377102 0
M  V30 22 C -3.626118 -0.797177 2.055256 0
M  V30 23 C -3.442367 0.608299 1.546281 0
M  V30 24 C 0.846321 2.006557 3.045320 0
M  V30 25 N 2.977998 0.093379 2.203127 0
M  V30 26 C 1.560741 -0.929353 -0.070575 0
M  V30 27 C 0.888086 -1.421008 -1.172626 0
M  V30 28 C 1.310156 -2.498795 -1.922530 0
M  V30 29 O 0.726285 -3.053323 -3.016127 0
M  V30 30 C -0.439971 -2.701922 -3.677442 0
M  V30 31 C -1.455332 -3.772696 -3.866287 0
M  V30 32 C -1.424865 -4.239081 -5.309565 0
M  V30 33 O -1.872524 -3.273795 -6.207723 0
M  V30 34 C -1.510079 -2.010512 -5.757069 0
M  V30 35 C -0.184291 -2.040748 -5.019973 0
M  V30 36 H 4.112358 -3.101653 -0.085847 0
M  V30 37 H 5.117933 -2.332220 1.474394 0
M  V30 38 H 6.278577 -1.383326 3.362378 0
M  V30 39 H 3.707399 2.169160 4.726388 0
M  V30 40 H 2.022706 4.256238 4.987747 0
M  V30 41 H -1.186285 2.122532 1.435186 0
M  V30 42 H -1.865361 3.658501 2.133068 0
M  V30 43 H -1.852786 0.897207 3.506218 0
M  V30 44 H -2.519516 2.350729 4.241830 0
M  V30 45 H -5.379111 0.501090 2.857153 0
M  V30 46 H -5.036861 1.701983 4.209222 0
M  V30 47 H -3.193575 0.376625 4.950290 0
M  V30 48 H -4.655012 -0.615843 4.879632 0
M  V30 49 H -4.668210 -1.179704 1.913492 0
M  V30 50 H -2.980700 -1.463856 1.448330 0
M  V30 51 H -2.538686 0.760163 0.969846 0
M  V30 52 H -4.293854 0.770369 0.822385 0
M  V30 53 H 0.840607 1.081922 2.470816 0
M  V30 54 H 1.092363 -0.075605 0.403864 0
M  V30 55 H -0.049489 -0.947999 -1.504153 0
M  V30 56 H -0.927789 -1.881459 -3.065370 0
M  V30 57 H -2.482947 -3.448216 -3.579151 0
M  V30 58 H -1.135434 -4.657948 -3.260911 0
M  V30 59 H -0.402777 -4.527915 -5.626028 0
M  V30 60 H -2.022011 -5.178467 -5.394879 0
M  V30 61 H -2.342183 -1.619293 -5.134886 0
M  V30 62 H -1.465497 -1.357314 -6.655530 0
M  V30 63 H 0.198348 -1.007998 -4.896576 0
M  V30 64 H 0.497085 -2.698425 -5.587162 0
M  V30 END ATOM
M  V30 BEGIN BOND
M  V30 1 3 1 2
M  V30 2 1 2 3
M  V30 3 2 3 4
M  V30 4 1 4 5
M  V30 5 1 5 6
M  V30 6 2 6 7
M  V30 7 1 7 8
M  V30 8 2 8 9
M  V30 9 1 9 10
M  V30 10 1 10 11
M  V30 11 1 11 12
M  V30 12 1 12 13
M  V30 13 2 13 14
M  V30 14 1 14 15
M  V30 15 1 15 16
M  V30 16 1 16 17
M  V30 17 1 17 18
M  V30 18 1 18 19
M  V30 19 1 19 20
M  V30 20 1 20 21
M  V30 21 1 21 22
M  V30 22 1 22 23
M  V30 23 1 15 24
M  V30 24 2 10 25
M  V30 25 2 5 26
M  V30 26 1 26 27
M  V30 27 2 27 28
M  V30 28 1 28 29
M  V30 29 1 29 30
M  V30 30 1 30 31
M  V30 31 1 31 32
M  V30 32 1 32 33
M  V30 33 1 33 34
M  V30 34 1 34 35
M  V30 35 1 28 3
M  V30 36 1 35 30
M  V30 37 1 25 6
M  V30 38 2 24 12
M  V30 39 1 23 18
M  V30 40 1 4 36
M  V30 41 1 7 37
M  V30 42 1 8 38
M  V30 43 1 11 39
M  V30 44 1 13 40
M  V30 45 1 16 41
M  V30 46 1 16 42
M  V30 47 1 17 43
M  V30 48 1 17 44
M  V30 49 1 19 45
M  V30 50 1 19 46
M  V30 51 1 20 47
M  V30 52 1 20 48
M  V30 53 1 22 49
M  V30 54 1 22 50
M  V30 55 1 23 51
M  V30 56 1 23 52
M  V30 57 1 24 53
M  V30 58 1 26 54
M  V30 59 1 27 55
M  V30 60 1 30 56
M  V30 61 1 31 57
M  V30 62 1 31 58
M  V30 63 1 32 59
M  V30 64 1 32 60
M  V30 65 1 34 61
M  V30 66 1 34 62
M  V30 67 1 35 63
M  V30 68 1 35 64
M  V30 END BOND
M  V30 END CTAB
M  END
>  <Dataset>  (784) 
ChEMBL_Kinases

>  <Ligand_Instance>  (784) 
nan

>  <PDB_ID>  (784) 
nan

>  <Standardized_SMILES>  (784) 
N#Cc1cc(-c2ccnc(Nc3cnn(CCN4CCOCC4)c3)n2)ccc1OC1CCOCC1

>  <Name>  (784) 
nan

>  <Pocket>  (784) 
nan

>  <ATP_Site>  (784) 
nan

>  <Peripheral>  (784) 
nan

>  <Num_H_Atoms_ProtBoundConf>  (784) 
nan

>  <Num_Resolved_Atoms>  (784) 
nan

>  <Num_Not_Resolved_Atoms>  (784) 
nan

$$$$
CHEMBL3687181
     RDKit          3D

  0  0  0  0  0  0  0  0  0  0999 V3000
M  V30 BEGIN CTAB
M  V30 COUNTS 57 61 0 0 0
M  V30 BEGIN ATOM
M  V30 1 N -1.337062 -6.305899 0.112771 0
M  V30 2 C -0.866329 -5.227414 0.154401 0
M  V30 3 C -0.289708 -3.926967 0.192725 0
M  V30 4 C 0.175011 -3.607013 1.454738 0
M  V30 5 C 0.772121 -2.404659 1.698593 0
M  V30 6 C 1.488666 -1.841918 2.846608 0
M  V30 7 C 1.768186 -2.891619 3.740657 0
M  V30 8 C 2.605831 -2.379899 4.761151 0
M  V30 9 N 3.087593 -1.109570 4.898973 0
M  V30 10 C 2.748284 -0.195320 3.979005 0
M  V30 11 N 3.097564 1.163334 3.825711 0
M  V30 12 C 2.538626 2.149655 2.984882 0
M  V30 13 C 3.074303 3.372968 2.655488 0
M  V30 14 N 2.213393 4.007730 1.886688 0
M  V30 15 N 1.123253 3.363418 1.633066 0
M  V30 16 C -0.140755 3.487678 0.926557 0
M  V30 17 C -1.262972 3.800296 1.906848 0
M  V30 18 C -2.116744 2.551866 1.877024 0
M  V30 19 N -1.928320 1.983656 0.568594 0
M  V30 20 C -0.556615 2.260564 0.193642 0
M  V30 21 C 1.300757 2.187327 2.311472 0
M  V30 22 N 1.961177 -0.589400 2.986025 0
M  V30 23 C 0.878844 -1.544902 0.594834 0
M  V30 24 C 0.430374 -1.807449 -0.716184 0
M  V30 25 C -0.174200 -3.078834 -0.853109 0
M  V30 26 O -0.675012 -3.577994 -1.961138 0
M  V30 27 C -0.763471 -3.441246 -3.310489 0
M  V30 28 C -1.647273 -4.585763 -3.832966 0
M  V30 29 C -3.074734 -4.207901 -3.426385 0
M  V30 30 O -3.451107 -3.110546 -4.147519 0
M  V30 31 C -2.749071 -1.951357 -3.842528 0
M  V30 32 C -1.271367 -2.125535 -3.858466 0
M  V30 33 H 0.149133 -4.178821 2.377742 0
M  V30 34 H 1.530999 -3.907970 3.844465 0
M  V30 35 H 2.963877 -3.007578 5.595344 0
M  V30 36 H 3.889955 1.462593 4.445211 0
M  V30 37 H 4.012559 3.816659 2.936411 0
M  V30 38 H -0.055674 4.359859 0.247279 0
M  V30 39 H -0.880102 4.016097 2.926736 0
M  V30 40 H -1.881221 4.647020 1.571700 0
M  V30 41 H -3.202739 2.765765 1.981241 0
M  V30 42 H -1.848861 1.820743 2.663711 0
M  V30 43 H -2.085411 0.942605 0.617050 0
M  V30 44 H 0.040350 1.376696 0.422007 0
M  V30 45 H -0.577512 2.502127 -0.908131 0
M  V30 46 H 0.660239 1.317622 2.408005 0
M  V30 47 H 1.335409 -0.561987 0.632552 0
M  V30 48 H 0.533518 -1.127885 -1.531058 0
M  V30 49 H 0.252090 -3.586254 -3.778160 0
M  V30 50 H -1.562865 -4.715031 -4.908253 0
M  V30 51 H -1.420432 -5.541517 -3.284025 0
M  V30 52 H -3.731098 -5.052022 -3.703098 0
M  V30 53 H -3.132947 -4.085744 -2.319538 0
M  V30 54 H -3.094789 -1.135763 -4.531693 0
M  V30 55 H -3.063523 -1.643689 -2.823535 0
M  V30 56 H -0.748533 -1.262109 -3.465425 0
M  V30 57 H -0.979652 -2.152457 -4.967115 0
M  V30 END ATOM
M  V30 BEGIN BOND
M  V30 1 3 1 2
M  V30 2 1 2 3
M  V30 3 2 3 4
M  V30 4 1 4 5
M  V30 5 1 5 6
M  V30 6 2 6 7
M  V30 7 1 7 8
M  V30 8 2 8 9
M  V30 9 1 9 10
M  V30 10 1 10 11
M  V30 11 1 11 12
M  V30 12 1 12 13
M  V30 13 2 13 14
M  V30 14 1 14 15
M  V30 15 1 15 16
M  V30 16 1 16 17
M  V30 17 1 17 18
M  V30 18 1 18 19
M  V30 19 1 19 20
M  V30 20 1 15 21
M  V30 21 2 10 22
M  V30 22 2 5 23
M  V30 23 1 23 24
M  V30 24 2 24 25
M  V30 25 1 25 26
M  V30 26 1 26 27
M  V30 27 1 27 28
M  V30 28 1 28 29
M  V30 29 1 29 30
M  V30 30 1 30 31
M  V30 31 1 31 32
M  V30 32 1 25 3
M  V30 33 1 32 27
M  V30 34 1 22 6
M  V30 35 2 21 12
M  V30 36 1 20 16
M  V30 37 1 4 33
M  V30 38 1 7 34
M  V30 39 1 8 35
M  V30 40 1 11 36
M  V30 41 1 13 37
M  V30 42 1 16 38
M  V30 43 1 17 39
M  V30 44 1 17 40
M  V30 45 1 18 41
M  V30 46 1 18 42
M  V30 47 1 19 43
M  V30 48 1 20 44
M  V30 49 1 20 45
M  V30 50 1 21 46
M  V30 51 1 23 47
M  V30 52 1 24 48
M  V30 53 1 27 49
M  V30 54 1 28 50
M  V30 55 1 28 51
M  V30 56 1 29 52
M  V30 57 1 29 53
M  V30 58 1 31 54
M  V30 59 1 31 55
M  V30 60 1 32 56
M  V30 61 1 32 57
M  V30 END BOND
M  V30 END CTAB
M  END
>  <Dataset>  (785) 
ChEMBL_Kinases

>  <Ligand_Instance>  (785) 
nan

>  <PDB_ID>  (785) 
nan

>  <Standardized_SMILES>  (785) 
N#Cc1cc(-c2ccnc(Nc3cnn(C4CCNC4)c3)n2)ccc1OC1CCOCC1

>  <Name>  (785) 
nan

>  <Pocket>  (785) 
nan

>  <ATP_Site>  (785) 
nan

>  <Peripheral>  (785) 
nan

>  <Num_H_Atoms_ProtBoundConf>  (785) 
nan

>  <Num_Resolved_Atoms>  (785) 
nan

>  <Num_Not_Resolved_Atoms>  (785) 
nan

$$$$
CHEMBL3687182
     RDKit          3D

  0  0  0  0  0  0  0  0  0  0999 V3000
M  V30 BEGIN CTAB
M  V30 COUNTS 59 63 0 0 0
M  V30 BEGIN ATOM
M  V30 1 N -2.283467 -2.204045 0.837143 0
M  V30 2 C -1.235355 -2.301626 0.408568 0
M  V30 3 C 0.086998 -2.401891 -0.119887 0
M  V30 4 C 1.033690 -1.446694 0.183140 0
M  V30 5 C 2.310805 -1.536492 -0.325436 0
M  V30 6 C 3.253930 -0.489892 0.037693 0
M  V30 7 C 4.551947 -0.502114 -0.424531 0
M  V30 8 C 5.473376 0.469827 -0.102552 0
M  V30 9 N 5.103183 1.480008 0.696627 0
M  V30 10 C 3.820230 1.513065 1.167362 0
M  V30 11 N 3.515882 2.611839 1.999931 0
M  V30 12 C 2.311821 2.978796 2.660722 0
M  V30 13 C 1.958248 4.053418 3.482836 0
M  V30 14 N 0.689374 3.903685 3.830388 0
M  V30 15 N 0.138380 2.820415 3.319793 0
M  V30 16 C -1.213896 2.363155 3.497107 0
M  V30 17 C -2.137959 2.929810 2.421202 0
M  V30 18 C -1.700247 2.515134 1.033735 0
M  V30 19 C -0.909175 3.688496 0.560525 0
M  V30 20 O -0.825331 4.585429 1.621654 0
M  V30 21 C -2.015045 4.435948 2.340344 0
M  V30 22 C 1.132637 2.262238 2.608637 0
M  V30 23 N 2.951351 0.550800 0.833472 0
M  V30 24 C 2.631372 -2.595739 -1.143082 0
M  V30 25 C 1.635037 -3.548055 -1.426770 0
M  V30 26 C 0.317912 -3.488157 -0.923936 0
M  V30 27 O -0.347837 -4.541521 -1.391210 0
M  V30 28 C -1.617411 -5.020877 -1.253676 0
M  V30 29 C -1.661265 -6.436943 -0.690597 0
M  V30 30 C -3.097973 -6.703498 -0.294767 0
M  V30 31 O -4.011790 -6.247058 -1.222966 0
M  V30 32 C -3.471311 -6.144718 -2.501237 0
M  V30 33 C -2.379281 -5.107453 -2.576115 0
M  V30 34 H 0.712547 -0.645860 0.828852 0
M  V30 35 H 4.960535 -1.250560 -1.063715 0
M  V30 36 H 6.507493 0.479870 -0.457782 0
M  V30 37 H 4.246735 3.330011 2.221453 0
M  V30 38 H 2.684419 4.826794 3.730712 0
M  V30 39 H -1.240157 1.260188 3.420215 0
M  V30 40 H -1.642124 2.635720 4.472624 0
M  V30 41 H -3.185607 2.622012 2.598301 0
M  V30 42 H -1.148666 1.553111 1.039108 0
M  V30 43 H -2.625147 2.451538 0.411777 0
M  V30 44 H 0.050286 3.360077 0.155900 0
M  V30 45 H -1.425234 4.229429 -0.283232 0
M  V30 46 H -2.872909 4.788537 1.728362 0
M  V30 47 H -1.933661 4.935461 3.306063 0
M  V30 48 H 1.015835 1.344380 2.053582 0
M  V30 49 H 3.629613 -2.647925 -1.528577 0
M  V30 50 H 2.061067 -4.316545 -2.088103 0
M  V30 51 H -2.235483 -4.412431 -0.576645 0
M  V30 52 H -1.362556 -7.091928 -1.524097 0
M  V30 53 H -1.041634 -6.510259 0.202279 0
M  V30 54 H -3.311777 -6.160312 0.657089 0
M  V30 55 H -3.304083 -7.793392 -0.161488 0
M  V30 56 H -3.039525 -7.107498 -2.848814 0
M  V30 57 H -4.280816 -5.829138 -3.189929 0
M  V30 58 H -1.714042 -5.379150 -3.409477 0
M  V30 59 H -2.845071 -4.132356 -2.829027 0
M  V30 END ATOM
M  V30 BEGIN BOND
M  V30 1 3 1 2
M  V30 2 1 2 3
M  V30 3 2 3 4
M  V30 4 1 4 5
M  V30 5 1 5 6
M  V30 6 2 6 7
M  V30 7 1 7 8
M  V30 8 2 8 9
M  V30 9 1 9 10
M  V30 10 1 10 11
M  V30 11 1 11 12
M  V30 12 1 12 13
M  V30 13 2 13 14
M  V30 14 1 14 15
M  V30 15 1 15 16
M  V30 16 1 16 17
M  V30 17 1 17 18
M  V30 18 1 18 19
M  V30 19 1 19 20
M  V30 20 1 20 21
M  V30 21 1 15 22
M  V30 22 2 10 23
M  V30 23 2 5 24
M  V30 24 1 24 25
M  V30 25 2 25 26
M  V30 26 1 26 27
M  V30 27 1 27 28
M  V30 28 1 28 29
M  V30 29 1 29 30
M  V30 30 1 30 31
M  V30 31 1 31 32
M  V30 32 1 32 33
M  V30 33 1 26 3
M  V30 34 1 33 28
M  V30 35 1 23 6
M  V30 36 2 22 12
M  V30 37 1 21 17
M  V30 38 1 4 34
M  V30 39 1 7 35
M  V30 40 1 8 36
M  V30 41 1 11 37
M  V30 42 1 13 38
M  V30 43 1 16 39
M  V30 44 1 16 40
M  V30 45 1 17 41
M  V30 46 1 18 42
M  V30 47 1 18 43
M  V30 48 1 19 44
M  V30 49 1 19 45
M  V30 50 1 21 46
M  V30 51 1 21 47
M  V30 52 1 22 48
M  V30 53 1 24 49
M  V30 54 1 25 50
M  V30 55 1 28 51
M  V30 56 1 29 52
M  V30 57 1 29 53
M  V30 58 1 30 54
M  V30 59 1 30 55
M  V30 60 1 32 56
M  V30 61 1 32 57
M  V30 62 1 33 58
M  V30 63 1 33 59
M  V30 END BOND
M  V30 END CTAB
M  END
>  <Dataset>  (786) 
ChEMBL_Kinases

>  <Ligand_Instance>  (786) 
nan

>  <PDB_ID>  (786) 
nan

>  <Standardized_SMILES>  (786) 
N#Cc1cc(-c2ccnc(Nc3cnn(CC4CCOC4)c3)n2)ccc1OC1CCOCC1

>  <Name>  (786) 
nan

>  <Pocket>  (786) 
nan

>  <ATP_Site>  (786) 
nan

>  <Peripheral>  (786) 
nan

>  <Num_H_Atoms_ProtBoundConf>  (786) 
nan

>  <Num_Resolved_Atoms>  (786) 
nan

>  <Num_Not_Resolved_Atoms>  (786) 
nan

$$$$
CHEMBL368786
     RDKit          3D

  0  0  0  0  0  0  0  0  0  0999 V3000
M  V30 BEGIN CTAB
M  V30 COUNTS 40 42 0 0 0
M  V30 BEGIN ATOM
M  V30 1 O -2.104938 -3.953016 2.016893 0
M  V30 2 C -1.156820 -4.925264 1.970431 0
M  V30 3 C 0.221094 -4.440726 1.480679 0
M  V30 4 C 0.152729 -3.875403 0.070149 0
M  V30 5 N 1.502088 -3.591730 -0.478937 0
M  V30 6 C 1.315894 -2.510817 -1.463720 0
M  V30 7 N 1.164696 -1.706876 -2.232159 0
M  V30 8 C 1.272224 -0.471116 -2.424324 0
M  V30 9 C 1.723397 0.153502 -1.339707 0
M  V30 10 C 1.842485 1.653504 -1.203900 0
M  V30 11 C 1.707239 2.517548 -2.097492 0
M  V30 12 N 1.544134 3.834339 -1.645410 0
M  V30 13 C 1.513756 4.082703 -0.290525 0
M  V30 14 C 1.646098 3.086620 0.618559 0
M  V30 15 N 1.554882 2.926569 2.077970 0
M  V30 16 C 0.336316 2.138990 2.228922 0
M  V30 17 C 0.158561 1.249101 3.242037 0
M  V30 18 C -0.968198 0.448892 3.411250 0
M  V30 19 C -1.924405 0.597195 2.453793 0
M  V30 20 C -1.914365 1.408953 1.409288 0
M  V30 21 Cl -3.158469 1.578571 0.200290 0
M  V30 22 C -0.736801 2.196005 1.301846 0
M  V30 23 N 1.819804 1.830609 0.112680 0
M  V30 24 S 1.924328 -1.243935 -0.177109 0
M  V30 25 H -2.295682 -3.586195 2.899799 0
M  V30 26 H -1.497061 -5.774231 1.366867 0
M  V30 27 H -0.951900 -5.343047 2.998836 0
M  V30 28 H 0.946474 -5.263919 1.636810 0
M  V30 29 H 0.444486 -3.554551 2.234205 0
M  V30 30 H -0.423675 -4.528780 -0.578380 0
M  V30 31 H -0.409167 -2.872226 0.222114 0
M  V30 32 H 2.276397 -4.168480 -0.134257 0
M  V30 33 H 1.048415 0.070695 -3.290789 0
M  V30 34 H 1.738696 2.219088 -3.153930 0
M  V30 35 H 1.405638 5.030547 0.220333 0
M  V30 36 H 2.133611 3.206337 2.844658 0
M  V30 37 H 0.978280 1.135404 4.000621 0
M  V30 38 H -1.132504 -0.254899 4.192652 0
M  V30 39 H -2.832212 -0.000247 2.547837 0
M  V30 40 H -0.662044 2.851842 0.456949 0
M  V30 END ATOM
M  V30 BEGIN BOND
M  V30 1 1 1 2
M  V30 2 1 2 3
M  V30 3 1 3 4
M  V30 4 1 4 5
M  V30 5 1 5 6
M  V30 6 2 6 7
M  V30 7 1 7 8
M  V30 8 2 8 9
M  V30 9 1 9 10
M  V30 10 2 10 11
M  V30 11 1 11 12
M  V30 12 2 12 13
M  V30 13 1 13 14
M  V30 14 1 14 15
M  V30 15 1 15 16
M  V30 16 2 16 17
M  V30 17 1 17 18
M  V30 18 2 18 19
M  V30 19 1 19 20
M  V30 20 1 20 21
M  V30 21 2 20 22
M  V30 22 2 14 23
M  V30 23 1 9 24
M  V30 24 1 24 6
M  V30 25 1 23 10
M  V30 26 1 22 16
M  V30 27 1 1 25
M  V30 28 1 2 26
M  V30 29 1 2 27
M  V30 30 1 3 28
M  V30 31 1 3 29
M  V30 32 1 4 30
M  V30 33 1 4 31
M  V30 34 1 5 32
M  V30 35 1 8 33
M  V30 36 1 11 34
M  V30 37 1 13 35
M  V30 38 1 15 36
M  V30 39 1 17 37
M  V30 40 1 18 38
M  V30 41 1 19 39
M  V30 42 1 22 40
M  V30 END BOND
M  V30 END CTAB
M  END
>  <Dataset>  (787) 
ChEMBL_Kinases

>  <Ligand_Instance>  (787) 
nan

>  <PDB_ID>  (787) 
nan

>  <Standardized_SMILES>  (787) 
OCCCNc1ncc(-c2cncc(Nc3cccc(Cl)c3)n2)s1

>  <Name>  (787) 
nan

>  <Pocket>  (787) 
nan

>  <ATP_Site>  (787) 
nan

>  <Peripheral>  (787) 
nan

>  <Num_H_Atoms_ProtBoundConf>  (787) 
nan

>  <Num_Resolved_Atoms>  (787) 
nan

>  <Num_Not_Resolved_Atoms>  (787) 
nan

$$$$
CHEMBL3687184
     RDKit          3D

  0  0  0  0  0  0  0  0  0  0999 V3000
M  V30 BEGIN CTAB
M  V30 COUNTS 58 62 0 0 0
M  V30 BEGIN ATOM
M  V30 1 N -2.262189 -0.830814 0.311919 0
M  V30 2 C -1.315467 -1.372485 -0.012783 0
M  V30 3 C -0.114949 -2.043045 -0.400529 0
M  V30 4 C 1.107610 -1.634256 0.082231 0
M  V30 5 C 2.256126 -2.290662 -0.298796 0
M  V30 6 C 3.521308 -1.814942 0.242718 0
M  V30 7 C 4.729230 -2.395668 -0.075263 0
M  V30 8 C 5.923349 -1.958433 0.422928 0
M  V30 9 N 5.914518 -0.918790 1.257155 0
M  V30 10 C 4.744394 -0.312101 1.600828 0
M  V30 11 N 4.868172 0.784276 2.494232 0
M  V30 12 C 3.865047 1.618429 3.057646 0
M  V30 13 C 3.940755 2.717578 3.919966 0
M  V30 14 N 2.702645 3.141352 4.147088 0
M  V30 15 N 1.792054 2.434953 3.521357 0
M  V30 16 C 0.349012 2.563822 3.502172 0
M  V30 17 C -0.057411 3.493553 2.356151 0
M  V30 18 N -1.520688 3.631798 2.327512 0
M  V30 19 C -2.256003 4.551276 2.973313 0
M  V30 20 C -3.581440 4.293761 2.649735 0
M  V30 21 C -3.621602 3.211333 1.805049 0
M  V30 22 N -2.350612 2.853064 1.645170 0
M  V30 23 C 2.496249 1.511633 2.860759 0
M  V30 24 N 3.615256 -0.775301 1.089743 0
M  V30 25 C 2.177401 -3.356462 -1.163631 0
M  V30 26 C 0.918697 -3.739537 -1.630303 0
M  V30 27 C -0.275044 -3.095293 -1.264866 0
M  V30 28 O -1.317502 -3.678824 -1.865003 0
M  V30 29 C -2.665420 -3.535240 -1.926323 0
M  V30 30 C -3.310038 -4.828571 -1.396433 0
M  V30 31 C -4.457333 -5.239341 -2.293940 0
M  V30 32 O -5.280141 -4.126452 -2.453143 0
M  V30 33 C -4.669458 -3.244024 -3.342349 0
M  V30 34 C -3.176705 -3.392149 -3.360593 0
M  V30 35 H 1.092417 -0.805844 0.744560 0
M  V30 36 H 4.816244 -3.230271 -0.735207 0
M  V30 37 H 6.898122 -2.395370 0.191892 0
M  V30 38 H 5.813352 1.084745 2.835428 0
M  V30 39 H 4.897342 3.092891 4.291827 0
M  V30 40 H -0.011087 2.959372 4.472700 0
M  V30 41 H -0.091960 1.563613 3.376310 0
M  V30 42 H 0.408232 4.472437 2.457763 0
M  V30 43 H 0.262220 2.969255 1.436189 0
M  V30 44 H -1.899721 5.347626 3.625251 0
M  V30 45 H -4.472533 4.822247 2.977290 0
M  V30 46 H -4.447909 2.695075 1.326815 0
M  V30 47 H 2.062238 0.750992 2.232949 0
M  V30 48 H 3.079402 -3.874565 -1.464917 0
M  V30 49 H 0.995002 -4.599377 -2.310002 0
M  V30 50 H -3.146109 -2.728044 -1.368512 0
M  V30 51 H -3.764963 -4.662754 -0.392313 0
M  V30 52 H -2.559162 -5.616209 -1.281564 0
M  V30 53 H -5.057383 -5.985537 -1.695939 0
M  V30 54 H -4.135936 -5.700546 -3.246899 0
M  V30 55 H -4.976929 -2.189852 -3.202526 0
M  V30 56 H -5.027097 -3.516431 -4.362726 0
M  V30 57 H -2.771946 -2.463886 -3.818444 0
M  V30 58 H -2.907051 -4.251855 -3.986378 0
M  V30 END ATOM
M  V30 BEGIN BOND
M  V30 1 3 1 2
M  V30 2 1 2 3
M  V30 3 2 3 4
M  V30 4 1 4 5
M  V30 5 1 5 6
M  V30 6 2 6 7
M  V30 7 1 7 8
M  V30 8 2 8 9
M  V30 9 1 9 10
M  V30 10 1 10 11
M  V30 11 1 11 12
M  V30 12 1 12 13
M  V30 13 2 13 14
M  V30 14 1 14 15
M  V30 15 1 15 16
M  V30 16 1 16 17
M  V30 17 1 17 18
M  V30 18 1 18 19
M  V30 19 2 19 20
M  V30 20 1 20 21
M  V30 21 2 21 22
M  V30 22 1 15 23
M  V30 23 2 10 24
M  V30 24 2 5 25
M  V30 25 1 25 26
M  V30 26 2 26 27
M  V30 27 1 27 28
M  V30 28 1 28 29
M  V30 29 1 29 30
M  V30 30 1 30 31
M  V30 31 1 31 32
M  V30 32 1 32 33
M  V30 33 1 33 34
M  V30 34 1 27 3
M  V30 35 1 34 29
M  V30 36 1 24 6
M  V30 37 2 23 12
M  V30 38 1 22 18
M  V30 39 1 4 35
M  V30 40 1 7 36
M  V30 41 1 8 37
M  V30 42 1 11 38
M  V30 43 1 13 39
M  V30 44 1 16 40
M  V30 45 1 16 41
M  V30 46 1 17 42
M  V30 47 1 17 43
M  V30 48 1 19 44
M  V30 49 1 20 45
M  V30 50 1 21 46
M  V30 51 1 23 47
M  V30 52 1 25 48
M  V30 53 1 26 49
M  V30 54 1 29 50
M  V30 55 1 30 51
M  V30 56 1 30 52
M  V30 57 1 31 53
M  V30 58 1 31 54
M  V30 59 1 33 55
M  V30 60 1 33 56
M  V30 61 1 34 57
M  V30 62 1 34 58
M  V30 END BOND
M  V30 END CTAB
M  END
>  <Dataset>  (788) 
ChEMBL_Kinases

>  <Ligand_Instance>  (788) 
nan

>  <PDB_ID>  (788) 
nan

>  <Standardized_SMILES>  (788) 
N#Cc1cc(-c2ccnc(Nc3cnn(CCn4cccn4)c3)n2)ccc1OC1CCOCC1

>  <Name>  (788) 
nan

>  <Pocket>  (788) 
nan

>  <ATP_Site>  (788) 
nan

>  <Peripheral>  (788) 
nan

>  <Num_H_Atoms_ProtBoundConf>  (788) 
nan

>  <Num_Resolved_Atoms>  (788) 
nan

>  <Num_Not_Resolved_Atoms>  (788) 
nan

$$$$
CHEMBL3687185
     RDKit          3D

  0  0  0  0  0  0  0  0  0  0999 V3000
M  V30 BEGIN CTAB
M  V30 COUNTS 51 54 0 0 0
M  V30 BEGIN ATOM
M  V30 1 N -0.676690 -2.646536 3.495765 0
M  V30 2 C -0.421725 -2.492170 2.393877 0
M  V30 3 C -0.113094 -2.314200 0.984257 0
M  V30 4 C 0.630804 -1.163227 0.693133 0
M  V30 5 C 0.986668 -0.883234 -0.609802 0
M  V30 6 C 1.760399 0.320463 -0.884891 0
M  V30 7 C 2.174951 0.708270 -2.140131 0
M  V30 8 C 2.907519 1.856205 -2.366777 0
M  V30 9 N 3.209565 2.602216 -1.286318 0
M  V30 10 C 2.820602 2.253647 -0.042653 0
M  V30 11 N 3.101086 2.989102 1.143191 0
M  V30 12 C 2.175590 3.985772 1.562794 0
M  V30 13 C 0.992397 4.358962 0.959101 0
M  V30 14 N 0.384930 5.344472 1.654043 0
M  V30 15 N 1.175731 5.605038 2.703036 0
M  V30 16 C 0.843473 6.631705 3.700485 0
M  V30 17 C 0.020539 5.964577 4.808578 0
M  V30 18 F 0.739643 4.954770 5.405027 0
M  V30 19 F -1.125131 5.399329 4.258193 0
M  V30 20 C 2.256091 4.803043 2.670448 0
M  V30 21 N 2.108231 1.124450 0.122203 0
M  V30 22 C 0.587724 -1.765139 -1.591832 0
M  V30 23 C -0.144442 -2.899190 -1.310630 0
M  V30 24 C -0.516280 -3.207963 -0.018814 0
M  V30 25 O -1.235734 -4.264891 0.504693 0
M  V30 26 C -1.777087 -5.327839 -0.247940 0
M  V30 27 C -3.276504 -5.318267 -0.168035 0
M  V30 28 C -3.935863 -6.642724 -0.054552 0
M  V30 29 O -3.192865 -7.659469 0.482163 0
M  V30 30 C -2.029236 -7.822099 -0.239395 0
M  V30 31 C -1.146697 -6.651879 0.120488 0
M  V30 32 H 0.941050 -0.476580 1.460475 0
M  V30 33 H 1.922423 0.097744 -2.986843 0
M  V30 34 H 3.230922 2.156891 -3.353839 0
M  V30 35 H 3.952992 2.837606 1.726266 0
M  V30 36 H 0.637064 3.882487 0.032848 0
M  V30 37 H 0.193055 7.404440 3.249285 0
M  V30 38 H 1.757508 7.014659 4.157795 0
M  V30 39 H -0.274868 6.761838 5.506136 0
M  V30 40 H 3.060983 4.803887 3.403465 0
M  V30 41 H 0.843633 -1.586083 -2.624463 0
M  V30 42 H -0.483464 -3.621695 -2.029518 0
M  V30 43 H -1.534023 -5.181843 -1.320132 0
M  V30 44 H -3.550519 -4.738903 0.749444 0
M  V30 45 H -3.718325 -4.723237 -1.008291 0
M  V30 46 H -4.301743 -7.014307 -1.056463 0
M  V30 47 H -4.884376 -6.602131 0.558771 0
M  V30 48 H -2.183766 -7.807205 -1.332913 0
M  V30 49 H -1.490131 -8.746217 0.046546 0
M  V30 50 H -0.971195 -6.612195 1.215437 0
M  V30 51 H -0.184114 -6.819059 -0.369052 0
M  V30 END ATOM
M  V30 BEGIN BOND
M  V30 1 3 1 2
M  V30 2 1 2 3
M  V30 3 2 3 4
M  V30 4 1 4 5
M  V30 5 1 5 6
M  V30 6 2 6 7
M  V30 7 1 7 8
M  V30 8 2 8 9
M  V30 9 1 9 10
M  V30 10 1 10 11
M  V30 11 1 11 12
M  V30 12 1 12 13
M  V30 13 2 13 14
M  V30 14 1 14 15
M  V30 15 1 15 16
M  V30 16 1 16 17
M  V30 17 1 17 18
M  V30 18 1 17 19
M  V30 19 1 15 20
M  V30 20 2 10 21
M  V30 21 2 5 22
M  V30 22 1 22 23
M  V30 23 2 23 24
M  V30 24 1 24 25
M  V30 25 1 25 26
M  V30 26 1 26 27
M  V30 27 1 27 28
M  V30 28 1 28 29
M  V30 29 1 29 30
M  V30 30 1 30 31
M  V30 31 1 24 3
M  V30 32 1 31 26
M  V30 33 1 21 6
M  V30 34 2 20 12
M  V30 35 1 4 32
M  V30 36 1 7 33
M  V30 37 1 8 34
M  V30 38 1 11 35
M  V30 39 1 13 36
M  V30 40 1 16 37
M  V30 41 1 16 38
M  V30 42 1 17 39
M  V30 43 1 20 40
M  V30 44 1 22 41
M  V30 45 1 23 42
M  V30 46 1 26 43
M  V30 47 1 27 44
M  V30 48 1 27 45
M  V30 49 1 28 46
M  V30 50 1 28 47
M  V30 51 1 30 48
M  V30 52 1 30 49
M  V30 53 1 31 50
M  V30 54 1 31 51
M  V30 END BOND
M  V30 END CTAB
M  END
>  <Dataset>  (789) 
ChEMBL_Kinases

>  <Ligand_Instance>  (789) 
nan

>  <PDB_ID>  (789) 
nan

>  <Standardized_SMILES>  (789) 
N#Cc1cc(-c2ccnc(Nc3cnn(CC(F)F)c3)n2)ccc1OC1CCOCC1

>  <Name>  (789) 
nan

>  <Pocket>  (789) 
nan

>  <ATP_Site>  (789) 
nan

>  <Peripheral>  (789) 
nan

>  <Num_H_Atoms_ProtBoundConf>  (789) 
nan

>  <Num_Resolved_Atoms>  (789) 
nan

>  <Num_Not_Resolved_Atoms>  (789) 
nan

$$$$
CHEMBL3687186
     RDKit          3D

  0  0  0  0  0  0  0  0  0  0999 V3000
M  V30 BEGIN CTAB
M  V30 COUNTS 66 70 0 0 0
M  V30 BEGIN ATOM
M  V30 1 N 3.798603 -0.398492 7.367939 0
M  V30 2 C 3.273766 -0.484585 6.342786 0
M  V30 3 C 2.645954 -0.587199 5.062731 0
M  V30 4 C 3.393103 -0.726884 3.917252 0
M  V30 5 C 2.789494 -0.830522 2.687033 0
M  V30 6 C 3.572739 -0.988267 1.474816 0
M  V30 7 C 4.947888 -1.053595 1.529701 0
M  V30 8 C 5.750167 -1.215616 0.401213 0
M  V30 9 N 5.122202 -1.308033 -0.775476 0
M  V30 10 C 3.760807 -1.248297 -0.877158 0
M  V30 11 N 3.199453 -1.382824 -2.175271 0
M  V30 12 C 1.816418 -1.269059 -2.481477 0
M  V30 13 C 0.865576 -0.768763 -1.619452 0
M  V30 14 N -0.305133 -0.842997 -2.243349 0
M  V30 15 N -0.163053 -1.364295 -3.460755 0
M  V30 16 C -1.323625 -1.547951 -4.323350 0
M  V30 17 C -1.626561 -0.406096 -5.213001 0
M  V30 18 C -2.859439 -0.682175 -6.078073 0
M  V30 19 C -4.070214 -0.919436 -5.209835 0
M  V30 20 C -5.299554 -1.095527 -6.085666 0
M  V30 21 N -4.997234 -0.877766 -7.490258 0
M  V30 22 C -4.438750 0.451417 -7.665874 0
M  V30 23 C -3.104091 0.516808 -6.960527 0
M  V30 24 C 1.144017 -1.636269 -3.633115 0
M  V30 25 N 3.067112 -1.092064 0.247803 0
M  V30 26 C 1.414238 -0.788102 2.661029 0
M  V30 27 C 0.682267 -0.645550 3.843055 0
M  V30 28 C 1.278166 -0.537143 5.118478 0
M  V30 29 O 0.284731 -0.416916 5.993414 0
M  V30 30 C 0.288636 -0.280548 7.353508 0
M  V30 31 C -0.551982 -1.369798 8.043960 0
M  V30 32 C -0.614666 -1.022229 9.504990 0
M  V30 33 O -1.309985 0.179593 9.709067 0
M  V30 34 C -0.626877 1.243517 9.147059 0
M  V30 35 C -0.460889 1.018040 7.675165 0
M  V30 36 H 4.460109 -0.746596 4.072738 0
M  V30 37 H 5.537675 -0.990860 2.430569 0
M  V30 38 H 6.836966 -1.270583 0.444587 0
M  V30 39 H 3.793802 -1.576059 -2.985473 0
M  V30 40 H 0.970311 -0.379279 -0.637658 0
M  V30 41 H -2.223989 -1.741240 -3.688644 0
M  V30 42 H -1.221011 -2.486999 -4.955326 0
M  V30 43 H -1.882972 0.509643 -4.640108 0
M  V30 44 H -0.781980 -0.102208 -5.870339 0
M  V30 45 H -2.655121 -1.596123 -6.651529 0
M  V30 46 H -4.002404 -1.797398 -4.558559 0
M  V30 47 H -4.229456 0.017292 -4.598829 0
M  V30 48 H -5.735073 -2.085349 -5.944978 0
M  V30 49 H -6.080691 -0.357638 -5.809394 0
M  V30 50 H -4.331462 -1.569144 -7.872283 0
M  V30 51 H -5.139841 1.201134 -7.235474 0
M  V30 52 H -4.273800 0.608385 -8.743751 0
M  V30 53 H -3.071738 1.436246 -6.343424 0
M  V30 54 H -2.263667 0.549443 -7.701932 0
M  V30 55 H 1.550015 -2.061151 -4.517350 0
M  V30 56 H 0.984578 -0.873887 1.670585 0
M  V30 57 H -0.385714 -0.633995 3.578398 0
M  V30 58 H 1.236620 -0.226538 7.876815 0
M  V30 59 H -0.081695 -2.354793 7.950030 0
M  V30 60 H -1.542508 -1.350125 7.569535 0
M  V30 61 H 0.397732 -0.863483 9.883552 0
M  V30 62 H -1.145216 -1.792321 10.078725 0
M  V30 63 H -1.317315 2.135871 9.236996 0
M  V30 64 H 0.314793 1.484438 9.683027 0
M  V30 65 H -1.492691 0.852485 7.269281 0
M  V30 66 H -0.010757 1.864153 7.139086 0
M  V30 END ATOM
M  V30 BEGIN BOND
M  V30 1 3 1 2
M  V30 2 1 2 3
M  V30 3 2 3 4
M  V30 4 1 4 5
M  V30 5 1 5 6
M  V30 6 2 6 7
M  V30 7 1 7 8
M  V30 8 2 8 9
M  V30 9 1 9 10
M  V30 10 1 10 11
M  V30 11 1 11 12
M  V30 12 1 12 13
M  V30 13 2 13 14
M  V30 14 1 14 15
M  V30 15 1 15 16
M  V30 16 1 16 17
M  V30 17 1 17 18
M  V30 18 1 18 19
M  V30 19 1 19 20
M  V30 20 1 20 21
M  V30 21 1 21 22
M  V30 22 1 22 23
M  V30 23 1 15 24
M  V30 24 2 10 25
M  V30 25 2 5 26
M  V30 26 1 26 27
M  V30 27 2 27 28
M  V30 28 1 28 29
M  V30 29 1 29 30
M  V30 30 1 30 31
M  V30 31 1 31 32
M  V30 32 1 32 33
M  V30 33 1 33 34
M  V30 34 1 34 35
M  V30 35 1 28 3
M  V30 36 1 35 30
M  V30 37 1 25 6
M  V30 38 2 24 12
M  V30 39 1 23 18
M  V30 40 1 4 36
M  V30 41 1 7 37
M  V30 42 1 8 38
M  V30 43 1 11 39
M  V30 44 1 13 40
M  V30 45 1 16 41
M  V30 46 1 16 42
M  V30 47 1 17 43
M  V30 48 1 17 44
M  V30 49 1 18 45
M  V30 50 1 19 46
M  V30 51 1 19 47
M  V30 52 1 20 48
M  V30 53 1 20 49
M  V30 54 1 21 50
M  V30 55 1 22 51
M  V30 56 1 22 52
M  V30 57 1 23 53
M  V30 58 1 23 54
M  V30 59 1 24 55
M  V30 60 1 26 56
M  V30 61 1 27 57
M  V30 62 1 30 58
M  V30 63 1 31 59
M  V30 64 1 31 60
M  V30 65 1 32 61
M  V30 66 1 32 62
M  V30 67 1 34 63
M  V30 68 1 34 64
M  V30 69 1 35 65
M  V30 70 1 35 66
M  V30 END BOND
M  V30 END CTAB
M  END
>  <Dataset>  (790) 
ChEMBL_Kinases

>  <Ligand_Instance>  (790) 
nan

>  <PDB_ID>  (790) 
nan

>  <Standardized_SMILES>  (790) 
N#Cc1cc(-c2ccnc(Nc3cnn(CCC4CCNCC4)c3)n2)ccc1OC1CCOCC1

>  <Name>  (790) 
nan

>  <Pocket>  (790) 
nan

>  <ATP_Site>  (790) 
nan

>  <Peripheral>  (790) 
nan

>  <Num_H_Atoms_ProtBoundConf>  (790) 
nan

>  <Num_Resolved_Atoms>  (790) 
nan

>  <Num_Not_Resolved_Atoms>  (790) 
nan

$$$$
CHEMBL3687187
     RDKit          3D

  0  0  0  0  0  0  0  0  0  0999 V3000
M  V30 BEGIN CTAB
M  V30 COUNTS 57 61 0 0 0
M  V30 BEGIN ATOM
M  V30 1 N 2.162589 -5.885443 -1.915617 0
M  V30 2 C 1.748931 -4.964955 -1.354400 0
M  V30 3 C 1.260846 -3.819763 -0.654775 0
M  V30 4 C 2.091691 -3.126838 0.195015 0
M  V30 5 C 1.566588 -2.029133 0.840124 0
M  V30 6 C 2.492520 -1.346638 1.722948 0
M  V30 7 C 3.488076 -2.044273 2.401166 0
M  V30 8 C 4.329053 -1.330758 3.218500 0
M  V30 9 N 4.258928 -0.012825 3.409646 0
M  V30 10 C 3.317081 0.712608 2.780860 0
M  V30 11 N 3.271968 2.115286 2.984358 0
M  V30 12 C 2.387922 3.157514 2.599935 0
M  V30 13 C 2.857840 4.445492 2.326623 0
M  V30 14 N 2.035374 5.442763 1.976442 0
M  V30 15 C 0.710308 5.254314 1.869856 0
M  V30 16 C 0.151289 3.996394 2.125557 0
M  V30 17 C -1.292858 3.801035 2.005293 0
M  V30 18 C -2.103501 2.933630 2.711136 0
M  V30 19 C -3.458821 2.881420 2.463143 0
M  V30 20 C -4.035585 3.696789 1.501802 0
M  V30 21 N -3.238924 4.550595 0.806877 0
M  V30 22 C -1.916735 4.602351 1.047980 0
M  V30 23 C 1.033113 3.005044 2.481474 0
M  V30 24 C 2.471350 0.025000 1.963446 0
M  V30 25 C 0.261439 -1.628325 0.651654 0
M  V30 26 C -0.535719 -2.376555 -0.228195 0
M  V30 27 C -0.047596 -3.504274 -0.910346 0
M  V30 28 O -1.036869 -3.993754 -1.664463 0
M  V30 29 C -1.269658 -5.012709 -2.531032 0
M  V30 30 C -2.411281 -5.857182 -1.982309 0
M  V30 31 C -3.742624 -5.181737 -2.192581 0
M  V30 32 O -3.587777 -3.944142 -2.837842 0
M  V30 33 C -3.079853 -4.228747 -4.104984 0
M  V30 34 C -1.604433 -4.510608 -3.927741 0
M  V30 35 H 3.105942 -3.482047 0.307955 0
M  V30 36 H 3.577905 -3.108803 2.273845 0
M  V30 37 H 5.133045 -1.824988 3.779261 0
M  V30 38 H 4.071008 2.527105 3.560475 0
M  V30 39 H 3.912135 4.676545 2.390783 0
M  V30 40 H 0.088433 6.089378 1.584043 0
M  V30 41 H -1.568892 2.337293 3.438690 0
M  V30 42 H -4.054348 2.187954 3.038597 0
M  V30 43 H -5.104518 3.644569 1.317448 0
M  V30 44 H -1.427148 5.341181 0.401881 0
M  V30 45 H 0.546724 2.082140 2.675965 0
M  V30 46 H 1.697557 0.520740 1.412886 0
M  V30 47 H -0.026270 -0.767212 1.205080 0
M  V30 48 H -1.523437 -1.929431 -0.260171 0
M  V30 49 H -0.398950 -5.668076 -2.652442 0
M  V30 50 H -2.426592 -6.834159 -2.505003 0
M  V30 51 H -2.266597 -6.044810 -0.906728 0
M  V30 52 H -4.462207 -5.762008 -2.789185 0
M  V30 53 H -4.209389 -4.991830 -1.207906 0
M  V30 54 H -3.604383 -5.099382 -4.562545 0
M  V30 55 H -3.175904 -3.365330 -4.792426 0
M  V30 56 H -1.064374 -3.567549 -4.142382 0
M  V30 57 H -1.292400 -5.296610 -4.656581 0
M  V30 END ATOM
M  V30 BEGIN BOND
M  V30 1 3 1 2
M  V30 2 1 2 3
M  V30 3 2 3 4
M  V30 4 1 4 5
M  V30 5 1 5 6
M  V30 6 2 6 7
M  V30 7 1 7 8
M  V30 8 2 8 9
M  V30 9 1 9 10
M  V30 10 1 10 11
M  V30 11 1 11 12
M  V30 12 2 12 13
M  V30 13 1 13 14
M  V30 14 2 14 15
M  V30 15 1 15 16
M  V30 16 1 16 17
M  V30 17 2 17 18
M  V30 18 1 18 19
M  V30 19 2 19 20
M  V30 20 1 20 21
M  V30 21 2 21 22
M  V30 22 2 16 23
M  V30 23 2 10 24
M  V30 24 2 5 25
M  V30 25 1 25 26
M  V30 26 2 26 27
M  V30 27 1 27 28
M  V30 28 1 28 29
M  V30 29 1 29 30
M  V30 30 1 30 31
M  V30 31 1 31 32
M  V30 32 1 32 33
M  V30 33 1 33 34
M  V30 34 1 27 3
M  V30 35 1 34 29
M  V30 36 1 24 6
M  V30 37 1 23 12
M  V30 38 1 22 17
M  V30 39 1 4 35
M  V30 40 1 7 36
M  V30 41 1 8 37
M  V30 42 1 11 38
M  V30 43 1 13 39
M  V30 44 1 15 40
M  V30 45 1 18 41
M  V30 46 1 19 42
M  V30 47 1 20 43
M  V30 48 1 22 44
M  V30 49 1 23 45
M  V30 50 1 24 46
M  V30 51 1 25 47
M  V30 52 1 26 48
M  V30 53 1 29 49
M  V30 54 1 30 50
M  V30 55 1 30 51
M  V30 56 1 31 52
M  V30 57 1 31 53
M  V30 58 1 33 54
M  V30 59 1 33 55
M  V30 60 1 34 56
M  V30 61 1 34 57
M  V30 END BOND
M  V30 END CTAB
M  END
>  <Dataset>  (791) 
ChEMBL_Kinases

>  <Ligand_Instance>  (791) 
nan

>  <PDB_ID>  (791) 
nan

>  <Standardized_SMILES>  (791) 
N#Cc1cc(-c2ccnc(Nc3cncc(-c4cccnc4)c3)c2)ccc1OC1CCOCC1

>  <Name>  (791) 
nan

>  <Pocket>  (791) 
nan

>  <ATP_Site>  (791) 
nan

>  <Peripheral>  (791) 
nan

>  <Num_H_Atoms_ProtBoundConf>  (791) 
nan

>  <Num_Resolved_Atoms>  (791) 
nan

>  <Num_Not_Resolved_Atoms>  (791) 
nan

$$$$
CHEMBL3687428
     RDKit          3D

  0  0  0  0  0  0  0  0  0  0999 V3000
M  V30 BEGIN CTAB
M  V30 COUNTS 63 66 0 0 0
M  V30 BEGIN ATOM
M  V30 1 C 3.324818 -1.803773 2.306987 0
M  V30 2 C 3.111566 -1.650337 0.815208 0 CFG=2
M  V30 3 C 2.994835 -0.180496 0.517886 0
M  V30 4 C 2.324840 0.112557 -0.786499 0 CFG=2
M  V30 5 C 2.282686 1.537056 -1.063447 0
M  V30 6 C 3.300984 2.184576 -1.765557 0
M  V30 7 C 3.343296 3.527845 -2.077995 0
M  V30 8 N 2.320273 4.312117 -1.681359 0
M  V30 9 C 1.296652 3.760835 -0.996870 0
M  V30 10 C 1.283616 2.412812 -0.699455 0
M  V30 11 N 0.161315 1.923578 0.023903 0
M  V30 12 C -0.080885 1.825582 1.443409 0
M  V30 13 O 0.738000 2.191872 2.325016 0
M  V30 14 C -1.387943 1.251690 1.773250 0
M  V30 15 C -1.697927 1.122644 3.111234 0
M  V30 16 C -2.877387 0.606043 3.618869 0
M  V30 17 C -3.803203 0.193178 2.683183 0
M  V30 18 F -4.973126 -0.319700 3.111967 0
M  V30 19 C -3.474182 0.330643 1.347134 0
M  V30 20 C -4.494183 -0.123683 0.409031 0
M  V30 21 C -5.531059 0.589550 -0.154095 0
M  V30 22 F -5.584468 1.883453 0.233723 0
M  V30 23 C -6.394841 -0.041629 -1.029655 0
M  V30 24 C -6.241558 -1.374259 -1.353515 0
M  V30 25 C -5.204684 -2.096388 -0.793356 0
M  V30 26 C -4.327926 -1.461983 0.093326 0
M  V30 27 F -3.342119 -2.283965 0.580975 0
M  V30 28 N -2.311710 0.840095 0.909721 0
M  V30 29 C 1.039762 -0.639327 -0.919507 0
M  V30 30 C 1.471877 -2.115759 -0.982119 0 CFG=2
M  V30 31 N 0.386177 -2.925831 -1.435952 0
M  V30 32 C 1.883844 -2.451590 0.451519 0 CFG=1
M  V30 33 N 2.170704 -3.842158 0.584158 0
M  V30 34 S 1.247917 -4.687443 1.739388 0
M  V30 35 C -0.476058 -4.698207 1.424856 0
M  V30 36 O 1.725543 -6.127624 1.721264 0
M  V30 37 O 1.487587 -4.210004 3.140310 0
M  V30 38 H 2.424752 -1.634988 2.909851 0
M  V30 39 H 3.769401 -2.793807 2.551796 0
M  V30 40 H 4.079620 -1.061096 2.686087 0
M  V30 41 H 3.961158 -2.137916 0.301179 0
M  V30 42 H 2.509562 0.349302 1.339938 0
M  V30 43 H 4.045805 0.215804 0.449498 0
M  V30 44 H 3.004814 -0.336223 -1.577063 0
M  V30 45 H 4.157781 1.582511 -2.109528 0
M  V30 46 H 4.184846 3.925464 -2.628533 0
M  V30 47 H 0.497970 4.436682 -0.700912 0
M  V30 48 H -0.529377 1.615461 -0.690237 0
M  V30 49 H -0.975782 1.444762 3.864227 0
M  V30 50 H -3.048102 0.536707 4.687158 0
M  V30 51 H -7.200281 0.585234 -1.442941 0
M  V30 52 H -6.968979 -1.799246 -2.055562 0
M  V30 53 H -5.104083 -3.147666 -1.064371 0
M  V30 54 H 0.534164 -0.451678 -1.869880 0
M  V30 55 H 0.385446 -0.615012 -0.024447 0
M  V30 56 H 2.314652 -2.158555 -1.689459 0
M  V30 57 H 0.459376 -3.921213 -1.206183 0
M  V30 58 H -0.527312 -2.540829 -1.108154 0
M  V30 59 H 1.085251 -2.099246 1.126958 0
M  V30 60 H 2.243384 -4.367023 -0.311676 0
M  V30 61 H -0.724820 -5.514171 0.704460 0
M  V30 62 H -0.843021 -3.772871 0.932970 0
M  V30 63 H -1.084723 -4.844926 2.318179 0
M  V30 END ATOM
M  V30 BEGIN BOND
M  V30 1 1 1 2
M  V30 2 1 2 3
M  V30 3 1 3 4
M  V30 4 1 4 5
M  V30 5 2 5 6
M  V30 6 1 6 7
M  V30 7 2 7 8
M  V30 8 1 8 9
M  V30 9 2 9 10
M  V30 10 1 10 11
M  V30 11 1 11 12
M  V30 12 2 12 13
M  V30 13 1 12 14
M  V30 14 2 14 15
M  V30 15 1 15 16
M  V30 16 2 16 17
M  V30 17 1 17 18
M  V30 18 1 17 19
M  V30 19 1 19 20
M  V30 20 2 20 21
M  V30 21 1 21 22
M  V30 22 1 21 23
M  V30 23 2 23 24
M  V30 24 1 24 25
M  V30 25 2 25 26
M  V30 26 1 26 27
M  V30 27 2 19 28
M  V30 28 1 4 29
M  V30 29 1 29 30
M  V30 30 1 30 31
M  V30 31 1 30 32
M  V30 32 1 32 33
M  V30 33 1 33 34
M  V30 34 1 34 35
M  V30 35 2 34 36
M  V30 36 2 34 37
M  V30 37 1 32 2
M  V30 38 1 10 5
M  V30 39 1 28 14
M  V30 40 1 26 20
M  V30 41 1 1 38
M  V30 42 1 1 39
M  V30 43 1 1 40
M  V30 44 1 2 41 CFG=3
M  V30 45 1 3 42
M  V30 46 1 3 43
M  V30 47 1 4 44 CFG=3
M  V30 48 1 6 45
M  V30 49 1 7 46
M  V30 50 1 9 47
M  V30 51 1 11 48
M  V30 52 1 15 49
M  V30 53 1 16 50
M  V30 54 1 23 51
M  V30 55 1 24 52
M  V30 56 1 25 53
M  V30 57 1 29 54
M  V30 58 1 29 55
M  V30 59 1 30 56 CFG=3
M  V30 60 1 31 57
M  V30 61 1 31 58
M  V30 62 1 32 59 CFG=1
M  V30 63 1 33 60
M  V30 64 1 35 61
M  V30 65 1 35 62
M  V30 66 1 35 63
M  V30 END BOND
M  V30 END CTAB
M  END
>  <Dataset>  (792) 
ChEMBL_Kinases

>  <Ligand_Instance>  (792) 
nan

>  <PDB_ID>  (792) 
nan

>  <Standardized_SMILES>  (792) 
C[C@@H]1C[C@H](c2ccncc2NC(=O)c2ccc(F)c(-c3c(F)cccc3F)n2)C[C@H](N)[C@H]1NS(C)(=O)=O

>  <Name>  (792) 
nan

>  <Pocket>  (792) 
nan

>  <ATP_Site>  (792) 
nan

>  <Peripheral>  (792) 
nan

>  <Num_H_Atoms_ProtBoundConf>  (792) 
nan

>  <Num_Resolved_Atoms>  (792) 
nan

>  <Num_Not_Resolved_Atoms>  (792) 
nan

$$$$
CHEMBL3687451
     RDKit          3D

  0  0  0  0  0  0  0  0  0  0999 V3000
M  V30 BEGIN CTAB
M  V30 COUNTS 62 65 0 0 0
M  V30 BEGIN ATOM
M  V30 1 C 3.921694 -0.343050 1.187861 0
M  V30 2 C 2.419711 -0.602960 1.341054 0 CFG=1
M  V30 3 C 2.093962 -1.649161 0.295350 0
M  V30 4 C 0.714304 -2.254853 0.522541 0 CFG=1
M  V30 5 C 0.477478 -3.268271 -0.519853 0
M  V30 6 C 0.874179 -4.571502 -0.298140 0
M  V30 7 C 0.627840 -5.477297 -1.309129 0
M  V30 8 N 0.032710 -5.130182 -2.460542 0
M  V30 9 C -0.353272 -3.860270 -2.675276 0
M  V30 10 C -0.144456 -2.887333 -1.713776 0
M  V30 11 N -0.570627 -1.556471 -1.981229 0
M  V30 12 C -0.052808 -0.378056 -2.558719 0
M  V30 13 O 1.113253 -0.308190 -3.025276 0
M  V30 14 C -1.004517 0.727729 -2.553220 0
M  V30 15 C -0.554635 1.907052 -3.104660 0
M  V30 16 C -1.363788 3.022578 -3.156458 0
M  V30 17 C -2.646605 2.978516 -2.654165 0
M  V30 18 F -3.577057 3.959045 -2.616126 0
M  V30 19 C -3.074791 1.775402 -2.103328 0
M  V30 20 C -4.375842 1.461195 -1.507098 0
M  V30 21 C -4.374315 1.730354 -0.135805 0
M  V30 22 F -3.327198 2.216480 0.576013 0
M  V30 23 C -5.514609 1.503168 0.632213 0
M  V30 24 C -6.633173 1.007067 -0.009081 0
M  V30 25 C -6.638540 0.740729 -1.359518 0
M  V30 26 C -5.508943 0.966094 -2.118792 0
M  V30 27 F -5.337694 0.761927 -3.450008 0
M  V30 28 N -2.247599 0.729474 -2.080810 0
M  V30 29 C 0.783188 -2.895108 1.899319 0
M  V30 30 C 0.810611 -1.744951 2.884953 0 CFG=1
M  V30 31 N 0.637327 -2.175523 4.239301 0
M  V30 32 C 2.197883 -1.109293 2.737798 0 CFG=2
M  V30 33 O 2.348108 -0.062194 3.626639 0
M  V30 34 S 3.622984 -0.337031 4.683929 0
M  V30 35 C 3.144798 0.170954 6.337437 0
M  V30 36 O 4.853209 0.422965 4.283899 0
M  V30 37 O 3.971957 -1.806606 4.753206 0
M  V30 38 H 4.240439 0.612277 1.607567 0
M  V30 39 H 4.419105 -1.154480 1.764476 0
M  V30 40 H 4.192232 -0.435389 0.096286 0
M  V30 41 H 1.931986 0.371661 1.133492 0
M  V30 42 H 2.241457 -1.233532 -0.698683 0
M  V30 43 H 2.809908 -2.493653 0.519275 0
M  V30 44 H -0.064015 -1.462678 0.532792 0
M  V30 45 H 1.354080 -4.881551 0.614858 0
M  V30 46 H 0.916524 -6.503614 -1.187441 0
M  V30 47 H -0.827189 -3.644475 -3.623386 0
M  V30 48 H -1.542595 -1.662027 -1.577335 0
M  V30 49 H 0.443757 1.994595 -3.512772 0
M  V30 50 H -1.085662 3.979671 -3.570935 0
M  V30 51 H -5.597868 1.682461 1.687140 0
M  V30 52 H -7.596372 0.782648 0.473907 0
M  V30 53 H -7.486076 0.349334 -1.924389 0
M  V30 54 H -0.004962 -3.627099 2.086713 0
M  V30 55 H 1.791025 -3.400183 1.974609 0
M  V30 56 H 0.087748 -0.979531 2.561373 0
M  V30 57 H -0.402019 -2.285517 4.391327 0
M  V30 58 H 0.928913 -1.370043 4.851519 0
M  V30 59 H 2.967690 -1.893122 2.938056 0
M  V30 60 H 4.013109 0.088961 7.011495 0
M  V30 61 H 2.351244 -0.533216 6.684739 0
M  V30 62 H 2.771632 1.213833 6.238518 0
M  V30 END ATOM
M  V30 BEGIN BOND
M  V30 1 1 1 2
M  V30 2 1 2 3
M  V30 3 1 3 4
M  V30 4 1 4 5
M  V30 5 2 5 6
M  V30 6 1 6 7
M  V30 7 2 7 8
M  V30 8 1 8 9
M  V30 9 2 9 10
M  V30 10 1 10 11
M  V30 11 1 11 12
M  V30 12 2 12 13
M  V30 13 1 12 14
M  V30 14 2 14 15
M  V30 15 1 15 16
M  V30 16 2 16 17
M  V30 17 1 17 18
M  V30 18 1 17 19
M  V30 19 1 19 20
M  V30 20 2 20 21
M  V30 21 1 21 22
M  V30 22 1 21 23
M  V30 23 2 23 24
M  V30 24 1 24 25
M  V30 25 2 25 26
M  V30 26 1 26 27
M  V30 27 2 19 28
M  V30 28 1 4 29
M  V30 29 1 29 30
M  V30 30 1 30 31
M  V30 31 1 30 32
M  V30 32 1 32 33
M  V30 33 1 33 34
M  V30 34 1 34 35
M  V30 35 2 34 36
M  V30 36 2 34 37
M  V30 37 1 32 2
M  V30 38 1 10 5
M  V30 39 1 28 14
M  V30 40 1 26 20
M  V30 41 1 1 38
M  V30 42 1 1 39
M  V30 43 1 1 40
M  V30 44 1 2 41 CFG=3
M  V30 45 1 3 42
M  V30 46 1 3 43
M  V30 47 1 4 44 CFG=1
M  V30 48 1 6 45
M  V30 49 1 7 46
M  V30 50 1 9 47
M  V30 51 1 11 48
M  V30 52 1 15 49
M  V30 53 1 16 50
M  V30 54 1 23 51
M  V30 55 1 24 52
M  V30 56 1 25 53
M  V30 57 1 29 54
M  V30 58 1 29 55
M  V30 59 1 30 56 CFG=3
M  V30 60 1 31 57
M  V30 61 1 31 58
M  V30 62 1 32 59 CFG=1
M  V30 63 1 35 60
M  V30 64 1 35 61
M  V30 65 1 35 62
M  V30 END BOND
M  V30 END CTAB
M  END
>  <Dataset>  (793) 
ChEMBL_Kinases

>  <Ligand_Instance>  (793) 
nan

>  <PDB_ID>  (793) 
nan

>  <Standardized_SMILES>  (793) 
C[C@H]1C[C@@H](c2ccncc2NC(=O)c2ccc(F)c(-c3c(F)cccc3F)n2)C[C@@H](N)[C@@H]1OS(C)(=O)=O

>  <Name>  (793) 
nan

>  <Pocket>  (793) 
nan

>  <ATP_Site>  (793) 
nan

>  <Peripheral>  (793) 
nan

>  <Num_H_Atoms_ProtBoundConf>  (793) 
nan

>  <Num_Resolved_Atoms>  (793) 
nan

>  <Num_Not_Resolved_Atoms>  (793) 
nan

$$$$
CHEMBL3687457
     RDKit          3D

  0  0  0  0  0  0  0  0  0  0999 V3000
M  V30 BEGIN CTAB
M  V30 COUNTS 65 68 0 0 0
M  V30 BEGIN ATOM
M  V30 1 C 0.533172 -1.970527 3.732832 0
M  V30 2 O 0.913087 -1.160873 2.639884 0
M  V30 3 C 2.238199 -0.788661 2.459145 0
M  V30 4 O 3.074326 -1.218583 3.329429 0
M  V30 5 N 3.115784 -0.060831 1.627563 0
M  V30 6 C 4.427955 -0.247516 2.271905 0
M  V30 7 C 2.887406 0.724183 0.403701 0 CFG=2
M  V30 8 C 2.163752 1.946737 0.828049 0 CFG=2
M  V30 9 N 2.343462 2.238125 2.251463 0
M  V30 10 C 0.694660 1.975056 0.459145 0
M  V30 11 C 0.688599 1.754828 -1.034714 0 CFG=2
M  V30 12 C -0.463821 2.247629 -1.748314 0
M  V30 13 C -0.412270 3.531595 -2.314712 0
M  V30 14 C -1.417752 4.147334 -3.029853 0
M  V30 15 N -2.588411 3.470974 -3.223812 0
M  V30 16 C -2.711392 2.245168 -2.714570 0
M  V30 17 C -1.683870 1.663482 -2.005353 0
M  V30 18 N -1.918567 0.356055 -1.502101 0
M  V30 19 C -2.506197 0.437935 -0.183121 0
M  V30 20 O -2.679356 1.625742 0.222854 0
M  V30 21 C -2.891793 -0.710489 0.665415 0
M  V30 22 N -2.707826 -1.943651 0.232355 0
M  V30 23 C -2.990573 -2.913992 0.855144 0
M  V30 24 C -2.902391 -4.407089 0.639155 0
M  V30 25 C -3.315254 -5.297072 1.575757 0
M  V30 26 F -3.824068 -4.853585 2.746949 0
M  V30 27 C -3.176467 -6.628390 1.244197 0
M  V30 28 C -2.644168 -7.017187 0.020659 0
M  V30 29 C -2.226553 -6.075797 -0.926034 0
M  V30 30 C -2.370429 -4.735521 -0.582931 0
M  V30 31 F -1.961644 -3.822756 -1.510695 0
M  V30 32 S -3.675694 -2.282579 2.409445 0
M  V30 33 C -3.428846 -0.511279 1.879226 0
M  V30 34 N -3.727325 0.693958 2.569440 0
M  V30 35 C 0.995034 0.293347 -1.217300 0
M  V30 36 C 2.391284 -0.050770 -0.748294 0 CFG=2
M  V30 37 C 2.391952 -1.559018 -0.566823 0
M  V30 38 H -0.029617 -1.356506 4.456518 0
M  V30 39 H 1.458138 -2.290222 4.281971 0
M  V30 40 H -0.045172 -2.864338 3.401149 0
M  V30 41 H 4.715288 -1.314887 2.328057 0
M  V30 42 H 5.204802 0.305181 1.705262 0
M  V30 43 H 4.430314 0.143155 3.309621 0
M  V30 44 H 3.932453 1.085130 0.160016 0
M  V30 45 H 2.566513 2.872416 0.317708 0
M  V30 46 H 3.215430 2.793862 2.417908 0
M  V30 47 H 1.561535 2.879116 2.553020 0
M  V30 48 H 0.246788 1.088041 0.948323 0
M  V30 49 H 0.252110 2.925546 0.762437 0
M  V30 50 H 1.604229 2.271341 -1.481203 0
M  V30 51 H 0.501420 4.120517 -2.190421 0
M  V30 52 H -1.275894 5.143073 -3.425347 0
M  V30 53 H -3.639780 1.715441 -2.870980 0
M  V30 54 H -1.773911 -0.638655 -1.855153 0
M  V30 55 H -3.496987 -7.383860 1.970402 0
M  V30 56 H -2.532630 -8.060943 -0.245925 0
M  V30 57 H -1.816732 -6.381008 -1.868934 0
M  V30 58 H -4.634258 1.178174 2.430289 0
M  V30 59 H -2.969848 1.045662 3.218696 0
M  V30 60 H 0.228530 -0.268355 -0.644702 0
M  V30 61 H 0.818407 0.059330 -2.284446 0
M  V30 62 H 3.036467 0.099044 -1.642955 0
M  V30 63 H 1.621690 -1.937103 0.099194 0
M  V30 64 H 3.406737 -1.970657 -0.417195 0
M  V30 65 H 2.098908 -1.962284 -1.583603 0
M  V30 END ATOM
M  V30 BEGIN BOND
M  V30 1 1 1 2
M  V30 2 1 2 3
M  V30 3 2 3 4
M  V30 4 1 3 5
M  V30 5 1 5 6
M  V30 6 1 5 7
M  V30 7 1 7 8
M  V30 8 1 8 9
M  V30 9 1 8 10
M  V30 10 1 10 11
M  V30 11 1 11 12
M  V30 12 2 12 13
M  V30 13 1 13 14
M  V30 14 2 14 15
M  V30 15 1 15 16
M  V30 16 2 16 17
M  V30 17 1 17 18
M  V30 18 1 18 19
M  V30 19 2 19 20
M  V30 20 1 19 21
M  V30 21 1 21 22
M  V30 22 2 22 23
M  V30 23 1 23 24
M  V30 24 2 24 25
M  V30 25 1 25 26
M  V30 26 1 25 27
M  V30 27 2 27 28
M  V30 28 1 28 29
M  V30 29 2 29 30
M  V30 30 1 30 31
M  V30 31 1 23 32
M  V30 32 1 32 33
M  V30 33 1 33 34
M  V30 34 1 11 35
M  V30 35 1 35 36
M  V30 36 1 36 37
M  V30 37 1 36 7
M  V30 38 1 17 12
M  V30 39 2 33 21
M  V30 40 1 30 24
M  V30 41 1 1 38
M  V30 42 1 1 39
M  V30 43 1 1 40
M  V30 44 1 6 41
M  V30 45 1 6 42
M  V30 46 1 6 43
M  V30 47 1 7 44 CFG=3
M  V30 48 1 8 45 CFG=3
M  V30 49 1 9 46
M  V30 50 1 9 47
M  V30 51 1 10 48
M  V30 52 1 10 49
M  V30 53 1 11 50 CFG=3
M  V30 54 1 13 51
M  V30 55 1 14 52
M  V30 56 1 16 53
M  V30 57 1 18 54
M  V30 58 1 27 55
M  V30 59 1 28 56
M  V30 60 1 29 57
M  V30 61 1 34 58
M  V30 62 1 34 59
M  V30 63 1 35 60
M  V30 64 1 35 61
M  V30 65 1 36 62 CFG=3
M  V30 66 1 37 63
M  V30 67 1 37 64
M  V30 68 1 37 65
M  V30 END BOND
M  V30 END CTAB
M  END
>  <Dataset>  (794) 
ChEMBL_Kinases

>  <Ligand_Instance>  (794) 
nan

>  <PDB_ID>  (794) 
nan

>  <Standardized_SMILES>  (794) 
COC(=O)N(C)[C@@H]1[C@H](N)C[C@H](c2ccncc2NC(=O)c2nc(-c3c(F)cccc3F)sc2N)C[C@@H]1C

>  <Name>  (794) 
nan

>  <Pocket>  (794) 
nan

>  <ATP_Site>  (794) 
nan

>  <Peripheral>  (794) 
nan

>  <Num_H_Atoms_ProtBoundConf>  (794) 
nan

>  <Num_Resolved_Atoms>  (794) 
nan

>  <Num_Not_Resolved_Atoms>  (794) 
nan

$$$$
CHEMBL3687524
     RDKit          3D

  0  0  0  0  0  0  0  0  0  0999 V3000
M  V30 BEGIN CTAB
M  V30 COUNTS 63 66 0 0 0
M  V30 BEGIN ATOM
M  V30 1 C 1.459144 -0.540804 3.734304 0
M  V30 2 C 1.601670 -1.312629 2.457269 0 CFG=1
M  V30 3 C 1.259879 -0.404357 1.316898 0
M  V30 4 C 1.494604 -1.018690 -0.040162 0 CFG=1
M  V30 5 C 1.705525 0.128905 -0.961469 0
M  V30 6 C 2.950816 0.649795 -1.222143 0
M  V30 7 C 3.201159 1.717807 -2.073391 0
M  V30 8 N 2.158369 2.292421 -2.693421 0
M  V30 9 C 0.905701 1.848273 -2.497550 0
M  V30 10 C 0.681165 0.786242 -1.647698 0
M  V30 11 N -0.653264 0.286042 -1.417064 0
M  V30 12 C -1.277937 -0.741804 -2.187287 0
M  V30 13 O -0.690096 -1.294926 -3.144469 0
M  V30 14 C -2.635990 -1.150620 -1.842004 0
M  V30 15 N -3.293645 -0.574822 -0.820080 0
M  V30 16 C -4.556533 -0.914436 -0.454940 0
M  V30 17 C -5.254382 -0.277686 0.657836 0
M  V30 18 C -6.034799 0.852085 0.498209 0
M  V30 19 F -6.165745 1.403185 -0.744791 0
M  V30 20 C -6.707907 1.480277 1.525585 0
M  V30 21 C -6.576665 0.925048 2.781293 0
M  V30 22 C -5.809954 -0.215744 3.041707 0
M  V30 23 C -5.177345 -0.767482 1.946285 0
M  V30 24 F -4.431078 -1.872189 2.180324 0
M  V30 25 C -5.123851 -1.910513 -1.222987 0
M  V30 26 F -6.395472 -2.291027 -0.897707 0
M  V30 27 C -4.499965 -2.537489 -2.281654 0
M  V30 28 C -3.204355 -2.144486 -2.607092 0
M  V30 29 N -2.583146 -2.803932 -3.700244 0
M  V30 30 C 2.454994 -2.110958 -0.131103 0
M  V30 31 C 3.290246 -2.499611 1.020096 0 CFG=1
M  V30 32 N 4.730759 -2.270432 0.784334 0
M  V30 33 C 2.935618 -1.973082 2.359791 0 CFG=1
M  V30 34 S 4.245635 -1.060168 3.146134 0
M  V30 35 C 4.710188 0.426646 2.418283 0
M  V30 36 O 5.423345 -2.032959 3.148141 0
M  V30 37 O 3.957825 -0.879113 4.619873 0
M  V30 38 H 0.361033 -0.289542 3.823992 0
M  V30 39 H 1.640174 -1.182369 4.640875 0
M  V30 40 H 1.982784 0.415175 3.768964 0
M  V30 41 H 0.822519 -2.108933 2.471992 0
M  V30 42 H 0.192359 -0.101283 1.483397 0
M  V30 43 H 1.794964 0.556380 1.470093 0
M  V30 44 H 0.489199 -1.388555 -0.351278 0
M  V30 45 H 3.824027 0.239493 -0.762639 0
M  V30 46 H 4.207555 2.090949 -2.244312 0
M  V30 47 H 0.036223 2.284976 -2.979395 0
M  V30 48 H -1.114704 0.781180 -0.598348 0
M  V30 49 H -7.311558 2.365075 1.365526 0
M  V30 50 H -7.110228 1.428493 3.578660 0
M  V30 51 H -5.726112 -0.628364 4.037797 0
M  V30 52 H -5.019490 -3.305710 -2.825839 0
M  V30 53 H -2.448036 -2.520113 -4.695604 0
M  V30 54 H -2.262510 -3.714369 -3.253685 0
M  V30 55 H 1.946490 -3.036767 -0.535647 0
M  V30 56 H 3.171003 -1.885571 -0.985228 0
M  V30 57 H 3.316535 -3.636440 1.056454 0
M  V30 58 H 4.948311 -2.836357 -0.088894 0
M  V30 59 H 4.982610 -1.289650 0.676429 0
M  V30 60 H 2.867907 -2.853682 3.076749 0
M  V30 61 H 4.672185 1.286104 3.155198 0
M  V30 62 H 4.179894 0.790084 1.542555 0
M  V30 63 H 5.806885 0.410463 2.143374 0
M  V30 END ATOM
M  V30 BEGIN BOND
M  V30 1 1 1 2
M  V30 2 1 2 3
M  V30 3 1 3 4
M  V30 4 1 4 5
M  V30 5 2 5 6
M  V30 6 1 6 7
M  V30 7 2 7 8
M  V30 8 1 8 9
M  V30 9 2 9 10
M  V30 10 1 10 11
M  V30 11 1 11 12
M  V30 12 2 12 13
M  V30 13 1 12 14
M  V30 14 2 14 15
M  V30 15 1 15 16
M  V30 16 1 16 17
M  V30 17 2 17 18
M  V30 18 1 18 19
M  V30 19 1 18 20
M  V30 20 2 20 21
M  V30 21 1 21 22
M  V30 22 2 22 23
M  V30 23 1 23 24
M  V30 24 2 16 25
M  V30 25 1 25 26
M  V30 26 1 25 27
M  V30 27 2 27 28
M  V30 28 1 28 29
M  V30 29 1 4 30
M  V30 30 1 30 31
M  V30 31 1 31 32
M  V30 32 1 31 33
M  V30 33 1 33 34
M  V30 34 1 34 35
M  V30 35 2 34 36
M  V30 36 2 34 37
M  V30 37 1 33 2
M  V30 38 1 10 5
M  V30 39 1 28 14
M  V30 40 1 23 17
M  V30 41 1 1 38
M  V30 42 1 1 39
M  V30 43 1 1 40
M  V30 44 1 2 41 CFG=1
M  V30 45 1 3 42
M  V30 46 1 3 43
M  V30 47 1 4 44 CFG=3
M  V30 48 1 6 45
M  V30 49 1 7 46
M  V30 50 1 9 47
M  V30 51 1 11 48
M  V30 52 1 20 49
M  V30 53 1 21 50
M  V30 54 1 22 51
M  V30 55 1 27 52
M  V30 56 1 29 53
M  V30 57 1 29 54
M  V30 58 1 30 55
M  V30 59 1 30 56
M  V30 60 1 31 57 CFG=1
M  V30 61 1 32 58
M  V30 62 1 32 59
M  V30 63 1 33 60 CFG=1
M  V30 64 1 35 61
M  V30 65 1 35 62
M  V30 66 1 35 63
M  V30 END BOND
M  V30 END CTAB
M  END
>  <Dataset>  (795) 
ChEMBL_Kinases

>  <Ligand_Instance>  (795) 
nan

>  <PDB_ID>  (795) 
nan

>  <Standardized_SMILES>  (795) 
C[C@H]1C[C@@H](c2ccncc2NC(=O)c2nc(-c3c(F)cccc3F)c(F)cc2N)C[C@@H](N)[C@H]1S(C)(=O)=O

>  <Name>  (795) 
nan

>  <Pocket>  (795) 
nan

>  <ATP_Site>  (795) 
nan

>  <Peripheral>  (795) 
nan

>  <Num_H_Atoms_ProtBoundConf>  (795) 
nan

>  <Num_Resolved_Atoms>  (795) 
nan

>  <Num_Not_Resolved_Atoms>  (795) 
nan

$$$$
CHEMBL3687183
     RDKit          3D

  0  0  0  0  0  0  0  0  0  0999 V3000
M  V30 BEGIN CTAB
M  V30 COUNTS 55 59 0 0 0
M  V30 BEGIN ATOM
M  V30 1 N 0.735056 -6.413655 -1.282479 0
M  V30 2 C 0.708345 -5.327753 -0.901786 0
M  V30 3 C 0.699994 -3.989805 -0.434712 0
M  V30 4 C 1.778612 -3.403412 0.229702 0
M  V30 5 C 1.740096 -2.105713 0.675106 0
M  V30 6 C 2.877628 -1.518884 1.362212 0
M  V30 7 C 4.072777 -2.172478 1.657666 0
M  V30 8 C 5.143020 -1.638583 2.294906 0
M  V30 9 N 5.037346 -0.362861 2.676797 0
M  V30 10 C 3.909615 0.349647 2.432240 0
M  V30 11 N 3.923235 1.694006 2.888908 0
M  V30 12 C 2.949957 2.730585 2.858199 0
M  V30 13 C 3.189613 4.038156 3.323123 0
M  V30 14 C 2.195988 4.977183 3.263042 0
M  V30 15 C 0.946277 4.730862 2.768143 0
M  V30 16 O -0.135727 5.481736 2.623557 0
M  V30 17 C -1.099135 4.784919 2.093678 0
M  V30 18 C -2.427874 5.307454 1.799552 0
M  V30 19 N -3.444380 4.482802 1.243857 0
M  V30 20 O -2.603178 6.525532 2.071137 0
M  V30 21 C -0.644558 3.493315 1.867359 0
M  V30 22 C 0.663454 3.466200 2.301064 0
M  V30 23 C 1.671115 2.528445 2.366247 0
M  V30 24 N 2.897570 -0.250260 1.796763 0
M  V30 25 C 0.612916 -1.347840 0.470484 0
M  V30 26 C -0.469330 -1.944097 -0.198181 0
M  V30 27 C -0.434217 -3.271941 -0.658125 0
M  V30 28 O -1.631489 -3.486388 -1.246135 0
M  V30 29 C -2.251910 -4.518557 -1.903393 0
M  V30 30 C -2.723827 -4.054563 -3.265028 0
M  V30 31 C -3.969821 -3.234065 -3.214943 0
M  V30 32 O -4.824131 -3.591447 -2.176878 0
M  V30 33 C -4.654080 -4.960541 -1.867665 0
M  V30 34 C -3.388391 -5.038560 -1.050616 0
M  V30 35 H 2.622790 -4.060981 0.353845 0
M  V30 36 H 4.161570 -3.215805 1.349941 0
M  V30 37 H 6.044133 -2.180550 2.500821 0
M  V30 38 H 4.813422 2.050741 3.356295 0
M  V30 39 H 4.173562 4.261568 3.721781 0
M  V30 40 H 2.489391 5.953639 3.649874 0
M  V30 41 H -3.275562 3.455325 1.189251 0
M  V30 42 H -4.335256 4.857255 0.893057 0
M  V30 43 H -1.180904 2.657991 1.440381 0
M  V30 44 H 1.404934 1.565641 1.993798 0
M  V30 45 H 0.635711 -0.334665 0.839141 0
M  V30 46 H -1.282341 -1.199259 -0.274462 0
M  V30 47 H -1.564233 -5.372197 -2.032637 0
M  V30 48 H -2.917786 -4.961727 -3.867880 0
M  V30 49 H -1.868275 -3.529994 -3.741068 0
M  V30 50 H -4.570867 -3.280727 -4.139211 0
M  V30 51 H -3.687351 -2.173750 -3.059328 0
M  V30 52 H -4.516402 -5.573042 -2.785564 0
M  V30 53 H -5.539830 -5.280430 -1.278311 0
M  V30 54 H -3.494975 -4.465466 -0.106226 0
M  V30 55 H -3.217219 -6.073940 -0.760046 0
M  V30 END ATOM
M  V30 BEGIN BOND
M  V30 1 3 1 2
M  V30 2 1 2 3
M  V30 3 2 3 4
M  V30 4 1 4 5
M  V30 5 1 5 6
M  V30 6 2 6 7
M  V30 7 1 7 8
M  V30 8 2 8 9
M  V30 9 1 9 10
M  V30 10 1 10 11
M  V30 11 1 11 12
M  V30 12 2 12 13
M  V30 13 1 13 14
M  V30 14 2 14 15
M  V30 15 1 15 16
M  V30 16 1 16 17
M  V30 17 1 17 18
M  V30 18 1 18 19
M  V30 19 2 18 20
M  V30 20 2 17 21
M  V30 21 1 21 22
M  V30 22 2 22 23
M  V30 23 2 10 24
M  V30 24 2 5 25
M  V30 25 1 25 26
M  V30 26 2 26 27
M  V30 27 1 27 28
M  V30 28 1 28 29
M  V30 29 1 29 30
M  V30 30 1 30 31
M  V30 31 1 31 32
M  V30 32 1 32 33
M  V30 33 1 33 34
M  V30 34 1 27 3
M  V30 35 1 34 29
M  V30 36 1 24 6
M  V30 37 1 23 12
M  V30 38 1 22 15
M  V30 39 1 4 35
M  V30 40 1 7 36
M  V30 41 1 8 37
M  V30 42 1 11 38
M  V30 43 1 13 39
M  V30 44 1 14 40
M  V30 45 1 19 41
M  V30 46 1 19 42
M  V30 47 1 21 43
M  V30 48 1 23 44
M  V30 49 1 25 45
M  V30 50 1 26 46
M  V30 51 1 29 47
M  V30 52 1 30 48
M  V30 53 1 30 49
M  V30 54 1 31 50
M  V30 55 1 31 51
M  V30 56 1 33 52
M  V30 57 1 33 53
M  V30 58 1 34 54
M  V30 59 1 34 55
M  V30 END BOND
M  V30 END CTAB
M  END
>  <Dataset>  (796) 
ChEMBL_Kinases

>  <Ligand_Instance>  (796) 
nan

>  <PDB_ID>  (796) 
nan

>  <Standardized_SMILES>  (796) 
N#Cc1cc(-c2ccnc(Nc3ccc4oc(C(N)=O)cc4c3)n2)ccc1OC1CCOCC1

>  <Name>  (796) 
nan

>  <Pocket>  (796) 
nan

>  <ATP_Site>  (796) 
nan

>  <Peripheral>  (796) 
nan

>  <Num_H_Atoms_ProtBoundConf>  (796) 
nan

>  <Num_Resolved_Atoms>  (796) 
nan

>  <Num_Not_Resolved_Atoms>  (796) 
nan

$$$$
CHEMBL3689229
     RDKit          3D

  0  0  0  0  0  0  0  0  0  0999 V3000
M  V30 BEGIN CTAB
M  V30 COUNTS 83 88 0 0 0
M  V30 BEGIN ATOM
M  V30 1 O 1.939471 -1.092811 4.867406 0
M  V30 2 C 1.906030 -0.989876 3.591225 0
M  V30 3 N 1.664226 -2.246138 3.186301 0
M  V30 4 C 1.405460 -3.618166 2.970121 0
M  V30 5 C 1.381798 -3.939635 1.505506 0
M  V30 6 C 1.370087 -4.178520 0.320844 0
M  V30 7 C 1.368518 -4.442900 -1.107394 0
M  V30 8 C 2.324241 -5.172522 -1.771779 0
M  V30 9 C 2.273852 -5.266681 -3.176047 0
M  V30 10 C 1.229054 -4.593616 -3.795589 0
M  V30 11 N 1.158190 -4.624134 -5.145491 0
M  V30 12 C 0.191376 -3.973465 -5.822567 0
M  V30 13 C -0.785314 -3.235843 -5.159610 0
M  V30 14 N -1.848159 -2.477484 -5.732016 0
M  V30 15 C -2.878304 -1.839771 -4.897995 0 CFG=1
M  V30 16 C -3.629337 -2.855577 -4.117190 0
M  V30 17 C -3.683470 -2.757846 -2.651957 0
M  V30 18 C -3.157142 -1.521771 -1.991367 0 CFG=2
M  V30 19 N -3.816081 -1.407264 -0.735585 0
M  V30 20 C -5.205439 -1.441618 -0.673419 0
M  V30 21 C -5.702179 -0.697330 0.540901 0
M  V30 22 O -5.001287 0.479021 0.742369 0
M  V30 23 C -3.689809 0.245156 1.062496 0
M  V30 24 C -3.055410 -0.894453 0.334990 0
M  V30 25 C -3.218670 -0.364950 -2.912502 0
M  V30 26 C -2.369964 -0.676900 -4.142468 0
M  V30 27 N -0.711434 -3.206284 -3.793918 0
M  V30 28 C 0.267364 -3.865266 -3.146390 0
M  V30 29 C 0.336545 -3.788071 -1.773774 0
M  V30 30 C 2.144530 0.352192 3.376742 0
M  V30 31 C 1.623574 0.243733 1.953295 0
M  V30 32 C 1.473051 1.186953 0.890454 0
M  V30 33 C 1.885450 2.508501 1.189258 0
M  V30 34 N 2.355263 2.678662 2.417717 0
M  V30 35 C 2.850491 3.911318 2.941265 0 CFG=2
M  V30 36 C 3.722001 4.579459 1.889461 0
M  V30 37 O 4.252457 5.793881 2.343888 0
M  V30 38 C 3.486710 3.866818 4.248821 0
M  V30 39 C 4.802654 3.507048 4.251353 0
M  V30 40 C 5.516068 3.440288 5.448652 0
M  V30 41 C 4.847898 3.749389 6.624363 0
M  V30 42 C 3.506485 4.116459 6.625213 0
M  V30 43 C 2.832585 4.171360 5.429484 0
M  V30 44 C 2.367413 1.608533 3.171787 0
M  V30 45 O 2.803491 1.592362 4.426226 0
M  V30 46 H 1.763074 -2.023300 2.144344 0
M  V30 47 H 2.157941 -4.296925 3.429885 0
M  V30 48 H 0.371584 -3.853837 3.367458 0
M  V30 49 H 3.092515 -5.655803 -1.154001 0
M  V30 50 H 3.029001 -5.847267 -3.686361 0
M  V30 51 H 0.087327 -3.959481 -6.911107 0
M  V30 52 H -1.802232 -2.433408 -6.773254 0
M  V30 53 H -3.592030 -1.410401 -5.671380 0
M  V30 54 H -3.213440 -3.868007 -4.383859 0
M  V30 55 H -4.684093 -2.906968 -4.536126 0
M  V30 56 H -3.243877 -3.685300 -2.167619 0
M  V30 57 H -4.767997 -2.827101 -2.310016 0
M  V30 58 H -2.050632 -1.647164 -1.731052 0
M  V30 59 H -5.753167 -1.181664 -1.598332 0
M  V30 60 H -5.513607 -2.520107 -0.480530 0
M  V30 61 H -5.503846 -1.338571 1.424964 0
M  V30 62 H -6.791185 -0.480530 0.502243 0
M  V30 63 H -3.066187 1.165984 0.869760 0
M  V30 64 H -3.555326 0.087532 2.178470 0
M  V30 65 H -2.082899 -0.526238 -0.121972 0
M  V30 66 H -2.700639 -1.696577 1.044165 0
M  V30 67 H -2.776215 0.564443 -2.474707 0
M  V30 68 H -4.268397 -0.209270 -3.261277 0
M  V30 69 H -1.324481 -0.847901 -3.829689 0
M  V30 70 H -2.377799 0.292161 -4.729658 0
M  V30 71 H -0.409624 -3.227839 -1.275709 0
M  V30 72 H 1.177538 -0.559433 1.257283 0
M  V30 73 H 1.115642 1.223476 -0.155459 0
M  V30 74 H 1.873195 3.396333 0.588510 0
M  V30 75 H 1.938470 4.592356 3.000730 0
M  V30 76 H 4.571930 3.938628 1.579581 0
M  V30 77 H 3.168662 4.847351 0.966144 0
M  V30 78 H 4.992030 6.083402 1.725302 0
M  V30 79 H 5.359083 3.256129 3.346078 0
M  V30 80 H 6.557929 3.163276 5.502057 0
M  V30 81 H 5.407885 3.699621 7.548445 0
M  V30 82 H 2.974754 4.365721 7.552435 0
M  V30 83 H 1.781230 4.445775 5.330575 0
M  V30 END ATOM
M  V30 BEGIN BOND
M  V30 1 2 1 2
M  V30 2 1 2 3
M  V30 3 1 3 4
M  V30 4 1 4 5
M  V30 5 3 5 6
M  V30 6 1 6 7
M  V30 7 2 7 8
M  V30 8 1 8 9
M  V30 9 2 9 10
M  V30 10 1 10 11
M  V30 11 2 11 12
M  V30 12 1 12 13
M  V30 13 1 13 14
M  V30 14 1 14 15
M  V30 15 1 15 16
M  V30 16 1 16 17
M  V30 17 1 17 18
M  V30 18 1 18 19
M  V30 19 1 19 20
M  V30 20 1 20 21
M  V30 21 1 21 22
M  V30 22 1 22 23
M  V30 23 1 23 24
M  V30 24 1 18 25
M  V30 25 1 25 26
M  V30 26 2 13 27
M  V30 27 1 27 28
M  V30 28 2 28 29
M  V30 29 1 2 30
M  V30 30 2 30 31
M  V30 31 1 31 32
M  V30 32 2 32 33
M  V30 33 1 33 34
M  V30 34 1 34 35
M  V30 35 1 35 36
M  V30 36 1 36 37
M  V30 37 1 35 38
M  V30 38 2 38 39
M  V30 39 1 39 40
M  V30 40 2 40 41
M  V30 41 1 41 42
M  V30 42 2 42 43
M  V30 43 1 34 44
M  V30 44 2 44 45
M  V30 45 1 29 7
M  V30 46 1 44 30
M  V30 47 1 28 10
M  V30 48 1 43 38
M  V30 49 1 26 15
M  V30 50 1 24 19
M  V30 51 1 3 46
M  V30 52 1 4 47
M  V30 53 1 4 48
M  V30 54 1 8 49
M  V30 55 1 9 50
M  V30 56 1 12 51
M  V30 57 1 14 52
M  V30 58 1 15 53 CFG=3
M  V30 59 1 16 54
M  V30 60 1 16 55
M  V30 61 1 17 56
M  V30 62 1 17 57
M  V30 63 1 18 58 CFG=1
M  V30 64 1 20 59
M  V30 65 1 20 60
M  V30 66 1 21 61
M  V30 67 1 21 62
M  V30 68 1 23 63
M  V30 69 1 23 64
M  V30 70 1 24 65
M  V30 71 1 24 66
M  V30 72 1 25 67
M  V30 73 1 25 68
M  V30 74 1 26 69
M  V30 75 1 26 70
M  V30 76 1 29 71
M  V30 77 1 31 72
M  V30 78 1 32 73
M  V30 79 1 33 74
M  V30 80 1 35 75 CFG=1
M  V30 81 1 36 76
M  V30 82 1 36 77
M  V30 83 1 37 78
M  V30 84 1 39 79
M  V30 85 1 40 80
M  V30 86 1 41 81
M  V30 87 1 42 82
M  V30 88 1 43 83
M  V30 END BOND
M  V30 END CTAB
M  END
>  <Dataset>  (797) 
ChEMBL_Kinases

>  <Ligand_Instance>  (797) 
nan

>  <PDB_ID>  (797) 
nan

>  <Standardized_SMILES>  (797) 
O=C(NCC#Cc1ccc2ncc(N[C@H]3CC[C@H](N4CCOCC4)CC3)nc2c1)c1cccn([C@H](CO)c2ccccc2)c1=O

>  <Name>  (797) 
nan

>  <Pocket>  (797) 
nan

>  <ATP_Site>  (797) 
nan

>  <Peripheral>  (797) 
nan

>  <Num_H_Atoms_ProtBoundConf>  (797) 
nan

>  <Num_Resolved_Atoms>  (797) 
nan

>  <Num_Not_Resolved_Atoms>  (797) 
nan

$$$$
CHEMBL3689228
     RDKit          3D

  0  0  0  0  0  0  0  0  0  0999 V3000
M  V30 BEGIN CTAB
M  V30 COUNTS 76 81 0 0 0
M  V30 BEGIN ATOM
M  V30 1 C -7.443446 -3.392168 -1.476506 0
M  V30 2 C -6.031991 -3.031130 -1.862723 0 CFG=1
M  V30 3 C -5.332901 -2.515920 -0.674500 0
M  V30 4 C -5.615948 -3.257559 0.474896 0
M  V30 5 C -5.074789 -2.956565 1.709655 0
M  V30 6 C -4.218132 -1.876027 1.808274 0
M  V30 7 F -3.674586 -1.561739 3.009795 0
M  V30 8 C -3.927604 -1.133621 0.689669 0
M  V30 9 F -3.092503 -0.059199 0.727982 0
M  V30 10 C -4.468201 -1.434100 -0.546174 0
M  V30 11 N -5.311652 -4.093253 -2.467848 0
M  V30 12 C -6.074438 -4.815889 -3.301653 0
M  V30 13 C -5.541807 -5.910882 -3.989654 0
M  V30 14 C -4.224777 -6.216160 -3.782917 0
M  V30 15 C -3.423339 -5.487554 -2.930983 0
M  V30 16 C -2.045897 -5.909998 -2.799652 0
M  V30 17 O -1.608749 -6.910783 -3.442136 0
M  V30 18 N -0.997397 -5.368404 -2.019017 0
M  V30 19 C 0.318698 -5.973860 -2.053016 0
M  V30 20 C 1.184387 -5.204796 -1.167349 0
M  V30 21 C 1.885120 -4.553953 -0.436476 0
M  V30 22 C 2.731005 -3.750693 0.427718 0
M  V30 23 C 3.858875 -4.251439 1.052706 0
M  V30 24 C 4.592431 -3.374556 1.853841 0
M  V30 25 C 4.253412 -2.067763 2.045225 0
M  V30 26 N 4.941990 -1.197799 2.805423 0
M  V30 27 C 4.521004 0.085303 2.924640 0
M  V30 28 C 3.398985 0.548765 2.291183 0
M  V30 29 N 2.912448 1.872001 2.346480 0
M  V30 30 C 3.527562 3.005826 3.030213 0
M  V30 31 C 2.611728 4.207915 3.011851 0
M  V30 32 C 3.413317 5.443899 2.725554 0
M  V30 33 N 4.081191 5.449067 1.458862 0
M  V30 34 C 3.411800 6.104324 0.388449 0
M  V30 35 C 3.175074 7.568150 0.542863 0
M  V30 36 O 1.974141 7.396787 -0.172835 0
M  V30 37 C 1.894184 6.129187 0.444235 0
M  V30 38 C 4.438530 4.103748 1.071478 0
M  V30 39 C 4.838693 3.362963 2.339334 0
M  V30 40 N 2.740859 -0.347501 1.544286 0
M  V30 41 C 3.120709 -1.626064 1.397326 0
M  V30 42 C 2.358573 -2.447923 0.594382 0
M  V30 43 C -4.028245 -4.435313 -2.302099 0
M  V30 44 O -3.355063 -3.735779 -1.517832 0
M  V30 45 H -7.703327 -2.797913 -0.578899 0
M  V30 46 H -7.507751 -4.463662 -1.163366 0
M  V30 47 H -8.179954 -3.137111 -2.252050 0
M  V30 48 H -6.105255 -2.212393 -2.615273 0
M  V30 49 H -6.274386 -4.124834 0.511043 0
M  V30 50 H -5.276582 -3.512033 2.613470 0
M  V30 51 H -4.310764 -0.924254 -1.485325 0
M  V30 52 H -7.126953 -4.643530 -3.520895 0
M  V30 53 H -6.122248 -6.513197 -4.665901 0
M  V30 54 H -3.819139 -7.068290 -4.321167 0
M  V30 55 H -1.227438 -4.533283 -1.441107 0
M  V30 56 H 0.326415 -7.018299 -1.685027 0
M  V30 57 H 0.720650 -6.003625 -3.103262 0
M  V30 58 H 4.121802 -5.276135 0.900324 0
M  V30 59 H 5.480538 -3.755571 2.353071 0
M  V30 60 H 5.092355 0.731884 3.542632 0
M  V30 61 H 2.007678 2.096050 1.849257 0
M  V30 62 H 3.749662 2.748983 4.072057 0
M  V30 63 H 2.175272 4.340063 4.030512 0
M  V30 64 H 1.743267 4.055977 2.340090 0
M  V30 65 H 2.822476 6.375596 2.885595 0
M  V30 66 H 4.203799 5.496259 3.529098 0
M  V30 67 H 3.734889 5.804751 -0.632760 0
M  V30 68 H 2.963302 7.894750 1.558521 0
M  V30 69 H 3.935039 8.169085 -0.008702 0
M  V30 70 H 1.434363 6.231608 1.425954 0
M  V30 71 H 1.433857 5.418457 -0.238047 0
M  V30 72 H 5.272940 4.112208 0.357206 0
M  V30 73 H 3.580320 3.630198 0.551170 0
M  V30 74 H 5.466382 4.042797 2.934526 0
M  V30 75 H 5.447660 2.508138 2.056091 0
M  V30 76 H 1.480490 -2.032051 0.115667 0
M  V30 END ATOM
M  V30 BEGIN BOND
M  V30 1 1 1 2
M  V30 2 1 2 3
M  V30 3 2 3 4
M  V30 4 1 4 5
M  V30 5 2 5 6
M  V30 6 1 6 7
M  V30 7 1 6 8
M  V30 8 1 8 9
M  V30 9 2 8 10
M  V30 10 1 2 11
M  V30 11 1 11 12
M  V30 12 2 12 13
M  V30 13 1 13 14
M  V30 14 2 14 15
M  V30 15 1 15 16
M  V30 16 2 16 17
M  V30 17 1 16 18
M  V30 18 1 18 19
M  V30 19 1 19 20
M  V30 20 3 20 21
M  V30 21 1 21 22
M  V30 22 2 22 23
M  V30 23 1 23 24
M  V30 24 2 24 25
M  V30 25 1 25 26
M  V30 26 2 26 27
M  V30 27 1 27 28
M  V30 28 1 28 29
M  V30 29 1 29 30
M  V30 30 1 30 31
M  V30 31 1 31 32
M  V30 32 1 32 33
M  V30 33 1 33 34
M  V30 34 1 34 35
M  V30 35 1 35 36
M  V30 36 1 36 37
M  V30 37 1 33 38
M  V30 38 1 38 39
M  V30 39 2 28 40
M  V30 40 1 40 41
M  V30 41 2 41 42
M  V30 42 1 15 43
M  V30 43 2 43 44
M  V30 44 1 10 3
M  V30 45 1 43 11
M  V30 46 1 42 22
M  V30 47 1 41 25
M  V30 48 1 39 30
M  V30 49 1 37 34
M  V30 50 1 1 45
M  V30 51 1 1 46
M  V30 52 1 1 47
M  V30 53 1 2 48 CFG=3
M  V30 54 1 4 49
M  V30 55 1 5 50
M  V30 56 1 10 51
M  V30 57 1 12 52
M  V30 58 1 13 53
M  V30 59 1 14 54
M  V30 60 1 18 55
M  V30 61 1 19 56
M  V30 62 1 19 57
M  V30 63 1 23 58
M  V30 64 1 24 59
M  V30 65 1 27 60
M  V30 66 1 29 61
M  V30 67 1 30 62
M  V30 68 1 31 63
M  V30 69 1 31 64
M  V30 70 1 32 65
M  V30 71 1 32 66
M  V30 72 1 34 67
M  V30 73 1 35 68
M  V30 74 1 35 69
M  V30 75 1 37 70
M  V30 76 1 37 71
M  V30 77 1 38 72
M  V30 78 1 38 73
M  V30 79 1 39 74
M  V30 80 1 39 75
M  V30 81 1 42 76
M  V30 END BOND
M  V30 END CTAB
M  END
>  <Dataset>  (798) 
ChEMBL_Kinases

>  <Ligand_Instance>  (798) 
nan

>  <PDB_ID>  (798) 
nan

>  <Standardized_SMILES>  (798) 
C[C@@H](c1ccc(F)c(F)c1)n1cccc(C(=O)NCC#Cc2ccc3ncc(NC4CCN(C5COC5)CC4)nc3c2)c1=O

>  <Name>  (798) 
nan

>  <Pocket>  (798) 
nan

>  <ATP_Site>  (798) 
nan

>  <Peripheral>  (798) 
nan

>  <Num_H_Atoms_ProtBoundConf>  (798) 
nan

>  <Num_Resolved_Atoms>  (798) 
nan

>  <Num_Not_Resolved_Atoms>  (798) 
nan

$$$$
CHEMBL3689227
     RDKit          3D

  0  0  0  0  0  0  0  0  0  0999 V3000
M  V30 BEGIN CTAB
M  V30 COUNTS 73 78 0 0 0
M  V30 BEGIN ATOM
M  V30 1 O 1.818096 5.179504 -0.637390 0
M  V30 2 C 1.383281 4.488196 -1.390916 0
M  V30 3 N 1.126607 3.703338 -2.472893 0
M  V30 4 C 1.376253 3.072822 -3.787149 0
M  V30 5 C 0.288718 2.053785 -3.874433 0
M  V30 6 C -0.583084 1.231017 -3.922745 0
M  V30 7 C -1.619229 0.262037 -3.952580 0
M  V30 8 C -2.872690 0.326421 -4.459878 0
M  V30 9 C -3.753574 -0.753977 -4.339974 0
M  V30 10 C -3.346362 -1.925732 -3.688539 0
M  V30 11 N -4.178726 -2.998459 -3.529864 0
M  V30 12 C -3.748372 -4.104368 -2.875530 0
M  V30 13 C -2.484349 -4.210197 -2.351427 0
M  V30 14 N -1.909654 -5.288529 -1.612144 0
M  V30 15 C -0.506388 -5.196617 -1.204110 0
M  V30 16 C 0.327697 -5.279322 -2.464373 0
M  V30 17 C 1.802914 -5.513689 -2.156588 0
M  V30 18 N 2.108696 -5.631139 -0.790186 0
M  V30 19 C 2.876294 -4.643763 -0.147255 0
M  V30 20 C 2.443520 -3.236155 -0.164954 0
M  V30 21 O 3.712545 -2.850433 -0.577984 0
M  V30 22 C 4.131424 -4.142736 -0.810406 0
M  V30 23 C 1.281038 -6.464967 0.002263 0
M  V30 24 C -0.201263 -6.279677 -0.238055 0
M  V30 25 N -1.725915 -3.125109 -2.543734 0
M  V30 26 C -2.074699 -2.002865 -3.170635 0
M  V30 27 C -1.266461 -0.917163 -3.320033 0
M  V30 28 C 0.600400 4.742900 -0.205583 0
M  V30 29 C -0.123437 3.379076 -0.193153 0
M  V30 30 C -1.114945 2.647377 0.541330 0
M  V30 31 C -1.601928 3.395305 1.605748 0
M  V30 32 N -1.099589 4.626608 1.778598 0
M  V30 33 C -1.425497 5.595778 2.790509 0
M  V30 34 C -0.603556 5.368464 4.018360 0
M  V30 35 C 0.654670 5.878805 4.276316 0
M  V30 36 C 1.291793 5.575131 5.470473 0
M  V30 37 C 0.757673 4.788142 6.440709 0
M  V30 38 F 1.413881 4.519646 7.597263 0
M  V30 39 C -0.503598 4.315698 6.111406 0
M  V30 40 F -1.105081 3.505790 7.057145 0
M  V30 41 C -1.246251 4.536474 4.971182 0
M  V30 42 C -0.205131 4.913545 0.877551 0
M  V30 43 O 0.394881 6.105960 0.894492 0
M  V30 44 H 0.126732 3.397579 -2.396103 0
M  V30 45 H 1.196159 3.815522 -4.557386 0
M  V30 46 H 2.333796 2.577558 -3.788858 0
M  V30 47 H -3.092738 1.264578 -4.944827 0
M  V30 48 H -4.736444 -0.674879 -4.750402 0
M  V30 49 H -4.378801 -4.965269 -2.735561 0
M  V30 50 H -2.588672 -6.063960 -1.424681 0
M  V30 51 H -0.386789 -4.199398 -0.707874 0
M  V30 52 H 0.179569 -4.416193 -3.123342 0
M  V30 53 H -0.099280 -6.147665 -3.062776 0
M  V30 54 H 2.087259 -6.451973 -2.673641 0
M  V30 55 H 2.432591 -4.735732 -2.647259 0
M  V30 56 H 3.086803 -4.938450 0.935384 0
M  V30 57 H 2.235340 -2.756523 0.835944 0
M  V30 58 H 1.719558 -2.921019 -0.939684 0
M  V30 59 H 5.040666 -4.441648 -0.224188 0
M  V30 60 H 4.207653 -4.457202 -1.846244 0
M  V30 61 H 1.567839 -6.310054 1.078201 0
M  V30 62 H 1.511771 -7.524849 -0.224407 0
M  V30 63 H -0.655432 -5.981677 0.761919 0
M  V30 64 H -0.712200 -7.238143 -0.481485 0
M  V30 65 H -0.280260 -1.093694 -2.862242 0
M  V30 66 H 0.019769 2.423417 -0.887132 0
M  V30 67 H -1.585033 1.677501 0.487584 0
M  V30 68 H -2.331080 3.203145 2.367296 0
M  V30 69 H -2.527106 5.501874 3.038041 0
M  V30 70 H -1.315774 6.644881 2.403179 0
M  V30 71 H 1.078249 6.501506 3.508285 0
M  V30 72 H 2.276251 6.009000 5.603343 0
M  V30 73 H -2.213890 4.093284 4.859935 0
M  V30 END ATOM
M  V30 BEGIN BOND
M  V30 1 2 1 2
M  V30 2 1 2 3
M  V30 3 1 3 4
M  V30 4 1 4 5
M  V30 5 3 5 6
M  V30 6 1 6 7
M  V30 7 2 7 8
M  V30 8 1 8 9
M  V30 9 2 9 10
M  V30 10 1 10 11
M  V30 11 2 11 12
M  V30 12 1 12 13
M  V30 13 1 13 14
M  V30 14 1 14 15
M  V30 15 1 15 16
M  V30 16 1 16 17
M  V30 17 1 17 18
M  V30 18 1 18 19
M  V30 19 1 19 20
M  V30 20 1 20 21
M  V30 21 1 21 22
M  V30 22 1 18 23
M  V30 23 1 23 24
M  V30 24 2 13 25
M  V30 25 1 25 26
M  V30 26 2 26 27
M  V30 27 1 2 28
M  V30 28 2 28 29
M  V30 29 1 29 30
M  V30 30 2 30 31
M  V30 31 1 31 32
M  V30 32 1 32 33
M  V30 33 1 33 34
M  V30 34 2 34 35
M  V30 35 1 35 36
M  V30 36 2 36 37
M  V30 37 1 37 38
M  V30 38 1 37 39
M  V30 39 1 39 40
M  V30 40 2 39 41
M  V30 41 1 32 42
M  V30 42 2 42 43
M  V30 43 1 27 7
M  V30 44 1 42 28
M  V30 45 1 26 10
M  V30 46 1 41 34
M  V30 47 1 24 15
M  V30 48 1 22 19
M  V30 49 1 3 44
M  V30 50 1 4 45
M  V30 51 1 4 46
M  V30 52 1 8 47
M  V30 53 1 9 48
M  V30 54 1 12 49
M  V30 55 1 14 50
M  V30 56 1 15 51
M  V30 57 1 16 52
M  V30 58 1 16 53
M  V30 59 1 17 54
M  V30 60 1 17 55
M  V30 61 1 19 56
M  V30 62 1 20 57
M  V30 63 1 20 58
M  V30 64 1 22 59
M  V30 65 1 22 60
M  V30 66 1 23 61
M  V30 67 1 23 62
M  V30 68 1 24 63
M  V30 69 1 24 64
M  V30 70 1 27 65
M  V30 71 1 29 66
M  V30 72 1 30 67
M  V30 73 1 31 68
M  V30 74 1 33 69
M  V30 75 1 33 70
M  V30 76 1 35 71
M  V30 77 1 36 72
M  V30 78 1 41 73
M  V30 END BOND
M  V30 END CTAB
M  END
>  <Dataset>  (799) 
ChEMBL_Kinases

>  <Ligand_Instance>  (799) 
nan

>  <PDB_ID>  (799) 
nan

>  <Standardized_SMILES>  (799) 
O=C(NCC#Cc1ccc2ncc(NC3CCN(C4COC4)CC3)nc2c1)c1cccn(Cc2ccc(F)c(F)c2)c1=O

>  <Name>  (799) 
nan

>  <Pocket>  (799) 
nan

>  <ATP_Site>  (799) 
nan

>  <Peripheral>  (799) 
nan

>  <Num_H_Atoms_ProtBoundConf>  (799) 
nan

>  <Num_Resolved_Atoms>  (799) 
nan

>  <Num_Not_Resolved_Atoms>  (799) 
nan

$$$$
CHEMBL3689226
     RDKit          3D

  0  0  0  0  0  0  0  0  0  0999 V3000
M  V30 BEGIN CTAB
M  V30 COUNTS 72 77 0 0 0
M  V30 BEGIN ATOM
M  V30 1 O 1.880323 -4.536162 4.789596 0
M  V30 2 C 1.887906 -3.820119 3.703601 0
M  V30 3 N 1.579014 -4.832245 2.891968 0
M  V30 4 C 1.254382 -5.926553 2.067452 0
M  V30 5 C 0.849315 -5.569669 0.687300 0
M  V30 6 C 0.505483 -5.267715 -0.419860 0
M  V30 7 C 0.067274 -4.895669 -1.745158 0
M  V30 8 C -0.028215 -5.696972 -2.834775 0
M  V30 9 C -0.546128 -5.158680 -4.020828 0
M  V30 10 C -0.954017 -3.863011 -4.124509 0
M  V30 11 N -1.473183 -3.283514 -5.212851 0
M  V30 12 C -1.859225 -1.982607 -5.188097 0
M  V30 13 C -1.756787 -1.177571 -4.078044 0
M  V30 14 N -2.132327 0.152938 -3.927570 0
M  V30 15 C -2.765325 1.138222 -4.756929 0
M  V30 16 C -4.233822 0.861356 -4.974184 0
M  V30 17 C -4.947774 1.058997 -3.658603 0
M  V30 18 N -4.717015 2.319922 -3.054570 0
M  V30 19 C -4.615722 2.207442 -1.631089 0
M  V30 20 C -5.859691 1.827910 -0.914444 0
M  V30 21 O -5.515126 2.748731 0.095013 0
M  V30 22 C -4.864742 3.499853 -0.867367 0
M  V30 23 C -3.778174 3.173230 -3.664930 0
M  V30 24 C -2.545584 2.515678 -4.218277 0
M  V30 25 N -1.230831 -1.791783 -3.002115 0
M  V30 26 C -0.848061 -3.066066 -3.014080 0
M  V30 27 C -0.341200 -3.574174 -1.828613 0
M  V30 28 C 2.187311 -2.527443 4.036873 0
M  V30 29 C 2.623702 -2.199406 2.620876 0
M  V30 30 N 3.107446 -1.025958 2.029970 0
M  V30 31 C 3.222347 0.059842 2.870497 0
M  V30 32 N 2.859521 -0.116395 4.157471 0
M  V30 33 C 2.892273 0.877005 5.195896 0
M  V30 34 C 4.159869 0.817234 5.988987 0
M  V30 35 C 5.400202 1.332642 5.693916 0
M  V30 36 C 6.471157 1.190632 6.539044 0
M  V30 37 C 6.386349 0.516141 7.753312 0
M  V30 38 F 7.457937 0.404888 8.552607 0
M  V30 39 C 5.147463 -0.000122 8.048617 0
M  V30 40 F 5.116749 -0.652897 9.251675 0
M  V30 41 C 4.069263 0.138601 7.209765 0
M  V30 42 C 2.461596 -1.341521 4.327380 0
M  V30 43 O 2.057763 -1.677546 5.553699 0
M  V30 44 H 1.534872 -4.150661 2.056921 0
M  V30 45 H 0.458638 -6.546340 2.549619 0
M  V30 46 H 2.160157 -6.564498 1.926915 0
M  V30 47 H 0.318913 -6.701907 -2.661469 0
M  V30 48 H -0.613146 -5.797042 -4.864337 0
M  V30 49 H -2.272785 -1.516235 -6.081553 0
M  V30 50 H -1.932148 0.600828 -2.988125 0
M  V30 51 H -2.300442 1.014469 -5.784157 0
M  V30 52 H -4.368444 -0.201586 -5.290263 0
M  V30 53 H -4.653120 1.507021 -5.741978 0
M  V30 54 H -6.018867 0.804657 -3.803123 0
M  V30 55 H -4.578213 0.301042 -2.931710 0
M  V30 56 H -3.694363 1.688106 -1.268139 0
M  V30 57 H -5.924613 0.796946 -0.495530 0
M  V30 58 H -6.782301 2.213083 -1.406057 0
M  V30 59 H -3.915984 3.956280 -0.503181 0
M  V30 60 H -5.494331 4.159814 -1.461156 0
M  V30 61 H -3.390707 3.899565 -2.881072 0
M  V30 62 H -4.259542 3.791874 -4.453513 0
M  V30 63 H -1.750241 2.458179 -3.435599 0
M  V30 64 H -2.182162 3.162003 -5.033569 0
M  V30 65 H -0.279599 -2.883019 -0.975499 0
M  V30 66 H 2.737376 -2.705525 1.582740 0
M  V30 67 H 3.574815 1.075520 2.689698 0
M  V30 68 H 2.828861 1.908108 4.722659 0
M  V30 69 H 2.041013 0.807674 5.881113 0
M  V30 70 H 5.416946 1.856486 4.724115 0
M  V30 71 H 7.397651 1.629184 6.229026 0
M  V30 72 H 3.192338 -0.339623 7.639231 0
M  V30 END ATOM
M  V30 BEGIN BOND
M  V30 1 2 1 2
M  V30 2 1 2 3
M  V30 3 1 3 4
M  V30 4 1 4 5
M  V30 5 3 5 6
M  V30 6 1 6 7
M  V30 7 2 7 8
M  V30 8 1 8 9
M  V30 9 2 9 10
M  V30 10 1 10 11
M  V30 11 2 11 12
M  V30 12 1 12 13
M  V30 13 1 13 14
M  V30 14 1 14 15
M  V30 15 1 15 16
M  V30 16 1 16 17
M  V30 17 1 17 18
M  V30 18 1 18 19
M  V30 19 1 19 20
M  V30 20 1 20 21
M  V30 21 1 21 22
M  V30 22 1 18 23
M  V30 23 1 23 24
M  V30 24 2 13 25
M  V30 25 1 25 26
M  V30 26 2 26 27
M  V30 27 1 2 28
M  V30 28 2 28 29
M  V30 29 1 29 30
M  V30 30 2 30 31
M  V30 31 1 31 32
M  V30 32 1 32 33
M  V30 33 1 33 34
M  V30 34 2 34 35
M  V30 35 1 35 36
M  V30 36 2 36 37
M  V30 37 1 37 38
M  V30 38 1 37 39
M  V30 39 1 39 40
M  V30 40 2 39 41
M  V30 41 1 32 42
M  V30 42 2 42 43
M  V30 43 1 27 7
M  V30 44 1 42 28
M  V30 45 1 26 10
M  V30 46 1 41 34
M  V30 47 1 24 15
M  V30 48 1 22 19
M  V30 49 1 3 44
M  V30 50 1 4 45
M  V30 51 1 4 46
M  V30 52 1 8 47
M  V30 53 1 9 48
M  V30 54 1 12 49
M  V30 55 1 14 50
M  V30 56 1 15 51
M  V30 57 1 16 52
M  V30 58 1 16 53
M  V30 59 1 17 54
M  V30 60 1 17 55
M  V30 61 1 19 56
M  V30 62 1 20 57
M  V30 63 1 20 58
M  V30 64 1 22 59
M  V30 65 1 22 60
M  V30 66 1 23 61
M  V30 67 1 23 62
M  V30 68 1 24 63
M  V30 69 1 24 64
M  V30 70 1 27 65
M  V30 71 1 29 66
M  V30 72 1 31 67
M  V30 73 1 33 68
M  V30 74 1 33 69
M  V30 75 1 35 70
M  V30 76 1 36 71
M  V30 77 1 41 72
M  V30 END BOND
M  V30 END CTAB
M  END
>  <Dataset>  (800) 
ChEMBL_Kinases

>  <Ligand_Instance>  (800) 
nan

>  <PDB_ID>  (800) 
nan

>  <Standardized_SMILES>  (800) 
O=C(NCC#Cc1ccc2ncc(NC3CCN(C4COC4)CC3)nc2c1)c1cncn(Cc2ccc(F)c(F)c2)c1=O

>  <Name>  (800) 
nan

>  <Pocket>  (800) 
nan

>  <ATP_Site>  (800) 
nan

>  <Peripheral>  (800) 
nan

>  <Num_H_Atoms_ProtBoundConf>  (800) 
nan

>  <Num_Resolved_Atoms>  (800) 
nan

>  <Num_Not_Resolved_Atoms>  (800) 
nan

$$$$
CHEMBL3689225
     RDKit          3D

  0  0  0  0  0  0  0  0  0  0999 V3000
M  V30 BEGIN CTAB
M  V30 COUNTS 79 83 0 0 0
M  V30 BEGIN ATOM
M  V30 1 C -3.259778 -3.621551 -4.434761 0
M  V30 2 O -3.827296 -2.522459 -3.843118 0
M  V30 3 C -3.400515 -1.339998 -4.435594 0
M  V30 4 C -1.900673 -1.165940 -4.335622 0
M  V30 5 N -1.511525 0.046950 -4.942850 0
M  V30 6 C -1.890028 1.263991 -4.335309 0
M  V30 7 C -0.814703 2.071221 -3.708548 0
M  V30 8 C 0.511214 2.017213 -4.378364 0
M  V30 9 N 0.998144 3.390267 -4.584195 0
M  V30 10 C 1.205539 4.235800 -3.452007 0
M  V30 11 C 1.652074 5.541096 -3.503581 0
M  V30 12 N 1.821301 6.266537 -2.379074 0
M  V30 13 C 1.565584 5.758684 -1.160725 0
M  V30 14 C 1.713301 6.430577 0.034013 0
M  V30 15 C 1.420490 5.808953 1.251107 0
M  V30 16 C 0.976038 4.504337 1.278074 0
M  V30 17 C 0.655727 3.787407 2.480355 0
M  V30 18 C 0.368126 3.182089 3.481713 0
M  V30 19 C -0.002988 2.425348 4.703343 0
M  V30 20 N 0.103662 1.000037 4.463164 0
M  V30 21 C -0.188550 0.032652 5.453731 0
M  V30 22 O -0.540221 0.627665 6.523840 0
M  V30 23 C -0.113658 -1.409493 5.316801 0
M  V30 24 C -0.464382 -2.115643 6.473728 0
M  V30 25 C -0.444103 -3.489442 6.506269 0
M  V30 26 C -0.082767 -4.245672 5.418666 0
M  V30 27 N 0.247784 -3.545566 4.325625 0
M  V30 28 C 0.640975 -4.258706 3.129949 0 CFG=2
M  V30 29 C -0.439247 -4.203755 2.045391 0
M  V30 30 O 0.067421 -4.923072 0.963405 0
M  V30 31 C 1.035080 -5.654296 3.402390 0
M  V30 32 C 0.080027 -6.663246 3.384498 0
M  V30 33 C 0.401738 -7.999721 3.635828 0
M  V30 34 C 1.703862 -8.359405 3.913952 0
M  V30 35 C 2.665170 -7.359423 3.934150 0
M  V30 36 F 3.976398 -7.666433 4.206789 0
M  V30 37 C 2.348626 -6.032177 3.685146 0
M  V30 38 C 0.241099 -2.205747 4.252495 0
M  V30 39 O 0.552763 -1.562529 3.222454 0
M  V30 40 C 0.818794 3.804697 0.083471 0
M  V30 41 C 1.118416 4.455961 -1.085290 0
M  V30 42 N 0.958130 3.754967 -2.221317 0
M  V30 43 C 0.371741 1.404234 -5.729583 0
M  V30 44 C -0.315071 0.062834 -5.708653 0
M  V30 45 H -3.503043 -3.697672 -5.526092 0
M  V30 46 H -3.743592 -4.525624 -3.966541 0
M  V30 47 H -2.188363 -3.764023 -4.283707 0
M  V30 48 H -3.724675 -1.385639 -5.515757 0
M  V30 49 H -3.955730 -0.473658 -4.015610 0
M  V30 50 H -1.585175 -1.294169 -3.288531 0
M  V30 51 H -1.434279 -2.000707 -4.921287 0
M  V30 52 H -2.414462 1.887219 -5.101146 0
M  V30 53 H -2.689357 1.048112 -3.570664 0
M  V30 54 H -0.714403 1.732670 -2.634619 0
M  V30 55 H -1.155219 3.143931 -3.611704 0
M  V30 56 H 1.229318 1.453514 -3.732688 0
M  V30 57 H 1.214502 3.820257 -5.516035 0
M  V30 58 H 1.858987 5.953435 -4.482521 0
M  V30 59 H 2.063289 7.452786 -0.006853 0
M  V30 60 H 1.532344 6.323390 2.185439 0
M  V30 61 H 0.729420 2.768713 5.476647 0
M  V30 62 H -1.054192 2.622201 5.000677 0
M  V30 63 H 0.407078 0.681390 3.524324 0
M  V30 64 H -0.768749 -1.602701 7.398673 0
M  V30 65 H -0.722127 -3.998313 7.419616 0
M  V30 66 H -0.083413 -5.314930 5.496709 0
M  V30 67 H 1.494824 -3.673825 2.683077 0
M  V30 68 H -1.390337 -4.649838 2.399178 0
M  V30 69 H -0.579389 -3.158380 1.703570 0
M  V30 70 H 0.567283 -4.307623 0.373284 0
M  V30 71 H -0.963370 -6.487298 3.177696 0
M  V30 72 H -0.347286 -8.768495 3.618778 0
M  V30 73 H 2.011182 -9.374854 4.115919 0
M  V30 74 H 3.061554 -5.229995 3.691291 0
M  V30 75 H 0.472123 2.781647 0.076705 0
M  V30 76 H -0.185857 2.115019 -6.380718 0
M  V30 77 H 1.393814 1.337663 -6.168482 0
M  V30 78 H -0.542032 -0.246710 -6.747936 0
M  V30 79 H 0.406071 -0.673015 -5.298646 0
M  V30 END ATOM
M  V30 BEGIN BOND
M  V30 1 1 1 2
M  V30 2 1 2 3
M  V30 3 1 3 4
M  V30 4 1 4 5
M  V30 5 1 5 6
M  V30 6 1 6 7
M  V30 7 1 7 8
M  V30 8 1 8 9
M  V30 9 1 9 10
M  V30 10 2 10 11
M  V30 11 1 11 12
M  V30 12 2 12 13
M  V30 13 1 13 14
M  V30 14 2 14 15
M  V30 15 1 15 16
M  V30 16 1 16 17
M  V30 17 3 17 18
M  V30 18 1 18 19
M  V30 19 1 19 20
M  V30 20 1 20 21
M  V30 21 2 21 22
M  V30 22 1 21 23
M  V30 23 2 23 24
M  V30 24 1 24 25
M  V30 25 2 25 26
M  V30 26 1 26 27
M  V30 27 1 27 28
M  V30 28 1 28 29
M  V30 29 1 29 30
M  V30 30 1 28 31
M  V30 31 2 31 32
M  V30 32 1 32 33
M  V30 33 2 33 34
M  V30 34 1 34 35
M  V30 35 1 35 36
M  V30 36 2 35 37
M  V30 37 1 27 38
M  V30 38 2 38 39
M  V30 39 2 16 40
M  V30 40 1 40 41
M  V30 41 2 41 42
M  V30 42 1 8 43
M  V30 43 1 43 44
M  V30 44 1 44 5
M  V30 45 1 42 10
M  V30 46 1 41 13
M  V30 47 1 38 23
M  V30 48 1 37 31
M  V30 49 1 1 45
M  V30 50 1 1 46
M  V30 51 1 1 47
M  V30 52 1 3 48
M  V30 53 1 3 49
M  V30 54 1 4 50
M  V30 55 1 4 51
M  V30 56 1 6 52
M  V30 57 1 6 53
M  V30 58 1 7 54
M  V30 59 1 7 55
M  V30 60 1 8 56
M  V30 61 1 9 57
M  V30 62 1 11 58
M  V30 63 1 14 59
M  V30 64 1 15 60
M  V30 65 1 19 61
M  V30 66 1 19 62
M  V30 67 1 20 63
M  V30 68 1 24 64
M  V30 69 1 25 65
M  V30 70 1 26 66
M  V30 71 1 28 67 CFG=3
M  V30 72 1 29 68
M  V30 73 1 29 69
M  V30 74 1 30 70
M  V30 75 1 32 71
M  V30 76 1 33 72
M  V30 77 1 34 73
M  V30 78 1 37 74
M  V30 79 1 40 75
M  V30 80 1 43 76
M  V30 81 1 43 77
M  V30 82 1 44 78
M  V30 83 1 44 79
M  V30 END BOND
M  V30 END CTAB
M  END
>  <Dataset>  (801) 
ChEMBL_Kinases

>  <Ligand_Instance>  (801) 
nan

>  <PDB_ID>  (801) 
nan

>  <Standardized_SMILES>  (801) 
COCCN1CCC(Nc2cnc3ccc(C#CCNC(=O)c4cccn([C@H](CO)c5cccc(F)c5)c4=O)cc3n2)CC1

>  <Name>  (801) 
nan

>  <Pocket>  (801) 
nan

>  <ATP_Site>  (801) 
nan

>  <Peripheral>  (801) 
nan

>  <Num_H_Atoms_ProtBoundConf>  (801) 
nan

>  <Num_Resolved_Atoms>  (801) 
nan

>  <Num_Not_Resolved_Atoms>  (801) 
nan

$$$$
CHEMBL3689224
     RDKit          3D

  0  0  0  0  0  0  0  0  0  0999 V3000
M  V30 BEGIN CTAB
M  V30 COUNTS 72 77 0 0 0
M  V30 BEGIN ATOM
M  V30 1 O 1.749578 -2.941429 4.667607 0
M  V30 2 C 1.991247 -2.900639 3.430671 0
M  V30 3 N 1.027597 -3.264076 2.543536 0
M  V30 4 C -0.330986 -3.722819 2.896000 0
M  V30 5 C -1.108909 -3.724826 1.636880 0
M  V30 6 C -1.731683 -3.704585 0.635814 0
M  V30 7 C -2.493152 -3.706589 -0.598979 0
M  V30 8 C -3.213459 -4.624228 -1.289223 0
M  V30 9 C -3.861775 -4.212279 -2.456720 0
M  V30 10 C -3.849060 -2.947110 -2.995577 0
M  V30 11 N -4.486497 -2.562819 -4.104746 0
M  V30 12 C -4.405902 -1.274142 -4.527775 0
M  V30 13 C -3.670631 -0.331869 -3.830603 0
M  V30 14 N -3.471421 1.040354 -4.028532 0
M  V30 15 C -3.783771 2.188943 -4.784605 0
M  V30 16 C -5.292385 2.472230 -4.844811 0
M  V30 17 C -5.805062 2.539690 -3.455206 0
M  V30 18 N -5.090379 3.474460 -2.652439 0
M  V30 19 C -5.630521 3.500044 -1.318681 0
M  V30 20 C -5.669004 2.216712 -0.548223 0
M  V30 21 O -5.300736 2.933872 0.612991 0
M  V30 22 C -4.701469 3.888231 -0.206700 0
M  V30 23 C -3.703573 3.611527 -2.746098 0
M  V30 24 C -3.203337 3.476373 -4.174062 0
M  V30 25 N -3.057866 -0.790010 -2.730034 0
M  V30 26 C -3.115186 -2.038211 -2.286762 0
M  V30 27 C -2.444968 -2.388828 -1.114328 0
M  V30 28 C 3.321634 -2.432258 3.359805 0
M  V30 29 C 3.616767 -2.726976 1.911452 0
M  V30 30 C 4.831699 -2.478039 1.190568 0
M  V30 31 N 5.863092 -1.901875 1.890813 0
M  V30 32 N 5.720787 -1.585641 3.213646 0
M  V30 33 C 6.620305 -0.975326 4.122943 0
M  V30 34 C 7.531371 -1.872883 4.866736 0
M  V30 35 C 8.795792 -2.209003 4.458021 0
M  V30 36 C 9.615719 -3.030048 5.193204 0
M  V30 37 C 9.223921 -3.585561 6.413423 0
M  V30 38 F 9.975961 -4.397179 7.187094 0
M  V30 39 C 7.926922 -3.211852 6.781341 0
M  V30 40 F 7.532950 -3.751121 7.968677 0
M  V30 41 C 7.053801 -2.374936 6.057754 0
M  V30 42 C 4.505112 -2.016933 3.279384 0
M  V30 43 O 4.302965 -1.719428 4.624651 0
M  V30 44 H 1.275366 -3.203687 1.538934 0
M  V30 45 H -0.685969 -2.983652 3.621448 0
M  V30 46 H -0.326695 -4.745129 3.278357 0
M  V30 47 H -3.169674 -5.559555 -0.812507 0
M  V30 48 H -4.414735 -4.984941 -2.951653 0
M  V30 49 H -4.888865 -0.884776 -5.405169 0
M  V30 50 H -2.772988 1.499611 -3.371651 0
M  V30 51 H -3.422080 2.120156 -5.803808 0
M  V30 52 H -5.369960 3.527397 -5.251642 0
M  V30 53 H -5.808860 1.815433 -5.534682 0
M  V30 54 H -6.856005 2.973528 -3.540856 0
M  V30 55 H -5.982616 1.575283 -2.956216 0
M  V30 56 H -6.582349 4.028561 -1.256404 0
M  V30 57 H -4.850757 1.490340 -0.728047 0
M  V30 58 H -6.685134 1.794094 -0.395504 0
M  V30 59 H -3.631585 3.709773 -0.324167 0
M  V30 60 H -4.971780 4.921085 0.158314 0
M  V30 61 H -3.059325 2.957181 -2.110056 0
M  V30 62 H -3.432811 4.663847 -2.439952 0
M  V30 63 H -3.488095 4.321819 -4.807199 0
M  V30 64 H -2.110872 3.367005 -4.130615 0
M  V30 65 H -1.917536 -1.518885 -0.697639 0
M  V30 66 H 3.061848 -3.186977 0.992349 0
M  V30 67 H 5.089784 -2.673887 0.122464 0
M  V30 68 H 7.228700 -0.181796 3.615884 0
M  V30 69 H 6.056114 -0.398355 4.903466 0
M  V30 70 H 9.118517 -1.787242 3.517013 0
M  V30 71 H 10.597441 -3.280331 4.843851 0
M  V30 72 H 6.097703 -2.232953 6.547413 0
M  V30 END ATOM
M  V30 BEGIN BOND
M  V30 1 2 1 2
M  V30 2 1 2 3
M  V30 3 1 3 4
M  V30 4 1 4 5
M  V30 5 3 5 6
M  V30 6 1 6 7
M  V30 7 2 7 8
M  V30 8 1 8 9
M  V30 9 2 9 10
M  V30 10 1 10 11
M  V30 11 2 11 12
M  V30 12 1 12 13
M  V30 13 1 13 14
M  V30 14 1 14 15
M  V30 15 1 15 16
M  V30 16 1 16 17
M  V30 17 1 17 18
M  V30 18 1 18 19
M  V30 19 1 19 20
M  V30 20 1 20 21
M  V30 21 1 21 22
M  V30 22 1 18 23
M  V30 23 1 23 24
M  V30 24 2 13 25
M  V30 25 1 25 26
M  V30 26 2 26 27
M  V30 27 1 2 28
M  V30 28 2 28 29
M  V30 29 1 29 30
M  V30 30 2 30 31
M  V30 31 1 31 32
M  V30 32 1 32 33
M  V30 33 1 33 34
M  V30 34 2 34 35
M  V30 35 1 35 36
M  V30 36 2 36 37
M  V30 37 1 37 38
M  V30 38 1 37 39
M  V30 39 1 39 40
M  V30 40 2 39 41
M  V30 41 1 32 42
M  V30 42 2 42 43
M  V30 43 1 27 7
M  V30 44 1 42 28
M  V30 45 1 26 10
M  V30 46 1 41 34
M  V30 47 1 24 15
M  V30 48 1 22 19
M  V30 49 1 3 44
M  V30 50 1 4 45
M  V30 51 1 4 46
M  V30 52 1 8 47
M  V30 53 1 9 48
M  V30 54 1 12 49
M  V30 55 1 14 50
M  V30 56 1 15 51
M  V30 57 1 16 52
M  V30 58 1 16 53
M  V30 59 1 17 54
M  V30 60 1 17 55
M  V30 61 1 19 56
M  V30 62 1 20 57
M  V30 63 1 20 58
M  V30 64 1 22 59
M  V30 65 1 22 60
M  V30 66 1 23 61
M  V30 67 1 23 62
M  V30 68 1 24 63
M  V30 69 1 24 64
M  V30 70 1 27 65
M  V30 71 1 29 66
M  V30 72 1 30 67
M  V30 73 1 33 68
M  V30 74 1 33 69
M  V30 75 1 35 70
M  V30 76 1 36 71
M  V30 77 1 41 72
M  V30 END BOND
M  V30 END CTAB
M  END
>  <Dataset>  (802) 
ChEMBL_Kinases

>  <Ligand_Instance>  (802) 
nan

>  <PDB_ID>  (802) 
nan

>  <Standardized_SMILES>  (802) 
O=C(NCC#Cc1ccc2ncc(NC3CCN(C4COC4)CC3)nc2c1)c1ccnn(Cc2ccc(F)c(F)c2)c1=O

>  <Name>  (802) 
nan

>  <Pocket>  (802) 
nan

>  <ATP_Site>  (802) 
nan

>  <Peripheral>  (802) 
nan

>  <Num_H_Atoms_ProtBoundConf>  (802) 
nan

>  <Num_Resolved_Atoms>  (802) 
nan

>  <Num_Not_Resolved_Atoms>  (802) 
nan

$$$$
CHEMBL3689223
     RDKit          3D

  0  0  0  0  0  0  0  0  0  0999 V3000
M  V30 BEGIN CTAB
M  V30 COUNTS 74 78 0 0 0
M  V30 BEGIN ATOM
M  V30 1 C 0.139669 -4.361587 0.449636 0
M  V30 2 O 1.540919 -4.248759 0.435904 0
M  V30 3 C 2.106158 -5.351321 -0.175240 0
M  V30 4 C 3.604229 -5.262769 -0.207332 0
M  V30 5 N 4.100249 -4.121506 -0.918187 0
M  V30 6 C 3.793324 -4.293928 -2.325402 0
M  V30 7 C 4.476538 -3.262009 -3.187807 0
M  V30 8 C 5.078527 -2.155359 -2.335205 0
M  V30 9 N 4.084337 -1.402111 -1.648331 0
M  V30 10 C 4.149371 -0.236935 -0.876593 0
M  V30 11 C 5.315287 0.460287 -0.654497 0
M  V30 12 N 5.449153 1.601562 0.091053 0
M  V30 13 C 4.281649 2.054416 0.650461 0
M  V30 14 C 4.330202 3.202776 1.418161 0
M  V30 15 C 3.133784 3.659564 1.985250 0
M  V30 16 C 1.952875 2.987728 1.783673 0
M  V30 17 C 0.691609 3.388638 2.333627 0
M  V30 18 C -0.378678 3.709003 2.787330 0
M  V30 19 C -1.710789 4.079637 3.347308 0
M  V30 20 N -2.686096 3.113026 2.978739 0
M  V30 21 C -4.100272 2.937850 3.221638 0
M  V30 22 O -4.401844 3.950495 3.945549 0
M  V30 23 C -5.028863 1.919469 2.802655 0
M  V30 24 C -6.313308 2.146668 3.308803 0
M  V30 25 C -7.356833 1.295921 3.052407 0
M  V30 26 N -7.090455 0.223614 2.286119 0
M  V30 27 N -5.881486 0.006202 1.806776 0
M  V30 28 C -5.750684 -1.181234 0.991450 0
M  V30 29 C -6.071109 -0.731070 -0.411193 0
M  V30 30 C -7.423253 -0.799671 -0.761564 0
M  V30 31 C -7.911958 -0.423091 -2.016116 0
M  V30 32 C -6.931454 0.028951 -2.894285 0
M  V30 33 F -7.409979 0.398125 -4.109809 0
M  V30 34 C -5.593186 0.110099 -2.580754 0
M  V30 35 F -4.718293 0.558372 -3.493065 0
M  V30 36 C -5.175517 -0.277028 -1.323680 0
M  V30 37 C -4.851664 0.805242 2.034287 0
M  V30 38 O -3.706861 0.635945 1.605386 0
M  V30 39 C 1.932149 1.827659 1.002011 0
M  V30 40 C 3.100494 1.377939 0.445940 0
M  V30 41 N 3.062738 0.281991 -0.289981 0
M  V30 42 C 6.099582 -2.820989 -1.430954 0
M  V30 43 C 5.526060 -3.978137 -0.681900 0
M  V30 44 H -0.216929 -4.429412 -0.624406 0
M  V30 45 H -0.333723 -3.481076 0.915444 0
M  V30 46 H -0.219320 -5.267000 0.956176 0
M  V30 47 H 1.849619 -6.233158 0.450134 0
M  V30 48 H 1.673019 -5.548319 -1.183374 0
M  V30 49 H 4.059986 -6.188466 -0.644918 0
M  V30 50 H 3.963593 -5.245961 0.849625 0
M  V30 51 H 2.700088 -4.164684 -2.442930 0
M  V30 52 H 4.073288 -5.322116 -2.619352 0
M  V30 53 H 5.258341 -3.784619 -3.770463 0
M  V30 54 H 3.769173 -2.797780 -3.882203 0
M  V30 55 H 5.634884 -1.487815 -3.015926 0
M  V30 56 H 3.107898 -1.817307 -1.747285 0
M  V30 57 H 6.255209 0.147063 -1.078470 0
M  V30 58 H 5.222074 3.779840 1.622145 0
M  V30 59 H 3.016289 4.540235 2.606447 0
M  V30 60 H -1.552705 4.132875 4.455587 0
M  V30 61 H -1.998904 5.068071 2.933989 0
M  V30 62 H -2.326639 2.309708 2.372940 0
M  V30 63 H -6.603252 2.999590 3.937645 0
M  V30 64 H -8.356544 1.436378 3.430074 0
M  V30 65 H -4.687992 -1.479076 0.983989 0
M  V30 66 H -6.450872 -1.984111 1.289448 0
M  V30 67 H -8.153820 -1.157133 -0.046532 0
M  V30 68 H -8.954465 -0.481940 -2.265927 0
M  V30 69 H -4.140631 -0.237287 -1.017516 0
M  V30 70 H 1.004162 1.266270 0.822804 0
M  V30 71 H 6.877740 -3.222003 -2.143324 0
M  V30 72 H 6.632605 -2.151974 -0.766853 0
M  V30 73 H 6.023261 -4.907680 -1.032646 0
M  V30 74 H 5.654458 -3.959998 0.404876 0
M  V30 END ATOM
M  V30 BEGIN BOND
M  V30 1 1 1 2
M  V30 2 1 2 3
M  V30 3 1 3 4
M  V30 4 1 4 5
M  V30 5 1 5 6
M  V30 6 1 6 7
M  V30 7 1 7 8
M  V30 8 1 8 9
M  V30 9 1 9 10
M  V30 10 2 10 11
M  V30 11 1 11 12
M  V30 12 2 12 13
M  V30 13 1 13 14
M  V30 14 2 14 15
M  V30 15 1 15 16
M  V30 16 1 16 17
M  V30 17 3 17 18
M  V30 18 1 18 19
M  V30 19 1 19 20
M  V30 20 1 20 21
M  V30 21 2 21 22
M  V30 22 1 21 23
M  V30 23 2 23 24
M  V30 24 1 24 25
M  V30 25 2 25 26
M  V30 26 1 26 27
M  V30 27 1 27 28
M  V30 28 1 28 29
M  V30 29 2 29 30
M  V30 30 1 30 31
M  V30 31 2 31 32
M  V30 32 1 32 33
M  V30 33 1 32 34
M  V30 34 1 34 35
M  V30 35 2 34 36
M  V30 36 1 27 37
M  V30 37 2 37 38
M  V30 38 2 16 39
M  V30 39 1 39 40
M  V30 40 2 40 41
M  V30 41 1 8 42
M  V30 42 1 42 43
M  V30 43 1 43 5
M  V30 44 1 41 10
M  V30 45 1 40 13
M  V30 46 1 37 23
M  V30 47 1 36 29
M  V30 48 1 1 44
M  V30 49 1 1 45
M  V30 50 1 1 46
M  V30 51 1 3 47
M  V30 52 1 3 48
M  V30 53 1 4 49
M  V30 54 1 4 50
M  V30 55 1 6 51
M  V30 56 1 6 52
M  V30 57 1 7 53
M  V30 58 1 7 54
M  V30 59 1 8 55
M  V30 60 1 9 56
M  V30 61 1 11 57
M  V30 62 1 14 58
M  V30 63 1 15 59
M  V30 64 1 19 60
M  V30 65 1 19 61
M  V30 66 1 20 62
M  V30 67 1 24 63
M  V30 68 1 25 64
M  V30 69 1 28 65
M  V30 70 1 28 66
M  V30 71 1 30 67
M  V30 72 1 31 68
M  V30 73 1 36 69
M  V30 74 1 39 70
M  V30 75 1 42 71
M  V30 76 1 42 72
M  V30 77 1 43 73
M  V30 78 1 43 74
M  V30 END BOND
M  V30 END CTAB
M  END
>  <Dataset>  (803) 
ChEMBL_Kinases

>  <Ligand_Instance>  (803) 
nan

>  <PDB_ID>  (803) 
nan

>  <Standardized_SMILES>  (803) 
COCCN1CCC(Nc2cnc3ccc(C#CCNC(=O)c4ccnn(Cc5ccc(F)c(F)c5)c4=O)cc3n2)CC1

>  <Name>  (803) 
nan

>  <Pocket>  (803) 
nan

>  <ATP_Site>  (803) 
nan

>  <Peripheral>  (803) 
nan

>  <Num_H_Atoms_ProtBoundConf>  (803) 
nan

>  <Num_Resolved_Atoms>  (803) 
nan

>  <Num_Not_Resolved_Atoms>  (803) 
nan

$$$$
CHEMBL3689222
     RDKit          3D

  0  0  0  0  0  0  0  0  0  0999 V3000
M  V30 BEGIN CTAB
M  V30 COUNTS 78 82 0 0 0
M  V30 BEGIN ATOM
M  V30 1 C 1.010387 -2.562983 1.219264 0
M  V30 2 O 0.768807 -2.080835 -0.089068 0
M  V30 3 C 1.765900 -1.124687 -0.290870 0
M  V30 4 C 1.688842 -0.477502 -1.661312 0
M  V30 5 N 2.732184 0.472979 -1.768945 0
M  V30 6 C 2.841870 1.161911 -2.988550 0
M  V30 7 C 3.726543 2.370668 -2.974439 0
M  V30 8 C 4.984744 2.220295 -2.201509 0
M  V30 9 N 5.189340 3.412711 -1.397165 0
M  V30 10 C 4.222308 3.888864 -0.437723 0
M  V30 11 C 4.446872 5.032080 0.337991 0
M  V30 12 N 3.527693 5.464435 1.218799 0
M  V30 13 C 2.359130 4.820189 1.391067 0
M  V30 14 C 1.505243 5.361228 2.313228 0
M  V30 15 C 0.300617 4.707784 2.491542 0
M  V30 16 C 0.014817 3.557610 1.745323 0
M  V30 17 C -1.269590 2.972693 2.010887 0
M  V30 18 C -2.358725 2.499041 2.228472 0
M  V30 19 C -3.679473 1.952483 2.489938 0
M  V30 20 N -3.761035 0.554261 2.157752 0
M  V30 21 C -2.976098 -0.443030 2.738996 0
M  V30 22 O -2.188528 0.088723 3.596070 0
M  V30 23 C -2.977905 -1.873736 2.482495 0
M  V30 24 C -2.067978 -2.626577 3.237576 0
M  V30 25 C -1.977434 -3.993536 3.089041 0
M  V30 26 C -2.788500 -4.661884 2.184126 0
M  V30 27 N -3.657749 -3.926261 1.465542 0
M  V30 28 C -4.477131 -4.636125 0.548861 0 CFG=1
M  V30 29 C -5.544316 -3.867532 -0.148992 0
M  V30 30 C -3.739481 -5.426254 -0.471411 0
M  V30 31 C -3.400120 -6.757558 -0.277694 0
M  V30 32 C -2.716447 -7.487071 -1.226705 0
M  V30 33 C -2.335258 -6.920278 -2.423541 0
M  V30 34 F -1.667679 -7.712107 -3.296138 0
M  V30 35 C -2.665153 -5.593592 -2.634137 0
M  V30 36 F -2.292385 -5.037808 -3.806140 0
M  V30 37 C -3.344093 -4.885401 -1.680532 0
M  V30 38 C -3.739450 -2.604340 1.614861 0
M  V30 39 O -4.548161 -1.965261 0.938248 0
M  V30 40 C 0.911655 3.053835 0.828504 0
M  V30 41 C 2.118609 3.692911 0.637406 0
M  V30 42 N 3.038768 3.261159 -0.243142 0
M  V30 43 C 5.116115 1.028203 -1.340863 0
M  V30 44 C 3.951748 0.144789 -1.149254 0
M  V30 45 H 0.924814 -1.697575 1.905733 0
M  V30 46 H 2.062848 -2.904598 1.315774 0
M  V30 47 H 0.359051 -3.392865 1.492346 0
M  V30 48 H 2.722005 -1.691108 -0.201225 0
M  V30 49 H 1.627121 -0.352822 0.492888 0
M  V30 50 H 0.727048 0.034708 -1.803122 0
M  V30 51 H 1.742941 -1.302728 -2.399895 0
M  V30 52 H 3.206595 0.428545 -3.752586 0
M  V30 53 H 1.824710 1.450535 -3.328928 0
M  V30 54 H 3.960271 2.629327 -4.027369 0
M  V30 55 H 3.115649 3.229464 -2.621125 0
M  V30 56 H 5.855537 2.219145 -2.927942 0
M  V30 57 H 6.049627 4.001419 -1.461767 0
M  V30 58 H 5.395869 5.557275 0.199321 0
M  V30 59 H 1.762046 6.255312 2.873401 0
M  V30 60 H -0.392175 5.128930 3.225557 0
M  V30 61 H -3.933394 2.137185 3.571920 0
M  V30 62 H -4.464337 2.528741 1.941017 0
M  V30 63 H -4.458442 0.254368 1.426514 0
M  V30 64 H -1.416701 -2.140288 3.955561 0
M  V30 65 H -1.246215 -4.518532 3.709861 0
M  V30 66 H -2.621865 -5.728746 2.161490 0
M  V30 67 H -5.020954 -5.419641 1.159994 0
M  V30 68 H -6.145409 -4.642002 -0.715571 0
M  V30 69 H -6.319485 -3.429799 0.537191 0
M  V30 70 H -5.208858 -3.179886 -0.938331 0
M  V30 71 H -3.672753 -7.259728 0.644048 0
M  V30 72 H -2.481411 -8.532604 -1.007828 0
M  V30 73 H -3.561509 -3.855986 -1.923584 0
M  V30 74 H 0.655038 2.169688 0.276686 0
M  V30 75 H 5.983425 0.376421 -1.688929 0
M  V30 76 H 5.491138 1.318584 -0.305740 0
M  V30 77 H 4.238484 -0.932297 -1.383761 0
M  V30 78 H 3.724641 0.056595 -0.037543 0
M  V30 END ATOM
M  V30 BEGIN BOND
M  V30 1 1 1 2
M  V30 2 1 2 3
M  V30 3 1 3 4
M  V30 4 1 4 5
M  V30 5 1 5 6
M  V30 6 1 6 7
M  V30 7 1 7 8
M  V30 8 1 8 9
M  V30 9 1 9 10
M  V30 10 2 10 11
M  V30 11 1 11 12
M  V30 12 2 12 13
M  V30 13 1 13 14
M  V30 14 2 14 15
M  V30 15 1 15 16
M  V30 16 1 16 17
M  V30 17 3 17 18
M  V30 18 1 18 19
M  V30 19 1 19 20
M  V30 20 1 20 21
M  V30 21 2 21 22
M  V30 22 1 21 23
M  V30 23 2 23 24
M  V30 24 1 24 25
M  V30 25 2 25 26
M  V30 26 1 26 27
M  V30 27 1 27 28
M  V30 28 1 28 29
M  V30 29 1 28 30
M  V30 30 2 30 31
M  V30 31 1 31 32
M  V30 32 2 32 33
M  V30 33 1 33 34
M  V30 34 1 33 35
M  V30 35 1 35 36
M  V30 36 2 35 37
M  V30 37 1 27 38
M  V30 38 2 38 39
M  V30 39 2 16 40
M  V30 40 1 40 41
M  V30 41 2 41 42
M  V30 42 1 8 43
M  V30 43 1 43 44
M  V30 44 1 44 5
M  V30 45 1 42 10
M  V30 46 1 41 13
M  V30 47 1 38 23
M  V30 48 1 37 30
M  V30 49 1 1 45
M  V30 50 1 1 46
M  V30 51 1 1 47
M  V30 52 1 3 48
M  V30 53 1 3 49
M  V30 54 1 4 50
M  V30 55 1 4 51
M  V30 56 1 6 52
M  V30 57 1 6 53
M  V30 58 1 7 54
M  V30 59 1 7 55
M  V30 60 1 8 56
M  V30 61 1 9 57
M  V30 62 1 11 58
M  V30 63 1 14 59
M  V30 64 1 15 60
M  V30 65 1 19 61
M  V30 66 1 19 62
M  V30 67 1 20 63
M  V30 68 1 24 64
M  V30 69 1 25 65
M  V30 70 1 26 66
M  V30 71 1 28 67 CFG=1
M  V30 72 1 29 68
M  V30 73 1 29 69
M  V30 74 1 29 70
M  V30 75 1 31 71
M  V30 76 1 32 72
M  V30 77 1 37 73
M  V30 78 1 40 74
M  V30 79 1 43 75
M  V30 80 1 43 76
M  V30 81 1 44 77
M  V30 82 1 44 78
M  V30 END BOND
M  V30 END CTAB
M  END
>  <Dataset>  (804) 
ChEMBL_Kinases

>  <Ligand_Instance>  (804) 
nan

>  <PDB_ID>  (804) 
nan

>  <Standardized_SMILES>  (804) 
COCCN1CCC(Nc2cnc3ccc(C#CCNC(=O)c4cccn([C@@H](C)c5ccc(F)c(F)c5)c4=O)cc3n2)CC1

>  <Name>  (804) 
nan

>  <Pocket>  (804) 
nan

>  <ATP_Site>  (804) 
nan

>  <Peripheral>  (804) 
nan

>  <Num_H_Atoms_ProtBoundConf>  (804) 
nan

>  <Num_Resolved_Atoms>  (804) 
nan

>  <Num_Not_Resolved_Atoms>  (804) 
nan

$$$$
CHEMBL3689221
     RDKit          3D

  0  0  0  0  0  0  0  0  0  0999 V3000
M  V30 BEGIN CTAB
M  V30 COUNTS 73 77 0 0 0
M  V30 BEGIN ATOM
M  V30 1 C 1.500291 -6.323712 -2.283557 0
M  V30 2 C 2.811644 -7.050405 -2.166456 0
M  V30 3 N 3.897766 -6.126605 -1.902425 0
M  V30 4 C 5.118089 -6.922272 -1.784229 0
M  V30 5 C 6.273008 -6.100964 -1.290092 0
M  V30 6 C 6.031994 -4.637891 -1.666177 0
M  V30 7 N 5.127935 -4.031188 -0.719695 0
M  V30 8 C 4.804283 -2.651219 -0.605507 0
M  V30 9 C 5.403469 -1.691219 -1.404756 0
M  V30 10 N 5.048979 -0.401387 -1.269301 0
M  V30 11 C 4.130204 0.024466 -0.387567 0
M  V30 12 C 3.797099 1.358810 -0.285617 0
M  V30 13 C 2.841449 1.717113 0.643232 0
M  V30 14 C 2.253273 0.751145 1.432259 0
M  V30 15 C 1.267162 1.249527 2.358650 0
M  V30 16 C 0.419468 1.678586 3.128134 0
M  V30 17 C -0.622398 2.189899 4.040432 0
M  V30 18 N -1.847664 2.468701 3.299245 0
M  V30 19 C -2.325762 1.283046 2.683914 0
M  V30 20 O -1.535727 0.321421 2.967858 0
M  V30 21 C -3.504227 1.101432 1.855097 0
M  V30 22 C -3.708581 -0.202102 1.399101 0
M  V30 23 N -4.762329 -0.498650 0.628104 0
M  V30 24 C -5.671246 0.423087 0.252512 0
M  V30 25 N -5.476093 1.680638 0.691438 0
M  V30 26 C -6.475811 2.634098 0.265465 0 CFG=1
M  V30 27 C -7.850213 1.953204 0.268678 0
M  V30 28 C -6.503102 3.865337 1.095193 0
M  V30 29 C -7.216549 3.662773 2.282505 0
M  V30 30 C -7.328645 4.740550 3.159949 0
M  V30 31 C -6.753957 5.952778 2.856671 0
M  V30 32 F -6.853147 7.010127 3.695191 0
M  V30 33 C -6.045132 6.167594 1.684545 0
M  V30 34 F -5.453294 7.332511 1.317273 0
M  V30 35 C -5.951176 5.080630 0.835186 0
M  V30 36 C -4.444988 2.016596 1.456807 0
M  V30 37 O -4.265969 3.176580 1.859893 0
M  V30 38 C 2.565066 -0.612998 1.358360 0
M  V30 39 C 3.539134 -0.930661 0.403259 0
M  V30 40 N 3.882623 -2.236477 0.281456 0
M  V30 41 C 5.442856 -4.638963 -3.069842 0
M  V30 42 C 4.013248 -5.198894 -3.020807 0
M  V30 43 H 1.555609 -5.285954 -1.859954 0
M  V30 44 H 1.214218 -6.213627 -3.337540 0
M  V30 45 H 0.674355 -6.903708 -1.791818 0
M  V30 46 H 2.999765 -7.566875 -3.146589 0
M  V30 47 H 2.742814 -7.827738 -1.393262 0
M  V30 48 H 5.386025 -7.327169 -2.803146 0
M  V30 49 H 4.921528 -7.828488 -1.170948 0
M  V30 50 H 7.201243 -6.470240 -1.791063 0
M  V30 51 H 6.344144 -6.213159 -0.183342 0
M  V30 52 H 6.990304 -4.131443 -1.700844 0
M  V30 53 H 4.653140 -4.682030 -0.036230 0
M  V30 54 H 6.159148 -1.929463 -2.135019 0
M  V30 55 H 4.257620 2.115011 -0.901581 0
M  V30 56 H 2.591356 2.759727 0.709297 0
M  V30 57 H -0.892196 1.456848 4.806301 0
M  V30 58 H -0.231496 3.117096 4.458498 0
M  V30 59 H -2.396506 3.334231 3.152546 0
M  V30 60 H -3.028231 -1.002439 1.652077 0
M  V30 61 H -6.466424 0.047098 -0.366113 0
M  V30 62 H -6.182093 2.892468 -0.797160 0
M  V30 63 H -8.091697 1.708764 -0.770236 0
M  V30 64 H -8.588920 2.668205 0.676423 0
M  V30 65 H -7.768665 1.034672 0.873151 0
M  V30 66 H -7.707673 2.762267 2.625298 0
M  V30 67 H -7.855678 4.702581 4.107604 0
M  V30 68 H -5.433301 5.083697 -0.116826 0
M  V30 69 H 2.071468 -1.300202 1.997995 0
M  V30 70 H 5.380150 -3.651698 -3.497916 0
M  V30 71 H 6.013371 -5.317983 -3.731464 0
M  V30 72 H 3.839502 -5.753574 -3.952715 0
M  V30 73 H 3.314826 -4.367542 -2.956676 0
M  V30 END ATOM
M  V30 BEGIN BOND
M  V30 1 1 1 2
M  V30 2 1 2 3
M  V30 3 1 3 4
M  V30 4 1 4 5
M  V30 5 1 5 6
M  V30 6 1 6 7
M  V30 7 1 7 8
M  V30 8 2 8 9
M  V30 9 1 9 10
M  V30 10 2 10 11
M  V30 11 1 11 12
M  V30 12 2 12 13
M  V30 13 1 13 14
M  V30 14 1 14 15
M  V30 15 3 15 16
M  V30 16 1 16 17
M  V30 17 1 17 18
M  V30 18 1 18 19
M  V30 19 2 19 20
M  V30 20 1 19 21
M  V30 21 2 21 22
M  V30 22 1 22 23
M  V30 23 2 23 24
M  V30 24 1 24 25
M  V30 25 1 25 26
M  V30 26 1 26 27
M  V30 27 1 26 28
M  V30 28 2 28 29
M  V30 29 1 29 30
M  V30 30 2 30 31
M  V30 31 1 31 32
M  V30 32 1 31 33
M  V30 33 1 33 34
M  V30 34 2 33 35
M  V30 35 1 25 36
M  V30 36 2 36 37
M  V30 37 2 14 38
M  V30 38 1 38 39
M  V30 39 2 39 40
M  V30 40 1 6 41
M  V30 41 1 41 42
M  V30 42 1 42 3
M  V30 43 1 40 8
M  V30 44 1 39 11
M  V30 45 1 36 21
M  V30 46 1 35 28
M  V30 47 1 1 43
M  V30 48 1 1 44
M  V30 49 1 1 45
M  V30 50 1 2 46
M  V30 51 1 2 47
M  V30 52 1 4 48
M  V30 53 1 4 49
M  V30 54 1 5 50
M  V30 55 1 5 51
M  V30 56 1 6 52
M  V30 57 1 7 53
M  V30 58 1 9 54
M  V30 59 1 12 55
M  V30 60 1 13 56
M  V30 61 1 17 57
M  V30 62 1 17 58
M  V30 63 1 18 59
M  V30 64 1 22 60
M  V30 65 1 24 61
M  V30 66 1 26 62 CFG=3
M  V30 67 1 27 63
M  V30 68 1 27 64
M  V30 69 1 27 65
M  V30 70 1 29 66
M  V30 71 1 30 67
M  V30 72 1 35 68
M  V30 73 1 38 69
M  V30 74 1 41 70
M  V30 75 1 41 71
M  V30 76 1 42 72
M  V30 77 1 42 73
M  V30 END BOND
M  V30 END CTAB
M  END
>  <Dataset>  (805) 
ChEMBL_Kinases

>  <Ligand_Instance>  (805) 
nan

>  <PDB_ID>  (805) 
nan

>  <Standardized_SMILES>  (805) 
CCN1CCC(Nc2cnc3ccc(C#CCNC(=O)c4cncn([C@@H](C)c5ccc(F)c(F)c5)c4=O)cc3n2)CC1

>  <Name>  (805) 
nan

>  <Pocket>  (805) 
nan

>  <ATP_Site>  (805) 
nan

>  <Peripheral>  (805) 
nan

>  <Num_H_Atoms_ProtBoundConf>  (805) 
nan

>  <Num_Resolved_Atoms>  (805) 
nan

>  <Num_Not_Resolved_Atoms>  (805) 
nan

$$$$
CHEMBL3689220
     RDKit          3D

  0  0  0  0  0  0  0  0  0  0999 V3000
M  V30 BEGIN CTAB
M  V30 COUNTS 75 79 0 0 0
M  V30 BEGIN ATOM
M  V30 1 C -0.211352 -4.098302 -0.006361 0
M  V30 2 C 0.791019 -5.180953 -0.246455 0
M  V30 3 N 2.048192 -4.646232 -0.615242 0
M  V30 4 C 2.154354 -4.017061 -1.881249 0
M  V30 5 C 3.349161 -3.095334 -1.924019 0
M  V30 6 C 4.571886 -3.826846 -1.490496 0
M  V30 7 N 5.800145 -3.070870 -1.604278 0
M  V30 8 C 6.026095 -1.838779 -0.933136 0
M  V30 9 C 7.173894 -1.075250 -0.988633 0
M  V30 10 N 7.277132 0.091056 -0.307845 0
M  V30 11 C 6.266784 0.552816 0.449258 0
M  V30 12 C 6.294576 1.725584 1.164277 0
M  V30 13 C 5.194766 2.131329 1.922761 0
M  V30 14 C 4.056861 1.355189 1.965262 0
M  V30 15 C 2.873859 1.686630 2.704530 0
M  V30 16 C 1.863615 1.969214 3.311042 0
M  V30 17 C 0.613423 2.313128 4.031473 0
M  V30 18 N -0.473245 1.986518 3.094607 0
M  V30 19 C -1.812345 2.197052 3.456476 0
M  V30 20 O -1.833321 2.675633 4.643692 0
M  V30 21 C -3.014493 1.945430 2.686145 0
M  V30 22 C -4.214163 2.264555 3.335312 0
M  V30 23 C -5.424107 2.069988 2.704339 0
M  V30 24 C -5.521746 1.560628 1.424140 0
M  V30 25 N -4.346644 1.268563 0.838849 0
M  V30 26 C -4.356343 0.727596 -0.512349 0 CFG=1
M  V30 27 C -3.934964 -0.696885 -0.604221 0
M  V30 28 O -4.713447 -1.563876 0.115879 0
M  V30 29 C -5.616826 0.951815 -1.209181 0
M  V30 30 C -6.761704 0.180917 -1.151226 0
M  V30 31 C -7.936575 0.424654 -1.827454 0
M  V30 32 C -7.977297 1.540309 -2.638033 0
M  V30 33 F -9.116835 1.832224 -3.333066 0
M  V30 34 C -6.907928 2.395970 -2.788480 0
M  V30 35 F -6.890098 3.500200 -3.565397 0
M  V30 36 C -5.790669 2.050677 -2.064607 0
M  V30 37 C -3.175395 1.447588 1.426628 0
M  V30 38 O -2.127231 1.159701 0.837216 0
M  V30 39 C 4.010429 0.169263 1.251211 0
M  V30 40 C 5.097369 -0.204423 0.518561 0
M  V30 41 N 5.042913 -1.347985 -0.170363 0
M  V30 42 C 4.364334 -4.346923 -0.086417 0
M  V30 43 C 3.210782 -5.330294 -0.161303 0
M  V30 44 H -0.413272 -3.961503 1.087894 0
M  V30 45 H 0.026672 -3.137640 -0.485876 0
M  V30 46 H -1.206575 -4.422430 -0.416128 0
M  V30 47 H 0.380185 -5.920972 -0.967702 0
M  V30 48 H 0.918144 -5.746466 0.710493 0
M  V30 49 H 1.266549 -3.380352 -2.058521 0
M  V30 50 H 2.210887 -4.721704 -2.737712 0
M  V30 51 H 3.486042 -2.843863 -3.011489 0
M  V30 52 H 3.171662 -2.190735 -1.347543 0
M  V30 53 H 4.676825 -4.730868 -2.130627 0
M  V30 54 H 6.614316 -3.379152 -2.192629 0
M  V30 55 H 7.983718 -1.461995 -1.605866 0
M  V30 56 H 7.191447 2.335289 1.128815 0
M  V30 57 H 5.191500 3.047883 2.493064 0
M  V30 58 H 0.636916 3.377001 4.283049 0
M  V30 59 H 0.492878 1.638674 4.918968 0
M  V30 60 H -0.293246 1.587311 2.128691 0
M  V30 61 H -4.242642 2.672791 4.348232 0
M  V30 62 H -6.334038 2.321593 3.220728 0
M  V30 63 H -6.492696 1.426641 0.972648 0
M  V30 64 H -3.578670 1.342211 -1.072217 0
M  V30 65 H -4.046498 -0.990385 -1.680351 0
M  V30 66 H -2.837808 -0.840458 -0.411231 0
M  V30 67 H -4.149256 -1.993779 0.803083 0
M  V30 68 H -6.747827 -0.694669 -0.520143 0
M  V30 69 H -8.792511 -0.208411 -1.744057 0
M  V30 70 H -4.917162 2.716535 -2.164673 0
M  V30 71 H 3.133760 -0.468815 1.259738 0
M  V30 72 H 5.264149 -4.874812 0.277308 0
M  V30 73 H 4.102122 -3.510498 0.578504 0
M  V30 74 H 3.031256 -5.713094 0.859638 0
M  V30 75 H 3.504428 -6.188659 -0.795088 0
M  V30 END ATOM
M  V30 BEGIN BOND
M  V30 1 1 1 2
M  V30 2 1 2 3
M  V30 3 1 3 4
M  V30 4 1 4 5
M  V30 5 1 5 6
M  V30 6 1 6 7
M  V30 7 1 7 8
M  V30 8 2 8 9
M  V30 9 1 9 10
M  V30 10 2 10 11
M  V30 11 1 11 12
M  V30 12 2 12 13
M  V30 13 1 13 14
M  V30 14 1 14 15
M  V30 15 3 15 16
M  V30 16 1 16 17
M  V30 17 1 17 18
M  V30 18 1 18 19
M  V30 19 2 19 20
M  V30 20 1 19 21
M  V30 21 2 21 22
M  V30 22 1 22 23
M  V30 23 2 23 24
M  V30 24 1 24 25
M  V30 25 1 25 26
M  V30 26 1 26 27
M  V30 27 1 27 28
M  V30 28 1 26 29
M  V30 29 2 29 30
M  V30 30 1 30 31
M  V30 31 2 31 32
M  V30 32 1 32 33
M  V30 33 1 32 34
M  V30 34 1 34 35
M  V30 35 2 34 36
M  V30 36 1 25 37
M  V30 37 2 37 38
M  V30 38 2 14 39
M  V30 39 1 39 40
M  V30 40 2 40 41
M  V30 41 1 6 42
M  V30 42 1 42 43
M  V30 43 1 43 3
M  V30 44 1 41 8
M  V30 45 1 40 11
M  V30 46 1 37 21
M  V30 47 1 36 29
M  V30 48 1 1 44
M  V30 49 1 1 45
M  V30 50 1 1 46
M  V30 51 1 2 47
M  V30 52 1 2 48
M  V30 53 1 4 49
M  V30 54 1 4 50
M  V30 55 1 5 51
M  V30 56 1 5 52
M  V30 57 1 6 53
M  V30 58 1 7 54
M  V30 59 1 9 55
M  V30 60 1 12 56
M  V30 61 1 13 57
M  V30 62 1 17 58
M  V30 63 1 17 59
M  V30 64 1 18 60
M  V30 65 1 22 61
M  V30 66 1 23 62
M  V30 67 1 24 63
M  V30 68 1 26 64 CFG=3
M  V30 69 1 27 65
M  V30 70 1 27 66
M  V30 71 1 28 67
M  V30 72 1 30 68
M  V30 73 1 31 69
M  V30 74 1 36 70
M  V30 75 1 39 71
M  V30 76 1 42 72
M  V30 77 1 42 73
M  V30 78 1 43 74
M  V30 79 1 43 75
M  V30 END BOND
M  V30 END CTAB
M  END
>  <Dataset>  (806) 
ChEMBL_Kinases

>  <Ligand_Instance>  (806) 
nan

>  <PDB_ID>  (806) 
nan

>  <Standardized_SMILES>  (806) 
CCN1CCC(Nc2cnc3ccc(C#CCNC(=O)c4cccn([C@@H](CO)c5ccc(F)c(F)c5)c4=O)cc3n2)CC1

>  <Name>  (806) 
nan

>  <Pocket>  (806) 
nan

>  <ATP_Site>  (806) 
nan

>  <Peripheral>  (806) 
nan

>  <Num_H_Atoms_ProtBoundConf>  (806) 
nan

>  <Num_Resolved_Atoms>  (806) 
nan

>  <Num_Not_Resolved_Atoms>  (806) 
nan

$$$$
CHEMBL3689219
     RDKit          3D

  0  0  0  0  0  0  0  0  0  0999 V3000
M  V30 BEGIN CTAB
M  V30 COUNTS 75 79 0 0 0
M  V30 BEGIN ATOM
M  V30 1 C -0.745248 -3.975706 -0.556593 0
M  V30 2 O 0.628860 -4.230724 -0.468009 0
M  V30 3 C 0.989397 -4.522192 0.851362 0
M  V30 4 C 2.478991 -4.796265 0.922552 0
M  V30 5 N 3.316567 -3.754329 0.517375 0
M  V30 6 C 3.369054 -3.346538 -0.823263 0
M  V30 7 C 4.420979 -2.291850 -1.096709 0
M  V30 8 C 5.633293 -2.445111 -0.244179 0
M  V30 9 N 6.411117 -1.200424 -0.348662 0
M  V30 10 C 5.910489 0.077020 0.053867 0
M  V30 11 C 6.627859 1.264026 -0.039139 0
M  V30 12 N 6.104666 2.436654 0.358220 0
M  V30 13 C 4.862933 2.517897 0.864440 0
M  V30 14 C 4.307380 3.711982 1.277496 0
M  V30 15 C 3.012455 3.770375 1.800610 0
M  V30 16 C 2.296443 2.598276 1.895497 0
M  V30 17 C 0.960007 2.532099 2.414085 0
M  V30 18 C -0.172355 2.458216 2.842071 0
M  V30 19 C -1.558010 2.344806 3.354201 0
M  V30 20 N -2.360357 1.542765 2.449429 0
M  V30 21 C -3.731009 1.263692 2.684499 0
M  V30 22 O -4.095606 1.812605 3.763436 0
M  V30 23 C -4.611753 0.474061 1.839927 0
M  V30 24 C -5.921648 0.364074 2.326483 0
M  V30 25 C -6.882520 -0.351494 1.647627 0
M  V30 26 C -6.606531 -0.989839 0.465618 0
M  V30 27 N -5.341286 -0.864116 0.027528 0
M  V30 28 C -5.010901 -1.523453 -1.221527 0
M  V30 29 C -5.288889 -0.539424 -2.305610 0
M  V30 30 C -6.607411 -0.602645 -2.769627 0
M  V30 31 C -7.030648 0.242034 -3.774835 0
M  V30 32 C -6.185159 1.167427 -4.353178 0
M  V30 33 F -6.627193 1.978074 -5.332222 0
M  V30 34 C -4.893638 1.209092 -3.878396 0
M  V30 35 F -4.023518 2.098292 -4.411464 0
M  V30 36 C -4.435859 0.380845 -2.875798 0
M  V30 37 C -4.393327 -0.185241 0.653334 0
M  V30 38 O -3.234642 -0.084388 0.229348 0
M  V30 39 C 2.846351 1.397985 1.483625 0
M  V30 40 C 4.131497 1.361503 0.967869 0
M  V30 41 N 4.676713 0.224050 0.567578 0
M  V30 42 C 5.391922 -2.756817 1.192082 0
M  V30 43 C 3.949481 -2.987066 1.509101 0
M  V30 44 H -1.064524 -3.741263 -1.594321 0
M  V30 45 H -1.337653 -4.900505 -0.290904 0
M  V30 46 H -1.080962 -3.208583 0.163669 0
M  V30 47 H 0.437533 -5.435158 1.157220 0
M  V30 48 H 0.706216 -3.717498 1.545000 0
M  V30 49 H 2.693787 -5.779958 0.414396 0
M  V30 50 H 2.713041 -5.024132 2.003697 0
M  V30 51 H 2.408585 -2.908511 -1.193645 0
M  V30 52 H 3.579742 -4.215984 -1.473874 0
M  V30 53 H 3.970325 -1.283920 -1.107496 0
M  V30 54 H 4.763524 -2.452750 -2.157445 0
M  V30 55 H 6.323659 -3.234851 -0.664733 0
M  V30 56 H 7.385251 -1.163969 -0.724836 0
M  V30 57 H 7.644821 1.187300 -0.454625 0
M  V30 58 H 4.866709 4.629962 1.204780 0
M  V30 59 H 2.547742 4.689311 2.132666 0
M  V30 60 H -1.537960 1.917848 4.361117 0
M  V30 61 H -2.041804 3.363175 3.363725 0
M  V30 62 H -1.907001 1.158965 1.592889 0
M  V30 63 H -6.235821 0.841234 3.263967 0
M  V30 64 H -7.879382 -0.415493 2.050881 0
M  V30 65 H -7.395372 -1.530421 -0.016855 0
M  V30 66 H -3.915321 -1.725427 -1.248334 0
M  V30 67 H -5.553398 -2.461461 -1.384317 0
M  V30 68 H -7.383510 -1.282006 -2.406267 0
M  V30 69 H -8.057743 0.216195 -4.160368 0
M  V30 70 H -3.447243 0.367000 -2.467567 0
M  V30 71 H 2.325284 0.457544 1.538973 0
M  V30 72 H 5.744131 -1.912693 1.836399 0
M  V30 73 H 5.959839 -3.664968 1.512561 0
M  V30 74 H 3.429679 -2.042466 1.778450 0
M  V30 75 H 3.924994 -3.587862 2.465997 0
M  V30 END ATOM
M  V30 BEGIN BOND
M  V30 1 1 1 2
M  V30 2 1 2 3
M  V30 3 1 3 4
M  V30 4 1 4 5
M  V30 5 1 5 6
M  V30 6 1 6 7
M  V30 7 1 7 8
M  V30 8 1 8 9
M  V30 9 1 9 10
M  V30 10 2 10 11
M  V30 11 1 11 12
M  V30 12 2 12 13
M  V30 13 1 13 14
M  V30 14 2 14 15
M  V30 15 1 15 16
M  V30 16 1 16 17
M  V30 17 3 17 18
M  V30 18 1 18 19
M  V30 19 1 19 20
M  V30 20 1 20 21
M  V30 21 2 21 22
M  V30 22 1 21 23
M  V30 23 2 23 24
M  V30 24 1 24 25
M  V30 25 2 25 26
M  V30 26 1 26 27
M  V30 27 1 27 28
M  V30 28 1 28 29
M  V30 29 2 29 30
M  V30 30 1 30 31
M  V30 31 2 31 32
M  V30 32 1 32 33
M  V30 33 1 32 34
M  V30 34 1 34 35
M  V30 35 2 34 36
M  V30 36 1 27 37
M  V30 37 2 37 38
M  V30 38 2 16 39
M  V30 39 1 39 40
M  V30 40 2 40 41
M  V30 41 1 8 42
M  V30 42 1 42 43
M  V30 43 1 43 5
M  V30 44 1 41 10
M  V30 45 1 40 13
M  V30 46 1 37 23
M  V30 47 1 36 29
M  V30 48 1 1 44
M  V30 49 1 1 45
M  V30 50 1 1 46
M  V30 51 1 3 47
M  V30 52 1 3 48
M  V30 53 1 4 49
M  V30 54 1 4 50
M  V30 55 1 6 51
M  V30 56 1 6 52
M  V30 57 1 7 53
M  V30 58 1 7 54
M  V30 59 1 8 55
M  V30 60 1 9 56
M  V30 61 1 11 57
M  V30 62 1 14 58
M  V30 63 1 15 59
M  V30 64 1 19 60
M  V30 65 1 19 61
M  V30 66 1 20 62
M  V30 67 1 24 63
M  V30 68 1 25 64
M  V30 69 1 26 65
M  V30 70 1 28 66
M  V30 71 1 28 67
M  V30 72 1 30 68
M  V30 73 1 31 69
M  V30 74 1 36 70
M  V30 75 1 39 71
M  V30 76 1 42 72
M  V30 77 1 42 73
M  V30 78 1 43 74
M  V30 79 1 43 75
M  V30 END BOND
M  V30 END CTAB
M  END
>  <Dataset>  (807) 
ChEMBL_Kinases

>  <Ligand_Instance>  (807) 
nan

>  <PDB_ID>  (807) 
nan

>  <Standardized_SMILES>  (807) 
COCCN1CCC(Nc2cnc3ccc(C#CCNC(=O)c4cccn(Cc5ccc(F)c(F)c5)c4=O)cc3n2)CC1

>  <Name>  (807) 
nan

>  <Pocket>  (807) 
nan

>  <ATP_Site>  (807) 
nan

>  <Peripheral>  (807) 
nan

>  <Num_H_Atoms_ProtBoundConf>  (807) 
nan

>  <Num_Resolved_Atoms>  (807) 
nan

>  <Num_Not_Resolved_Atoms>  (807) 
nan

$$$$
CHEMBL3689218
     RDKit          3D

  0  0  0  0  0  0  0  0  0  0999 V3000
M  V30 BEGIN CTAB
M  V30 COUNTS 79 83 0 0 0
M  V30 BEGIN ATOM
M  V30 1 C -2.165401 -6.363170 -0.189514 0
M  V30 2 O -1.572001 -5.454479 -1.048104 0
M  V30 3 C -0.261097 -5.131818 -0.704158 0
M  V30 4 C 0.316974 -4.133776 -1.700530 0
M  V30 5 N 1.641175 -3.803695 -1.352176 0
M  V30 6 C 2.632058 -4.813611 -1.475435 0
M  V30 7 C 3.880509 -4.276584 -0.757244 0
M  V30 8 C 3.452271 -3.302005 0.319524 0
M  V30 9 N 4.526875 -3.094719 1.246942 0
M  V30 10 C 4.437543 -2.215496 2.355941 0
M  V30 11 C 5.402784 -1.952048 3.303712 0
M  V30 12 N 5.194591 -1.088518 4.309465 0
M  V30 13 C 4.046652 -0.443164 4.442550 0
M  V30 14 C 3.746243 0.457996 5.437097 0
M  V30 15 C 2.527223 1.122852 5.548825 0
M  V30 16 C 1.567204 0.853646 4.596162 0
M  V30 17 C 0.264147 1.456280 4.570598 0
M  V30 18 C -0.830909 1.966675 4.528283 0
M  V30 19 C -2.180360 2.583673 4.452693 0
M  V30 20 N -2.547275 2.766434 3.038467 0
M  V30 21 C -2.535167 1.491625 2.434086 0
M  V30 22 O -2.214493 0.613855 3.310587 0
M  V30 23 C -2.819752 1.113243 1.059502 0
M  V30 24 C -2.708555 -0.255376 0.780529 0
M  V30 25 C -2.945187 -0.750759 -0.481321 0
M  V30 26 C -3.298624 0.118368 -1.489107 0
M  V30 27 N -3.409183 1.436754 -1.231015 0
M  V30 28 C -3.776104 2.244807 -2.342296 0 CFG=1
M  V30 29 C -4.393518 3.564843 -2.035677 0
M  V30 30 O -5.581127 3.428632 -1.293540 0
M  V30 31 C -2.669095 2.446117 -3.313364 0
M  V30 32 C -2.471197 1.579759 -4.395731 0
M  V30 33 C -1.430578 1.800212 -5.278933 0
M  V30 34 C -0.550494 2.854712 -5.150780 0
M  V30 35 F 0.471909 3.077688 -6.012189 0
M  V30 36 C -0.719760 3.733229 -4.086095 0
M  V30 37 F 0.128134 4.761075 -3.951858 0
M  V30 38 C -1.768287 3.487198 -3.221036 0
M  V30 39 C -3.178071 1.900659 -0.010117 0
M  V30 40 O -3.276055 3.105258 0.240624 0
M  V30 41 C 1.820138 -0.052184 3.566314 0
M  V30 42 C 3.046724 -0.674775 3.514713 0
M  V30 43 N 3.278425 -1.544807 2.515842 0
M  V30 44 C 2.938273 -2.058523 -0.338360 0
M  V30 45 C 2.080044 -2.466932 -1.535201 0
M  V30 46 H -3.210613 -6.541694 -0.565981 0
M  V30 47 H -2.296401 -5.875220 0.794271 0
M  V30 48 H -1.631448 -7.322749 -0.122489 0
M  V30 49 H 0.316500 -6.090522 -0.795616 0
M  V30 50 H -0.142052 -4.807989 0.338362 0
M  V30 51 H 0.145456 -4.528249 -2.709493 0
M  V30 52 H -0.300798 -3.215266 -1.612042 0
M  V30 53 H 2.923485 -5.089145 -2.499749 0
M  V30 54 H 2.316960 -5.710941 -0.936826 0
M  V30 55 H 4.526764 -3.715960 -1.466624 0
M  V30 56 H 4.502627 -5.104826 -0.362791 0
M  V30 57 H 2.589954 -3.805641 0.850914 0
M  V30 58 H 5.446606 -3.601571 1.132479 0
M  V30 59 H 6.344917 -2.498810 3.167170 0
M  V30 60 H 4.496487 0.668512 6.178022 0
M  V30 61 H 2.288069 1.826421 6.325156 0
M  V30 62 H -2.869591 1.916688 4.963619 0
M  V30 63 H -2.070293 3.585155 4.915042 0
M  V30 64 H -2.795518 3.563479 2.417682 0
M  V30 65 H -2.434731 -0.971582 1.551098 0
M  V30 66 H -2.848620 -1.815231 -0.650409 0
M  V30 67 H -3.468050 -0.354301 -2.449229 0
M  V30 68 H -4.560548 1.677360 -2.936491 0
M  V30 69 H -3.724446 4.336710 -1.663391 0
M  V30 70 H -4.762461 3.967773 -3.030140 0
M  V30 71 H -6.014279 2.563089 -1.489862 0
M  V30 72 H -3.117479 0.744772 -4.553951 0
M  V30 73 H -1.233104 1.156401 -6.135508 0
M  V30 74 H -1.846918 4.205894 -2.420841 0
M  V30 75 H 1.088905 -0.287865 2.800016 0
M  V30 76 H 2.315688 -1.441362 0.344303 0
M  V30 77 H 3.772882 -1.408014 -0.648363 0
M  V30 78 H 1.189709 -1.804239 -1.570119 0
M  V30 79 H 2.685185 -2.286513 -2.433086 0
M  V30 END ATOM
M  V30 BEGIN BOND
M  V30 1 1 1 2
M  V30 2 1 2 3
M  V30 3 1 3 4
M  V30 4 1 4 5
M  V30 5 1 5 6
M  V30 6 1 6 7
M  V30 7 1 7 8
M  V30 8 1 8 9
M  V30 9 1 9 10
M  V30 10 2 10 11
M  V30 11 1 11 12
M  V30 12 2 12 13
M  V30 13 1 13 14
M  V30 14 2 14 15
M  V30 15 1 15 16
M  V30 16 1 16 17
M  V30 17 3 17 18
M  V30 18 1 18 19
M  V30 19 1 19 20
M  V30 20 1 20 21
M  V30 21 2 21 22
M  V30 22 1 21 23
M  V30 23 2 23 24
M  V30 24 1 24 25
M  V30 25 2 25 26
M  V30 26 1 26 27
M  V30 27 1 27 28
M  V30 28 1 28 29
M  V30 29 1 29 30
M  V30 30 1 28 31
M  V30 31 2 31 32
M  V30 32 1 32 33
M  V30 33 2 33 34
M  V30 34 1 34 35
M  V30 35 1 34 36
M  V30 36 1 36 37
M  V30 37 2 36 38
M  V30 38 1 27 39
M  V30 39 2 39 40
M  V30 40 2 16 41
M  V30 41 1 41 42
M  V30 42 2 42 43
M  V30 43 1 8 44
M  V30 44 1 44 45
M  V30 45 1 45 5
M  V30 46 1 43 10
M  V30 47 1 42 13
M  V30 48 1 39 23
M  V30 49 1 38 31
M  V30 50 1 1 46
M  V30 51 1 1 47
M  V30 52 1 1 48
M  V30 53 1 3 49
M  V30 54 1 3 50
M  V30 55 1 4 51
M  V30 56 1 4 52
M  V30 57 1 6 53
M  V30 58 1 6 54
M  V30 59 1 7 55
M  V30 60 1 7 56
M  V30 61 1 8 57
M  V30 62 1 9 58
M  V30 63 1 11 59
M  V30 64 1 14 60
M  V30 65 1 15 61
M  V30 66 1 19 62
M  V30 67 1 19 63
M  V30 68 1 20 64
M  V30 69 1 24 65
M  V30 70 1 25 66
M  V30 71 1 26 67
M  V30 72 1 28 68 CFG=3
M  V30 73 1 29 69
M  V30 74 1 29 70
M  V30 75 1 30 71
M  V30 76 1 32 72
M  V30 77 1 33 73
M  V30 78 1 38 74
M  V30 79 1 41 75
M  V30 80 1 44 76
M  V30 81 1 44 77
M  V30 82 1 45 78
M  V30 83 1 45 79
M  V30 END BOND
M  V30 END CTAB
M  END
>  <Dataset>  (808) 
ChEMBL_Kinases

>  <Ligand_Instance>  (808) 
nan

>  <PDB_ID>  (808) 
nan

>  <Standardized_SMILES>  (808) 
COCCN1CCC(Nc2cnc3ccc(C#CCNC(=O)c4cccn([C@@H](CO)c5ccc(F)c(F)c5)c4=O)cc3n2)CC1

>  <Name>  (808) 
nan

>  <Pocket>  (808) 
nan

>  <ATP_Site>  (808) 
nan

>  <Peripheral>  (808) 
nan

>  <Num_H_Atoms_ProtBoundConf>  (808) 
nan

>  <Num_Resolved_Atoms>  (808) 
nan

>  <Num_Not_Resolved_Atoms>  (808) 
nan

$$$$
CHEMBL3689217
     RDKit          3D

  0  0  0  0  0  0  0  0  0  0999 V3000
M  V30 BEGIN CTAB
M  V30 COUNTS 70 74 0 0 0
M  V30 BEGIN ATOM
M  V30 1 C 1.879747 -5.687034 3.446871 0
M  V30 2 C 3.209150 -5.891328 2.794498 0
M  V30 3 N 3.365554 -5.232533 1.519567 0
M  V30 4 C 4.718772 -5.494014 0.993840 0
M  V30 5 C 4.884351 -4.564479 -0.193845 0
M  V30 6 C 3.961184 -5.055707 -1.269785 0 CFG=2
M  V30 7 N 4.013995 -4.239003 -2.461701 0
M  V30 8 C 3.682931 -2.847545 -2.549621 0
M  V30 9 C 3.767981 -2.133337 -3.755119 0
M  V30 10 N 3.435399 -0.834848 -3.785017 0
M  V30 11 C 3.013222 -0.153890 -2.693432 0
M  V30 12 C 2.670579 1.180993 -2.759952 0
M  V30 13 C 2.239968 1.841416 -1.634249 0
M  V30 14 C 2.167549 1.123433 -0.464494 0
M  V30 15 C 1.695947 1.755446 0.743024 0
M  V30 16 C 1.288418 2.264983 1.749544 0
M  V30 17 C 0.778837 2.878410 3.019505 0
M  V30 18 N -0.522284 2.229003 3.298664 0
M  V30 19 C -1.411613 2.441042 2.279466 0
M  V30 20 O -0.931065 3.170720 1.339814 0
M  V30 21 C -2.626240 2.365048 1.529118 0
M  V30 22 C -3.052771 1.303137 2.508986 0
M  V30 23 N -4.237490 0.578556 2.557201 0
M  V30 24 C -5.145471 0.862832 1.584038 0
M  V30 25 N -4.837589 1.808077 0.660595 0
M  V30 26 C -5.686656 2.113546 -0.437630 0
M  V30 27 C -6.530273 3.281581 -0.233541 0
M  V30 28 C -7.448873 3.494174 0.747849 0
M  V30 29 C -8.262079 4.591797 0.865135 0
M  V30 30 C -8.114690 5.571503 -0.121449 0
M  V30 31 F -8.895846 6.668182 -0.035880 0
M  V30 32 C -7.216760 5.459813 -1.160606 0
M  V30 33 F -7.071631 6.401476 -2.139265 0
M  V30 34 C -6.451629 4.309015 -1.173065 0
M  V30 35 C -3.657641 2.299658 0.893392 0
M  V30 36 O -3.213110 3.241815 0.083520 0
M  V30 37 C 2.498130 -0.235248 -0.322962 0
M  V30 38 C 2.929602 -0.847227 -1.507733 0
M  V30 39 N 3.259308 -2.147797 -1.464968 0
M  V30 40 C 2.568727 -5.281686 -0.815199 0 CFG=2
M  V30 41 F 1.749666 -4.185756 -1.010766 0
M  V30 42 C 2.451612 -5.834063 0.563582 0
M  V30 43 H 1.985521 -5.217078 4.474915 0
M  V30 44 H 1.188570 -5.087648 2.822083 0
M  V30 45 H 1.392669 -6.663937 3.595889 0
M  V30 46 H 3.394849 -6.981249 2.689937 0
M  V30 47 H 4.001621 -5.491389 3.487335 0
M  V30 48 H 5.489024 -5.373328 1.768346 0
M  V30 49 H 4.680145 -6.551947 0.643917 0
M  V30 50 H 5.921250 -4.628086 -0.534731 0
M  V30 51 H 4.649354 -3.548071 0.199942 0
M  V30 52 H 4.371753 -6.063998 -1.557583 0
M  V30 53 H 4.321647 -4.659805 -3.391160 0
M  V30 54 H 4.103877 -2.659470 -4.641167 0
M  V30 55 H 2.734264 1.732424 -3.693830 0
M  V30 56 H 1.947947 2.881060 -1.582799 0
M  V30 57 H 1.463308 2.662694 3.844962 0
M  V30 58 H 0.658455 3.929714 2.838295 0
M  V30 59 H -1.100296 1.655900 3.955502 0
M  V30 60 H -2.720739 0.726442 3.439759 0
M  V30 61 H -6.145079 0.430626 1.406266 0
M  V30 62 H -5.051138 2.254371 -1.356217 0
M  V30 63 H -6.321881 1.215924 -0.707280 0
M  V30 64 H -7.529236 2.702124 1.506460 0
M  V30 65 H -8.991556 4.732427 1.683342 0
M  V30 66 H -5.748777 4.237772 -2.016101 0
M  V30 67 H 2.425747 -0.754630 0.620959 0
M  V30 68 H 2.133213 -6.067874 -1.507951 0
M  V30 69 H 2.698131 -6.924123 0.540463 0
M  V30 70 H 1.412211 -5.693326 0.901020 0
M  V30 END ATOM
M  V30 BEGIN BOND
M  V30 1 1 1 2
M  V30 2 1 2 3
M  V30 3 1 3 4
M  V30 4 1 4 5
M  V30 5 1 5 6
M  V30 6 1 6 7
M  V30 7 1 7 8
M  V30 8 2 8 9
M  V30 9 1 9 10
M  V30 10 2 10 11
M  V30 11 1 11 12
M  V30 12 2 12 13
M  V30 13 1 13 14
M  V30 14 1 14 15
M  V30 15 3 15 16
M  V30 16 1 16 17
M  V30 17 1 17 18
M  V30 18 1 18 19
M  V30 19 2 19 20
M  V30 20 1 19 21
M  V30 21 2 21 22
M  V30 22 1 22 23
M  V30 23 2 23 24
M  V30 24 1 24 25
M  V30 25 1 25 26
M  V30 26 1 26 27
M  V30 27 2 27 28
M  V30 28 1 28 29
M  V30 29 2 29 30
M  V30 30 1 30 31
M  V30 31 1 30 32
M  V30 32 1 32 33
M  V30 33 2 32 34
M  V30 34 1 25 35
M  V30 35 2 35 36
M  V30 36 2 14 37
M  V30 37 1 37 38
M  V30 38 2 38 39
M  V30 39 1 6 40
M  V30 40 1 40 41
M  V30 41 1 40 42
M  V30 42 1 42 3
M  V30 43 1 39 8
M  V30 44 1 38 11
M  V30 45 1 35 21
M  V30 46 1 34 27
M  V30 47 1 1 43
M  V30 48 1 1 44
M  V30 49 1 1 45
M  V30 50 1 2 46
M  V30 51 1 2 47
M  V30 52 1 4 48
M  V30 53 1 4 49
M  V30 54 1 5 50
M  V30 55 1 5 51
M  V30 56 1 6 52 CFG=3
M  V30 57 1 7 53
M  V30 58 1 9 54
M  V30 59 1 12 55
M  V30 60 1 13 56
M  V30 61 1 17 57
M  V30 62 1 17 58
M  V30 63 1 18 59
M  V30 64 1 22 60
M  V30 65 1 24 61
M  V30 66 1 26 62
M  V30 67 1 26 63
M  V30 68 1 28 64
M  V30 69 1 29 65
M  V30 70 1 34 66
M  V30 71 1 37 67
M  V30 72 1 40 68 CFG=3
M  V30 73 1 42 69
M  V30 74 1 42 70
M  V30 END BOND
M  V30 END CTAB
M  END
>  <Dataset>  (809) 
ChEMBL_Kinases

>  <Ligand_Instance>  (809) 
nan

>  <PDB_ID>  (809) 
nan

>  <Standardized_SMILES>  (809) 
CCN1CC[C@H](Nc2cnc3ccc(C#CCNC(=O)c4cncn(Cc5ccc(F)c(F)c5)c4=O)cc3n2)[C@H](F)C1

>  <Name>  (809) 
nan

>  <Pocket>  (809) 
nan

>  <ATP_Site>  (809) 
nan

>  <Peripheral>  (809) 
nan

>  <Num_H_Atoms_ProtBoundConf>  (809) 
nan

>  <Num_Resolved_Atoms>  (809) 
nan

>  <Num_Not_Resolved_Atoms>  (809) 
nan

$$$$
CHEMBL3689216
     RDKit          3D

  0  0  0  0  0  0  0  0  0  0999 V3000
M  V30 BEGIN CTAB
M  V30 COUNTS 71 75 0 0 0
M  V30 BEGIN ATOM
M  V30 1 C -3.024596 -4.760457 -1.774955 0
M  V30 2 C -2.048462 -5.662087 -2.495734 0
M  V30 3 N -0.732140 -5.058327 -2.595754 0
M  V30 4 C 0.116132 -5.991438 -3.293790 0
M  V30 5 C 1.488650 -5.454024 -3.568834 0
M  V30 6 C 1.650724 -3.992402 -3.217558 0
M  V30 7 N 2.856732 -3.530477 -3.904088 0
M  V30 8 C 3.347181 -2.181197 -3.815105 0
M  V30 9 C 4.480734 -1.718089 -4.451171 0
M  V30 10 N 4.873916 -0.435662 -4.316191 0
M  V30 11 C 4.158548 0.421632 -3.550375 0
M  V30 12 C 4.501766 1.744907 -3.367947 0
M  V30 13 C 3.756271 2.602557 -2.581226 0
M  V30 14 C 2.614416 2.131959 -1.941807 0
M  V30 15 C 1.811515 2.993930 -1.114104 0
M  V30 16 C 1.131820 3.701113 -0.408458 0
M  V30 17 C 0.300926 4.540536 0.463727 0
M  V30 18 N 0.034178 3.867765 1.730954 0
M  V30 19 C -0.649672 2.646347 1.487836 0
M  V30 20 O -0.812017 2.530292 0.223812 0
M  V30 21 C -1.106314 1.668000 2.454316 0
M  V30 22 C -1.752234 0.563266 1.884561 0
M  V30 23 C -2.240193 -0.448131 2.680594 0
M  V30 24 C -2.127711 -0.439571 4.054893 0
M  V30 25 N -1.503335 0.633480 4.569948 0
M  V30 26 C -1.343835 0.722916 5.989953 0
M  V30 27 C -2.478088 1.408603 6.651224 0
M  V30 28 C -2.610875 2.760974 6.916735 0
M  V30 29 C -3.720608 3.252167 7.536643 0
M  V30 30 C -4.765778 2.429326 7.930367 0
M  V30 31 F -5.846899 2.953700 8.541077 0
M  V30 32 C -4.683020 1.067368 7.688123 0
M  V30 33 F -5.675000 0.229877 8.053457 0
M  V30 34 C -3.542988 0.612593 7.058653 0
M  V30 35 C -1.017779 1.633983 3.818612 0
M  V30 36 O -0.437273 2.629228 4.313143 0
M  V30 37 C 2.244143 0.808092 -2.105734 0
M  V30 38 C 3.021357 -0.015060 -2.903425 0
M  V30 39 N 2.658821 -1.302474 -3.061150 0
M  V30 40 C 0.456593 -3.263596 -3.798796 0
M  V30 41 C -0.845355 -3.878206 -3.407994 0
M  V30 42 H -2.541919 -4.130906 -1.006782 0
M  V30 43 H -3.795860 -5.368877 -1.252329 0
M  V30 44 H -3.584450 -4.149234 -2.528518 0
M  V30 45 H -2.468271 -5.981319 -3.460494 0
M  V30 46 H -1.971791 -6.592006 -1.864702 0
M  V30 47 H 0.146214 -6.927453 -2.703483 0
M  V30 48 H -0.420346 -6.246789 -4.254387 0
M  V30 49 H 1.815008 -5.567078 -4.627447 0
M  V30 50 H 2.226161 -6.036826 -2.973353 0
M  V30 51 H 1.726410 -3.844306 -2.117970 0
M  V30 52 H 3.454380 -4.161821 -4.517013 0
M  V30 53 H 5.036345 -2.416305 -5.056225 0
M  V30 54 H 5.395572 2.129494 -3.863321 0
M  V30 55 H 4.014864 3.630611 -2.433933 0
M  V30 56 H 0.840267 5.491786 0.601269 0
M  V30 57 H -0.708890 4.739040 0.010707 0
M  V30 58 H 0.245439 4.113063 2.722079 0
M  V30 59 H -1.893793 0.458121 0.809749 0
M  V30 60 H -2.734432 -1.289982 2.220610 0
M  V30 61 H -2.532095 -1.264010 4.619414 0
M  V30 62 H -1.236944 -0.291391 6.456217 0
M  V30 63 H -0.400206 1.287784 6.207944 0
M  V30 64 H -1.776242 3.369178 6.595372 0
M  V30 65 H -3.751570 4.328753 7.711137 0
M  V30 66 H -3.519216 -0.470861 6.886686 0
M  V30 67 H 1.381413 0.394012 -1.641166 0
M  V30 68 H 0.582267 -3.322391 -4.916066 0
M  V30 69 H 0.502716 -2.184247 -3.552223 0
M  V30 70 H -1.452838 -4.105743 -4.329119 0
M  V30 71 H -1.481172 -3.143144 -2.847486 0
M  V30 END ATOM
M  V30 BEGIN BOND
M  V30 1 1 1 2
M  V30 2 1 2 3
M  V30 3 1 3 4
M  V30 4 1 4 5
M  V30 5 1 5 6
M  V30 6 1 6 7
M  V30 7 1 7 8
M  V30 8 2 8 9
M  V30 9 1 9 10
M  V30 10 2 10 11
M  V30 11 1 11 12
M  V30 12 2 12 13
M  V30 13 1 13 14
M  V30 14 1 14 15
M  V30 15 3 15 16
M  V30 16 1 16 17
M  V30 17 1 17 18
M  V30 18 1 18 19
M  V30 19 2 19 20
M  V30 20 1 19 21
M  V30 21 2 21 22
M  V30 22 1 22 23
M  V30 23 2 23 24
M  V30 24 1 24 25
M  V30 25 1 25 26
M  V30 26 1 26 27
M  V30 27 2 27 28
M  V30 28 1 28 29
M  V30 29 2 29 30
M  V30 30 1 30 31
M  V30 31 1 30 32
M  V30 32 1 32 33
M  V30 33 2 32 34
M  V30 34 1 25 35
M  V30 35 2 35 36
M  V30 36 2 14 37
M  V30 37 1 37 38
M  V30 38 2 38 39
M  V30 39 1 6 40
M  V30 40 1 40 41
M  V30 41 1 41 3
M  V30 42 1 39 8
M  V30 43 1 38 11
M  V30 44 1 35 21
M  V30 45 1 34 27
M  V30 46 1 1 42
M  V30 47 1 1 43
M  V30 48 1 1 44
M  V30 49 1 2 45
M  V30 50 1 2 46
M  V30 51 1 4 47
M  V30 52 1 4 48
M  V30 53 1 5 49
M  V30 54 1 5 50
M  V30 55 1 6 51
M  V30 56 1 7 52
M  V30 57 1 9 53
M  V30 58 1 12 54
M  V30 59 1 13 55
M  V30 60 1 17 56
M  V30 61 1 17 57
M  V30 62 1 18 58
M  V30 63 1 22 59
M  V30 64 1 23 60
M  V30 65 1 24 61
M  V30 66 1 26 62
M  V30 67 1 26 63
M  V30 68 1 28 64
M  V30 69 1 29 65
M  V30 70 1 34 66
M  V30 71 1 37 67
M  V30 72 1 40 68
M  V30 73 1 40 69
M  V30 74 1 41 70
M  V30 75 1 41 71
M  V30 END BOND
M  V30 END CTAB
M  END
>  <Dataset>  (810) 
ChEMBL_Kinases

>  <Ligand_Instance>  (810) 
nan

>  <PDB_ID>  (810) 
nan

>  <Standardized_SMILES>  (810) 
CCN1CCC(Nc2cnc3ccc(C#CCNC(=O)c4cccn(Cc5ccc(F)c(F)c5)c4=O)cc3n2)CC1

>  <Name>  (810) 
nan

>  <Pocket>  (810) 
nan

>  <ATP_Site>  (810) 
nan

>  <Peripheral>  (810) 
nan

>  <Num_H_Atoms_ProtBoundConf>  (810) 
nan

>  <Num_Resolved_Atoms>  (810) 
nan

>  <Num_Not_Resolved_Atoms>  (810) 
nan

$$$$
CHEMBL3689215
     RDKit          3D

  0  0  0  0  0  0  0  0  0  0999 V3000
M  V30 BEGIN CTAB
M  V30 COUNTS 70 74 0 0 0
M  V30 BEGIN ATOM
M  V30 1 C -3.556653 -3.281228 -2.255072 0
M  V30 2 C -2.064939 -3.591886 -2.217579 0
M  V30 3 N -1.266184 -2.429784 -2.468109 0
M  V30 4 C -1.432523 -2.003022 -3.838914 0
M  V30 5 C -0.155775 -1.226969 -4.188078 0
M  V30 6 C 0.891689 -2.315635 -4.448639 0 CFG=1
M  V30 7 N 2.137475 -1.773577 -4.914344 0
M  V30 8 C 2.916995 -0.844197 -4.172957 0
M  V30 9 C 4.128799 -0.314950 -4.627430 0
M  V30 10 N 4.842107 0.564124 -3.899361 0
M  V30 11 C 4.415413 0.975451 -2.690740 0
M  V30 12 C 5.201466 1.873114 -2.012848 0
M  V30 13 C 4.732828 2.273690 -0.774566 0
M  V30 14 C 3.525814 1.777272 -0.268030 0
M  V30 15 C 3.149026 2.269540 1.029279 0
M  V30 16 C 2.852600 2.678968 2.124239 0
M  V30 17 C 2.517893 3.176595 3.450914 0
M  V30 18 N 1.374235 2.441064 3.933344 0
M  V30 19 C 1.433214 1.040027 4.088868 0
M  V30 20 O 2.598007 0.638992 3.742911 0
M  V30 21 C 0.377592 0.158841 4.558445 0
M  V30 22 C 0.754069 -1.189934 4.603392 0
M  V30 23 N -0.098738 -2.143336 5.015568 0
M  V30 24 C -1.354557 -1.866666 5.406950 0
M  V30 25 N -1.721350 -0.574118 5.365764 0
M  V30 26 C -3.064778 -0.214788 5.773938 0
M  V30 27 C -4.043737 -0.237193 4.667671 0
M  V30 28 C -4.324105 0.861797 3.879088 0
M  V30 29 C -5.261623 0.764651 2.850924 0
M  V30 30 C -5.932916 -0.412353 2.586799 0
M  V30 31 F -6.850066 -0.501377 1.578436 0
M  V30 32 C -5.646987 -1.508891 3.380549 0
M  V30 33 F -6.306393 -2.680145 3.127048 0
M  V30 34 C -4.713870 -1.414531 4.405232 0
M  V30 35 C -0.911260 0.416024 4.963512 0
M  V30 36 O -1.215891 1.631107 4.911428 0
M  V30 37 C 2.768944 0.878486 -0.981335 0
M  V30 38 C 3.230086 0.474100 -2.217320 0
M  V30 39 N 2.539639 -0.402821 -2.967852 0
M  V30 40 C 0.997443 -3.119509 -3.186764 0 CFG=1
M  V30 41 F 2.296796 -3.047581 -2.668797 0
M  V30 42 C 0.093416 -2.635330 -2.084276 0
M  V30 43 H -3.723325 -2.247100 -2.616328 0
M  V30 44 H -4.048914 -4.030021 -2.885684 0
M  V30 45 H -4.010813 -3.309855 -1.237911 0
M  V30 46 H -1.815061 -4.412083 -2.945798 0
M  V30 47 H -1.850257 -3.951656 -1.183898 0
M  V30 48 H -2.344370 -1.391450 -3.989653 0
M  V30 49 H -1.455407 -2.902481 -4.494328 0
M  V30 50 H -0.247825 -0.682703 -5.133451 0
M  V30 51 H 0.185734 -0.602418 -3.343276 0
M  V30 52 H 0.459501 -2.928094 -5.292831 0
M  V30 53 H 2.549576 -2.041772 -5.851692 0
M  V30 54 H 4.477788 -0.643523 -5.600982 0
M  V30 55 H 6.143623 2.276941 -2.379830 0
M  V30 56 H 5.350307 2.988735 -0.225139 0
M  V30 57 H 3.349517 2.967455 4.186365 0
M  V30 58 H 2.381267 4.268376 3.503661 0
M  V30 59 H 0.487547 2.935035 4.173556 0
M  V30 60 H 1.711724 -1.649555 4.336966 0
M  V30 61 H -2.082531 -2.588478 5.746863 0
M  V30 62 H -3.403072 -0.875958 6.593025 0
M  V30 63 H -3.026672 0.812344 6.237218 0
M  V30 64 H -3.820231 1.796748 4.057718 0
M  V30 65 H -5.503293 1.624751 2.208451 0
M  V30 66 H -4.527050 -2.318690 5.004740 0
M  V30 67 H 1.844594 0.515586 -0.562999 0
M  V30 68 H 0.718880 -4.185689 -3.369888 0
M  V30 69 H 0.544961 -1.769265 -1.562865 0
M  V30 70 H 0.082373 -3.453527 -1.314791 0
M  V30 END ATOM
M  V30 BEGIN BOND
M  V30 1 1 1 2
M  V30 2 1 2 3
M  V30 3 1 3 4
M  V30 4 1 4 5
M  V30 5 1 5 6
M  V30 6 1 6 7
M  V30 7 1 7 8
M  V30 8 2 8 9
M  V30 9 1 9 10
M  V30 10 2 10 11
M  V30 11 1 11 12
M  V30 12 2 12 13
M  V30 13 1 13 14
M  V30 14 1 14 15
M  V30 15 3 15 16
M  V30 16 1 16 17
M  V30 17 1 17 18
M  V30 18 1 18 19
M  V30 19 2 19 20
M  V30 20 1 19 21
M  V30 21 2 21 22
M  V30 22 1 22 23
M  V30 23 2 23 24
M  V30 24 1 24 25
M  V30 25 1 25 26
M  V30 26 1 26 27
M  V30 27 2 27 28
M  V30 28 1 28 29
M  V30 29 2 29 30
M  V30 30 1 30 31
M  V30 31 1 30 32
M  V30 32 1 32 33
M  V30 33 2 32 34
M  V30 34 1 25 35
M  V30 35 2 35 36
M  V30 36 2 14 37
M  V30 37 1 37 38
M  V30 38 2 38 39
M  V30 39 1 6 40
M  V30 40 1 40 41
M  V30 41 1 40 42
M  V30 42 1 42 3
M  V30 43 1 39 8
M  V30 44 1 38 11
M  V30 45 1 35 21
M  V30 46 1 34 27
M  V30 47 1 1 43
M  V30 48 1 1 44
M  V30 49 1 1 45
M  V30 50 1 2 46
M  V30 51 1 2 47
M  V30 52 1 4 48
M  V30 53 1 4 49
M  V30 54 1 5 50
M  V30 55 1 5 51
M  V30 56 1 6 52 CFG=3
M  V30 57 1 7 53
M  V30 58 1 9 54
M  V30 59 1 12 55
M  V30 60 1 13 56
M  V30 61 1 17 57
M  V30 62 1 17 58
M  V30 63 1 18 59
M  V30 64 1 22 60
M  V30 65 1 24 61
M  V30 66 1 26 62
M  V30 67 1 26 63
M  V30 68 1 28 64
M  V30 69 1 29 65
M  V30 70 1 34 66
M  V30 71 1 37 67
M  V30 72 1 40 68 CFG=3
M  V30 73 1 42 69
M  V30 74 1 42 70
M  V30 END BOND
M  V30 END CTAB
M  END
>  <Dataset>  (811) 
ChEMBL_Kinases

>  <Ligand_Instance>  (811) 
nan

>  <PDB_ID>  (811) 
nan

>  <Standardized_SMILES>  (811) 
CCN1CC[C@@H](Nc2cnc3ccc(C#CCNC(=O)c4cncn(Cc5ccc(F)c(F)c5)c4=O)cc3n2)[C@@H](F)C1

>  <Name>  (811) 
nan

>  <Pocket>  (811) 
nan

>  <ATP_Site>  (811) 
nan

>  <Peripheral>  (811) 
nan

>  <Num_H_Atoms_ProtBoundConf>  (811) 
nan

>  <Num_Resolved_Atoms>  (811) 
nan

>  <Num_Not_Resolved_Atoms>  (811) 
nan

$$$$
CHEMBL3689197
     RDKit          3D

  0  0  0  0  0  0  0  0  0  0999 V3000
M  V30 BEGIN CTAB
M  V30 COUNTS 65 69 0 0 0
M  V30 BEGIN ATOM
M  V30 1 O 4.618581 -1.969071 5.082049 0
M  V30 2 C 3.715748 -2.337792 4.270730 0
M  V30 3 N 3.018327 -1.191087 3.807514 0
M  V30 4 C 3.410635 0.128547 4.293159 0
M  V30 5 C 2.513833 1.113424 3.639668 0
M  V30 6 C 1.787191 1.904583 3.090123 0
M  V30 7 C 0.919699 2.829799 2.417310 0
M  V30 8 C 1.120554 4.212029 2.452878 0
M  V30 9 C 0.247761 5.042191 1.782664 0
M  V30 10 C -0.829373 4.559988 1.069092 0
M  V30 11 N -1.724557 5.298335 0.390159 0
M  V30 12 C -2.728133 4.686509 -0.262622 0
M  V30 13 C -2.919373 3.324307 -0.293895 0
M  V30 14 N -3.976506 2.681818 -1.001115 0
M  V30 15 C -4.977148 3.314543 -1.833490 0
M  V30 16 C -6.027686 2.288642 -2.158469 0
M  V30 17 C -5.571937 1.211973 -3.074464 0
M  V30 18 C -5.240391 1.904540 -4.405468 0
M  V30 19 C -4.044363 2.749295 -4.119369 0
M  V30 20 C -4.252784 3.803405 -3.061649 0
M  V30 21 N -2.014115 2.609350 0.390773 0
M  V30 22 C -1.002321 3.192387 1.051845 0
M  V30 23 C -0.145156 2.322096 1.714227 0
M  V30 24 C 3.479524 -3.727373 3.910619 0
M  V30 25 C 4.339603 -4.636359 4.536653 0
M  V30 26 N 4.240033 -5.954312 4.299131 0
M  V30 27 C 3.325312 -6.473641 3.461112 0
M  V30 28 N 2.497377 -5.603232 2.858004 0
M  V30 29 C 1.505530 -6.143690 1.951801 0
M  V30 30 C 2.091431 -6.198462 0.570365 0
M  V30 31 C 2.016659 -5.190516 -0.367760 0
M  V30 32 C 2.585979 -5.334923 -1.609506 0
M  V30 33 C 3.252402 -6.484224 -1.971723 0
M  V30 34 F 3.825513 -6.656818 -3.190737 0
M  V30 35 C 3.311086 -7.475316 -1.012901 0
M  V30 36 F 3.963035 -8.613421 -1.352417 0
M  V30 37 C 2.759202 -7.385162 0.246486 0
M  V30 38 C 2.552286 -4.280325 3.058092 0
M  V30 39 O 1.796533 -3.471378 2.509375 0
M  V30 40 H 2.242454 -1.329481 3.129749 0
M  V30 41 H 3.223202 0.131247 5.373213 0
M  V30 42 H 4.443782 0.335659 3.987635 0
M  V30 43 H 1.951557 4.596903 3.002383 0
M  V30 44 H 0.376917 6.126107 1.791121 0
M  V30 45 H -3.393172 5.348295 -0.760845 0
M  V30 46 H -4.009237 1.625771 -0.887990 0
M  V30 47 H -5.400977 4.169022 -1.279951 0
M  V30 48 H -6.452527 1.832469 -1.245163 0
M  V30 49 H -6.873364 2.827610 -2.661640 0
M  V30 50 H -4.594510 0.767753 -2.727879 0
M  V30 51 H -6.338432 0.445129 -3.170073 0
M  V30 52 H -4.949001 1.100555 -5.094166 0
M  V30 53 H -6.098613 2.490914 -4.786269 0
M  V30 54 H -3.655942 3.174316 -5.056745 0
M  V30 55 H -3.230609 2.053303 -3.760205 0
M  V30 56 H -3.288470 4.298944 -2.835920 0
M  V30 57 H -4.896895 4.590994 -3.522724 0
M  V30 58 H -0.301261 1.251450 1.686376 0
M  V30 59 H 5.131520 -4.356375 5.242475 0
M  V30 60 H 3.298302 -7.544554 3.314039 0
M  V30 61 H 1.173509 -7.148607 2.279425 0
M  V30 62 H 0.669052 -5.418217 1.907822 0
M  V30 63 H 1.503693 -4.305197 -0.091730 0
M  V30 64 H 2.502308 -4.517759 -2.313087 0
M  V30 65 H 2.845658 -8.204718 0.946697 0
M  V30 END ATOM
M  V30 BEGIN BOND
M  V30 1 2 1 2
M  V30 2 1 2 3
M  V30 3 1 3 4
M  V30 4 1 4 5
M  V30 5 3 5 6
M  V30 6 1 6 7
M  V30 7 2 7 8
M  V30 8 1 8 9
M  V30 9 2 9 10
M  V30 10 1 10 11
M  V30 11 2 11 12
M  V30 12 1 12 13
M  V30 13 1 13 14
M  V30 14 1 14 15
M  V30 15 1 15 16
M  V30 16 1 16 17
M  V30 17 1 17 18
M  V30 18 1 18 19
M  V30 19 1 19 20
M  V30 20 2 13 21
M  V30 21 1 21 22
M  V30 22 2 22 23
M  V30 23 1 2 24
M  V30 24 2 24 25
M  V30 25 1 25 26
M  V30 26 2 26 27
M  V30 27 1 27 28
M  V30 28 1 28 29
M  V30 29 1 29 30
M  V30 30 2 30 31
M  V30 31 1 31 32
M  V30 32 2 32 33
M  V30 33 1 33 34
M  V30 34 1 33 35
M  V30 35 1 35 36
M  V30 36 2 35 37
M  V30 37 1 28 38
M  V30 38 2 38 39
M  V30 39 1 23 7
M  V30 40 1 38 24
M  V30 41 1 22 10
M  V30 42 1 37 30
M  V30 43 1 20 15
M  V30 44 1 3 40
M  V30 45 1 4 41
M  V30 46 1 4 42
M  V30 47 1 8 43
M  V30 48 1 9 44
M  V30 49 1 12 45
M  V30 50 1 14 46
M  V30 51 1 15 47
M  V30 52 1 16 48
M  V30 53 1 16 49
M  V30 54 1 17 50
M  V30 55 1 17 51
M  V30 56 1 18 52
M  V30 57 1 18 53
M  V30 58 1 19 54
M  V30 59 1 19 55
M  V30 60 1 20 56
M  V30 61 1 20 57
M  V30 62 1 23 58
M  V30 63 1 25 59
M  V30 64 1 27 60
M  V30 65 1 29 61
M  V30 66 1 29 62
M  V30 67 1 31 63
M  V30 68 1 32 64
M  V30 69 1 37 65
M  V30 END BOND
M  V30 END CTAB
M  END
>  <Dataset>  (812) 
ChEMBL_Kinases

>  <Ligand_Instance>  (812) 
nan

>  <PDB_ID>  (812) 
nan

>  <Standardized_SMILES>  (812) 
O=C(NCC#Cc1ccc2ncc(NC3CCCCC3)nc2c1)c1cncn(Cc2ccc(F)c(F)c2)c1=O

>  <Name>  (812) 
nan

>  <Pocket>  (812) 
nan

>  <ATP_Site>  (812) 
nan

>  <Peripheral>  (812) 
nan

>  <Num_H_Atoms_ProtBoundConf>  (812) 
nan

>  <Num_Resolved_Atoms>  (812) 
nan

>  <Num_Not_Resolved_Atoms>  (812) 
nan

$$$$
CHEMBL3689198
     RDKit          3D

  0  0  0  0  0  0  0  0  0  0999 V3000
M  V30 BEGIN CTAB
M  V30 COUNTS 64 68 0 0 0
M  V30 BEGIN ATOM
M  V30 1 O 5.052187 -3.091462 5.125307 0
M  V30 2 C 4.198662 -2.951355 4.156386 0
M  V30 3 N 3.754495 -1.682577 4.640150 0
M  V30 4 C 3.381198 -0.458807 5.176407 0
M  V30 5 C 2.368354 0.348003 4.514346 0
M  V30 6 C 1.543558 1.014115 3.949178 0
M  V30 7 C 0.566881 1.827101 3.253403 0
M  V30 8 C 0.686691 3.194898 3.304798 0
M  V30 9 C -0.270998 3.923602 2.609485 0
M  V30 10 C -1.271050 3.323120 1.916101 0
M  V30 11 N -2.170295 4.060364 1.261668 0
M  V30 12 C -3.162410 3.420739 0.573159 0
M  V30 13 C -3.281584 2.049916 0.522490 0
M  V30 14 N -4.296879 1.375294 -0.182557 0
M  V30 15 C -5.391657 1.864265 -0.992196 0
M  V30 16 C -6.282962 0.765717 -1.476765 0
M  V30 17 C -5.745364 0.081809 -2.715262 0
M  V30 18 N -5.483116 1.043298 -3.772417 0
M  V30 19 C -5.801316 2.389451 -3.353912 0
M  V30 20 C -4.970584 2.718681 -2.138857 0
M  V30 21 N -2.351590 1.364647 1.198198 0
M  V30 22 C -1.381189 1.960754 1.870916 0
M  V30 23 C -0.452999 1.191042 2.546960 0
M  V30 24 C 3.962403 -3.887134 3.087634 0
M  V30 25 C 4.779924 -4.982223 3.257849 0
M  V30 26 N 4.677707 -5.973655 2.339477 0
M  V30 27 C 3.799006 -5.859972 1.312833 0
M  V30 28 N 3.004223 -4.790954 1.151272 0
M  V30 29 C 2.080027 -4.709195 0.041476 0
M  V30 30 C 2.705609 -4.084918 -1.151384 0
M  V30 31 C 3.338572 -4.901626 -2.082539 0
M  V30 32 C 3.919042 -4.309038 -3.194127 0
M  V30 33 C 3.883198 -2.951666 -3.393247 0
M  V30 34 F 4.468695 -2.405456 -4.509224 0
M  V30 35 C 3.261303 -2.080974 -2.492578 0
M  V30 36 F 3.199542 -0.752062 -2.644787 0
M  V30 37 C 2.714397 -2.735962 -1.426900 0
M  V30 38 C 3.081336 -3.795361 2.039718 0
M  V30 39 O 2.395149 -2.766710 1.983009 0
M  V30 40 H 3.050545 -1.609689 3.811471 0
M  V30 41 H 3.036026 -0.562827 6.253494 0
M  V30 42 H 4.274944 0.222373 5.267757 0
M  V30 43 H 1.456567 3.722682 3.837249 0
M  V30 44 H -0.230816 5.014419 2.611712 0
M  V30 45 H -3.864332 4.059571 0.062277 0
M  V30 46 H -4.278431 0.314859 -0.124946 0
M  V30 47 H -6.012652 2.490075 -0.304366 0
M  V30 48 H -7.319899 1.073405 -1.684372 0
M  V30 49 H -6.334719 -0.048025 -0.709459 0
M  V30 50 H -4.818792 -0.470076 -2.549967 0
M  V30 51 H -6.541988 -0.595859 -3.080645 0
M  V30 52 H -5.930966 0.790782 -4.683576 0
M  V30 53 H -6.882349 2.420179 -3.113000 0
M  V30 54 H -5.580019 3.085317 -4.202570 0
M  V30 55 H -5.106942 3.802127 -1.914154 0
M  V30 56 H -3.895896 2.503249 -2.374795 0
M  V30 57 H -0.477959 0.132215 2.551392 0
M  V30 58 H 5.516741 -5.164494 4.045377 0
M  V30 59 H 3.708222 -6.643620 0.575376 0
M  V30 60 H 1.222147 -4.083283 0.321642 0
M  V30 61 H 1.690667 -5.728886 -0.188671 0
M  V30 62 H 3.404486 -5.971453 -1.987409 0
M  V30 63 H 4.409928 -4.975270 -3.914169 0
M  V30 64 H 2.207785 -2.108864 -0.677399 0
M  V30 END ATOM
M  V30 BEGIN BOND
M  V30 1 2 1 2
M  V30 2 1 2 3
M  V30 3 1 3 4
M  V30 4 1 4 5
M  V30 5 3 5 6
M  V30 6 1 6 7
M  V30 7 2 7 8
M  V30 8 1 8 9
M  V30 9 2 9 10
M  V30 10 1 10 11
M  V30 11 2 11 12
M  V30 12 1 12 13
M  V30 13 1 13 14
M  V30 14 1 14 15
M  V30 15 1 15 16
M  V30 16 1 16 17
M  V30 17 1 17 18
M  V30 18 1 18 19
M  V30 19 1 19 20
M  V30 20 2 13 21
M  V30 21 1 21 22
M  V30 22 2 22 23
M  V30 23 1 2 24
M  V30 24 2 24 25
M  V30 25 1 25 26
M  V30 26 2 26 27
M  V30 27 1 27 28
M  V30 28 1 28 29
M  V30 29 1 29 30
M  V30 30 2 30 31
M  V30 31 1 31 32
M  V30 32 2 32 33
M  V30 33 1 33 34
M  V30 34 1 33 35
M  V30 35 1 35 36
M  V30 36 2 35 37
M  V30 37 1 28 38
M  V30 38 2 38 39
M  V30 39 1 23 7
M  V30 40 1 38 24
M  V30 41 1 22 10
M  V30 42 1 37 30
M  V30 43 1 20 15
M  V30 44 1 3 40
M  V30 45 1 4 41
M  V30 46 1 4 42
M  V30 47 1 8 43
M  V30 48 1 9 44
M  V30 49 1 12 45
M  V30 50 1 14 46
M  V30 51 1 15 47
M  V30 52 1 16 48
M  V30 53 1 16 49
M  V30 54 1 17 50
M  V30 55 1 17 51
M  V30 56 1 18 52
M  V30 57 1 19 53
M  V30 58 1 19 54
M  V30 59 1 20 55
M  V30 60 1 20 56
M  V30 61 1 23 57
M  V30 62 1 25 58
M  V30 63 1 27 59
M  V30 64 1 29 60
M  V30 65 1 29 61
M  V30 66 1 31 62
M  V30 67 1 32 63
M  V30 68 1 37 64
M  V30 END BOND
M  V30 END CTAB
M  END
>  <Dataset>  (813) 
ChEMBL_Kinases

>  <Ligand_Instance>  (813) 
nan

>  <PDB_ID>  (813) 
nan

>  <Standardized_SMILES>  (813) 
O=C(NCC#Cc1ccc2ncc(NC3CCNCC3)nc2c1)c1cncn(Cc2ccc(F)c(F)c2)c1=O

>  <Name>  (813) 
nan

>  <Pocket>  (813) 
nan

>  <ATP_Site>  (813) 
nan

>  <Peripheral>  (813) 
nan

>  <Num_H_Atoms_ProtBoundConf>  (813) 
nan

>  <Num_Resolved_Atoms>  (813) 
nan

>  <Num_Not_Resolved_Atoms>  (813) 
nan

$$$$
CHEMBL3689199
     RDKit          3D

  0  0  0  0  0  0  0  0  0  0999 V3000
M  V30 BEGIN CTAB
M  V30 COUNTS 70 74 0 0 0
M  V30 BEGIN ATOM
M  V30 1 C 1.218621 -4.306934 6.058590 0
M  V30 2 N 2.048622 -3.727876 5.027720 0
M  V30 3 C 3.192980 -4.570971 4.824944 0
M  V30 4 C 4.227181 -3.902467 3.925000 0
M  V30 5 C 3.484667 -3.112014 2.895356 0
M  V30 6 N 4.270800 -2.756385 1.743619 0
M  V30 7 C 4.963597 -3.693161 0.894369 0
M  V30 8 C 4.446782 -1.409798 1.281390 0
M  V30 9 C 5.325088 -0.419151 1.655285 0
M  V30 10 N 5.275291 0.772897 1.036704 0
M  V30 11 C 4.373254 0.984921 0.063966 0
M  V30 12 C 4.303289 2.203072 -0.592316 0
M  V30 13 C 3.377093 2.452154 -1.612735 0
M  V30 14 C 2.501503 1.457480 -1.983045 0
M  V30 15 C 1.508578 1.578701 -3.016814 0
M  V30 16 C 0.686134 1.663766 -3.892359 0
M  V30 17 C -0.320172 1.742422 -4.968278 0
M  V30 18 N -1.660556 1.715229 -4.436881 0
M  V30 19 C -1.912620 0.530834 -3.699100 0
M  V30 20 O -0.849983 -0.179042 -3.726148 0
M  V30 21 C -3.135980 0.149228 -3.019124 0
M  V30 22 C -3.050078 -1.081722 -2.376703 0
M  V30 23 N -4.090572 -1.583379 -1.695749 0
M  V30 24 C -5.267200 -0.946243 -1.586901 0
M  V30 25 N -5.351965 0.233711 -2.201740 0
M  V30 26 C -6.591216 0.981319 -2.126366 0
M  V30 27 C -6.591548 1.880827 -0.942524 0
M  V30 28 C -7.090430 1.343048 0.235492 0
M  V30 29 C -7.160129 2.048354 1.437730 0
M  V30 30 C -6.689549 3.348476 1.380973 0
M  V30 31 F -6.740796 4.072906 2.544895 0
M  V30 32 C -6.184075 3.939136 0.248136 0
M  V30 33 F -5.748597 5.205063 0.282417 0
M  V30 34 C -6.143097 3.180110 -0.917184 0
M  V30 35 C -4.350436 0.787479 -2.896308 0
M  V30 36 O -4.386179 1.892592 -3.490316 0
M  V30 37 C 2.530059 0.228085 -1.361209 0
M  V30 38 C 3.454883 0.013229 -0.358800 0
M  V30 39 N 3.550824 -1.173877 0.302673 0
M  V30 40 C 2.182621 -3.767955 2.620651 0
M  V30 41 C 1.284103 -3.468000 3.823338 0
M  V30 42 H 1.667548 -5.247670 6.433111 0
M  V30 43 H 0.240043 -4.575341 5.575213 0
M  V30 44 H 1.003380 -3.589074 6.877245 0
M  V30 45 H 2.837424 -5.538880 4.409800 0
M  V30 46 H 3.622446 -4.775486 5.832685 0
M  V30 47 H 4.918851 -3.290031 4.540659 0
M  V30 48 H 4.801757 -4.762497 3.487218 0
M  V30 49 H 3.241314 -2.121457 3.392188 0
M  V30 50 H 4.778442 -4.751619 1.153731 0
M  V30 51 H 6.063582 -3.557834 0.940352 0
M  V30 52 H 4.659882 -3.500290 -0.161072 0
M  V30 53 H 5.978276 -0.754306 2.447444 0
M  V30 54 H 4.971425 3.000227 -0.326939 0
M  V30 55 H 3.302635 3.374212 -2.130647 0
M  V30 56 H -0.175902 0.953389 -5.703214 0
M  V30 57 H -0.157647 2.728198 -5.446714 0
M  V30 58 H -2.425131 2.418213 -4.521194 0
M  V30 59 H -2.163590 -1.720023 -2.371313 0
M  V30 60 H -6.111832 -1.339105 -1.041220 0
M  V30 61 H -6.702258 1.595263 -3.058391 0
M  V30 62 H -7.468251 0.298699 -2.124279 0
M  V30 63 H -7.461654 0.324219 0.288465 0
M  V30 64 H -7.557263 1.589549 2.333607 0
M  V30 65 H -5.756811 3.593437 -1.836369 0
M  V30 66 H 1.901281 -0.606829 -1.568995 0
M  V30 67 H 1.697588 -3.453503 1.677740 0
M  V30 68 H 2.294036 -4.868586 2.572224 0
M  V30 69 H 0.329589 -4.002843 3.767708 0
M  V30 70 H 1.061819 -2.360422 3.796815 0
M  V30 END ATOM
M  V30 BEGIN BOND
M  V30 1 1 1 2
M  V30 2 1 2 3
M  V30 3 1 3 4
M  V30 4 1 4 5
M  V30 5 1 5 6
M  V30 6 1 6 7
M  V30 7 1 6 8
M  V30 8 2 8 9
M  V30 9 1 9 10
M  V30 10 2 10 11
M  V30 11 1 11 12
M  V30 12 2 12 13
M  V30 13 1 13 14
M  V30 14 1 14 15
M  V30 15 3 15 16
M  V30 16 1 16 17
M  V30 17 1 17 18
M  V30 18 1 18 19
M  V30 19 2 19 20
M  V30 20 1 19 21
M  V30 21 2 21 22
M  V30 22 1 22 23
M  V30 23 2 23 24
M  V30 24 1 24 25
M  V30 25 1 25 26
M  V30 26 1 26 27
M  V30 27 2 27 28
M  V30 28 1 28 29
M  V30 29 2 29 30
M  V30 30 1 30 31
M  V30 31 1 30 32
M  V30 32 1 32 33
M  V30 33 2 32 34
M  V30 34 1 25 35
M  V30 35 2 35 36
M  V30 36 2 14 37
M  V30 37 1 37 38
M  V30 38 2 38 39
M  V30 39 1 5 40
M  V30 40 1 40 41
M  V30 41 1 41 2
M  V30 42 1 39 8
M  V30 43 1 38 11
M  V30 44 1 35 21
M  V30 45 1 34 27
M  V30 46 1 1 42
M  V30 47 1 1 43
M  V30 48 1 1 44
M  V30 49 1 3 45
M  V30 50 1 3 46
M  V30 51 1 4 47
M  V30 52 1 4 48
M  V30 53 1 5 49
M  V30 54 1 7 50
M  V30 55 1 7 51
M  V30 56 1 7 52
M  V30 57 1 9 53
M  V30 58 1 12 54
M  V30 59 1 13 55
M  V30 60 1 17 56
M  V30 61 1 17 57
M  V30 62 1 18 58
M  V30 63 1 22 59
M  V30 64 1 24 60
M  V30 65 1 26 61
M  V30 66 1 26 62
M  V30 67 1 28 63
M  V30 68 1 29 64
M  V30 69 1 34 65
M  V30 70 1 37 66
M  V30 71 1 40 67
M  V30 72 1 40 68
M  V30 73 1 41 69
M  V30 74 1 41 70
M  V30 END BOND
M  V30 END CTAB
M  END
>  <Dataset>  (814) 
ChEMBL_Kinases

>  <Ligand_Instance>  (814) 
nan

>  <PDB_ID>  (814) 
nan

>  <Standardized_SMILES>  (814) 
CN1CCC(N(C)c2cnc3ccc(C#CCNC(=O)c4cncn(Cc5ccc(F)c(F)c5)c4=O)cc3n2)CC1

>  <Name>  (814) 
nan

>  <Pocket>  (814) 
nan

>  <ATP_Site>  (814) 
nan

>  <Peripheral>  (814) 
nan

>  <Num_H_Atoms_ProtBoundConf>  (814) 
nan

>  <Num_Resolved_Atoms>  (814) 
nan

>  <Num_Not_Resolved_Atoms>  (814) 
nan

$$$$
CHEMBL3689200
     RDKit          3D

  0  0  0  0  0  0  0  0  0  0999 V3000
M  V30 BEGIN CTAB
M  V30 COUNTS 71 76 0 0 0
M  V30 BEGIN ATOM
M  V30 1 O 4.167883 -2.730981 4.869971 0
M  V30 2 C 3.166817 -2.756315 4.107085 0
M  V30 3 N 3.431440 -2.047547 2.913863 0
M  V30 4 C 4.725947 -1.391630 2.666992 0
M  V30 5 C 4.674161 -0.736141 1.334651 0
M  V30 6 C 4.611162 -0.203163 0.257024 0
M  V30 7 C 4.516023 0.417314 -1.031035 0
M  V30 8 C 5.577762 0.637780 -1.882161 0
M  V30 9 C 5.351669 1.241230 -3.100294 0
M  V30 10 C 4.107762 1.645458 -3.528864 0
M  V30 11 N 3.813901 2.230500 -4.693337 0
M  V30 12 C 2.565991 2.583186 -5.018311 0
M  V30 13 C 1.496258 2.360237 -4.158270 0
M  V30 14 N 0.130879 2.682836 -4.402831 0
M  V30 15 C -0.865655 2.414732 -3.416526 0
M  V30 16 C -0.975098 0.950327 -2.957611 0
M  V30 17 C -2.449445 1.317824 -2.728526 0
M  V30 18 N -3.359180 0.219703 -2.833713 0
M  V30 19 C -3.100332 -0.832221 -1.882573 0
M  V30 20 C -4.361484 -1.050685 -1.075443 0
M  V30 21 C -5.128764 0.234487 -1.231382 0
M  V30 22 C -4.694251 0.725542 -2.582556 0
M  V30 23 C -2.274997 2.173909 -3.985226 0
M  V30 24 N 1.833374 1.770010 -2.997611 0
M  V30 25 C 3.065855 1.408792 -2.649382 0
M  V30 26 C 3.247777 0.809221 -1.423322 0
M  V30 27 C 1.931733 -3.436082 4.454895 0
M  V30 28 C 1.923989 -4.066603 5.705516 0
M  V30 29 N 0.836515 -4.727302 6.140063 0
M  V30 30 C -0.289569 -4.816571 5.403444 0
M  V30 31 N -0.308697 -4.220585 4.199669 0
M  V30 32 C -1.504062 -4.295706 3.383325 0
M  V30 33 C -2.369568 -3.135871 3.720718 0
M  V30 34 C -2.361869 -1.919708 3.071308 0
M  V30 35 C -3.175991 -0.862066 3.412575 0
M  V30 36 C -4.061576 -0.997768 4.460605 0
M  V30 37 F -4.818597 0.088771 4.725254 0
M  V30 38 C -4.105313 -2.192498 5.139236 0
M  V30 39 F -4.965007 -2.310876 6.151258 0
M  V30 40 C -3.268386 -3.246606 4.771133 0
M  V30 41 C 0.752403 -3.567062 3.757847 0
M  V30 42 O 0.735431 -3.016474 2.645000 0
M  V30 43 H 2.695127 -1.982890 2.184083 0
M  V30 44 H 4.824565 -0.617356 3.458599 0
M  V30 45 H 5.530020 -2.123453 2.651410 0
M  V30 46 H 6.552363 0.320954 -1.546962 0
M  V30 47 H 6.185406 1.423032 -3.785546 0
M  V30 48 H 2.316930 3.059314 -5.962250 0
M  V30 49 H -0.019375 3.121733 -5.360948 0
M  V30 50 H -0.946051 3.146177 -2.577785 0
M  V30 51 H -0.408482 0.690738 -2.066104 0
M  V30 52 H -0.822061 0.314984 -3.867701 0
M  V30 53 H -2.531137 1.972573 -1.859694 0
M  V30 54 H -2.864289 -1.758522 -2.441212 0
M  V30 55 H -2.298570 -0.593771 -1.175762 0
M  V30 56 H -4.943619 -1.926597 -1.400148 0
M  V30 57 H -4.127768 -1.160881 0.012954 0
M  V30 58 H -4.901521 0.936691 -0.420740 0
M  V30 59 H -6.211284 -0.009680 -1.170759 0
M  V30 60 H -4.722365 1.848054 -2.530059 0
M  V30 61 H -5.418971 0.437292 -3.370327 0
M  V30 62 H -2.897633 3.064678 -4.053705 0
M  V30 63 H -2.216630 1.511435 -4.860379 0
M  V30 64 H 2.367949 0.655628 -0.780967 0
M  V30 65 H 2.750693 -4.075048 6.393238 0
M  V30 66 H -1.162821 -5.344236 5.744891 0
M  V30 67 H -2.037397 -5.246901 3.613479 0
M  V30 68 H -1.171768 -4.261078 2.322582 0
M  V30 69 H -1.677851 -1.791334 2.244152 0
M  V30 70 H -3.087681 0.062739 2.826144 0
M  V30 71 H -3.345398 -4.155104 5.336662 0
M  V30 END ATOM
M  V30 BEGIN BOND
M  V30 1 2 1 2
M  V30 2 1 2 3
M  V30 3 1 3 4
M  V30 4 1 4 5
M  V30 5 3 5 6
M  V30 6 1 6 7
M  V30 7 2 7 8
M  V30 8 1 8 9
M  V30 9 2 9 10
M  V30 10 1 10 11
M  V30 11 2 11 12
M  V30 12 1 12 13
M  V30 13 1 13 14
M  V30 14 1 14 15
M  V30 15 1 15 16
M  V30 16 1 16 17
M  V30 17 1 17 18
M  V30 18 1 18 19
M  V30 19 1 19 20
M  V30 20 1 20 21
M  V30 21 1 21 22
M  V30 22 1 17 23
M  V30 23 2 13 24
M  V30 24 1 24 25
M  V30 25 2 25 26
M  V30 26 1 2 27
M  V30 27 2 27 28
M  V30 28 1 28 29
M  V30 29 2 29 30
M  V30 30 1 30 31
M  V30 31 1 31 32
M  V30 32 1 32 33
M  V30 33 2 33 34
M  V30 34 1 34 35
M  V30 35 2 35 36
M  V30 36 1 36 37
M  V30 37 1 36 38
M  V30 38 1 38 39
M  V30 39 2 38 40
M  V30 40 1 31 41
M  V30 41 2 41 42
M  V30 42 1 26 7
M  V30 43 1 41 27
M  V30 44 1 25 10
M  V30 45 1 40 33
M  V30 46 1 23 15
M  V30 47 1 22 18
M  V30 48 1 3 43
M  V30 49 1 4 44
M  V30 50 1 4 45
M  V30 51 1 8 46
M  V30 52 1 9 47
M  V30 53 1 12 48
M  V30 54 1 14 49
M  V30 55 1 15 50
M  V30 56 1 16 51
M  V30 57 1 16 52
M  V30 58 1 17 53
M  V30 59 1 19 54
M  V30 60 1 19 55
M  V30 61 1 20 56
M  V30 62 1 20 57
M  V30 63 1 21 58
M  V30 64 1 21 59
M  V30 65 1 22 60
M  V30 66 1 22 61
M  V30 67 1 23 62
M  V30 68 1 23 63
M  V30 69 1 26 64
M  V30 70 1 28 65
M  V30 71 1 30 66
M  V30 72 1 32 67
M  V30 73 1 32 68
M  V30 74 1 34 69
M  V30 75 1 35 70
M  V30 76 1 40 71
M  V30 END BOND
M  V30 END CTAB
M  END
>  <Dataset>  (815) 
ChEMBL_Kinases

>  <Ligand_Instance>  (815) 
nan

>  <PDB_ID>  (815) 
nan

>  <Standardized_SMILES>  (815) 
O=C(NCC#Cc1ccc2ncc(NC3CC(N4CCCC4)C3)nc2c1)c1cncn(Cc2ccc(F)c(F)c2)c1=O

>  <Name>  (815) 
nan

>  <Pocket>  (815) 
nan

>  <ATP_Site>  (815) 
nan

>  <Peripheral>  (815) 
nan

>  <Num_H_Atoms_ProtBoundConf>  (815) 
nan

>  <Num_Resolved_Atoms>  (815) 
nan

>  <Num_Not_Resolved_Atoms>  (815) 
nan

$$$$
CHEMBL3689201
     RDKit          3D

  0  0  0  0  0  0  0  0  0  0999 V3000
M  V30 BEGIN CTAB
M  V30 COUNTS 71 75 0 0 0
M  V30 BEGIN ATOM
M  V30 1 C 3.802854 2.255052 4.651191 0
M  V30 2 C 2.573664 1.416771 4.301196 0 CFG=2
M  V30 3 C 3.083484 0.216546 3.590618 0
M  V30 4 C 4.265085 -0.432522 3.884028 0
M  V30 5 C 4.679132 -1.540907 3.179853 0
M  V30 6 C 3.944502 -2.068598 2.144249 0
M  V30 7 F 4.378787 -3.161296 1.472893 0
M  V30 8 C 2.762047 -1.438048 1.832445 0
M  V30 9 F 2.068943 -1.991532 0.808757 0
M  V30 10 C 2.358804 -0.320959 2.552571 0
M  V30 11 N 1.645125 2.184321 3.531421 0
M  V30 12 C 1.906171 3.248391 2.720910 0
M  V30 13 C 0.777965 3.782971 2.098198 0
M  V30 14 C -0.500892 3.177256 2.365421 0
M  V30 15 C -0.836676 1.998962 3.254502 0
M  V30 16 C -2.175176 2.192728 2.868387 0
M  V30 17 O -2.231977 1.127806 3.578593 0
M  V30 18 N -3.239804 2.783088 2.267521 0
M  V30 19 C -4.501807 2.059087 2.505018 0
M  V30 20 C -4.382896 0.681492 1.954665 0
M  V30 21 C -4.289066 -0.434725 1.493862 0
M  V30 22 C -4.188882 -1.751003 0.923133 0
M  V30 23 C -4.891825 -2.844068 1.383239 0
M  V30 24 C -4.711848 -4.037477 0.715504 0
M  V30 25 C -3.868067 -4.166316 -0.375801 0
M  V30 26 N -3.710180 -5.324311 -1.029617 0
M  V30 27 C -2.914042 -5.476282 -2.095871 0
M  V30 28 C -2.201370 -4.389526 -2.568746 0
M  V30 29 N -1.332536 -4.328478 -3.703032 0
M  V30 30 C -0.496804 -3.304983 -4.282258 0
M  V30 31 C -1.291327 -2.040717 -4.432546 0
M  V30 32 C -0.385356 -0.983025 -5.025968 0
M  V30 33 N 0.720621 -0.735706 -4.180423 0
M  V30 34 C 0.604580 0.369982 -3.285544 0
M  V30 35 C 1.501248 -1.837873 -3.754854 0
M  V30 36 C 0.854446 -3.166728 -3.696005 0
M  V30 37 N -2.374632 -3.237474 -1.895655 0
M  V30 38 C -3.171949 -3.080189 -0.828196 0
M  V30 39 C -3.351152 -1.886463 -0.160769 0
M  V30 40 C 0.396369 1.821049 3.609789 0
M  V30 41 O -0.005648 0.824549 4.347335 0
M  V30 42 H 4.228126 1.950429 5.627558 0
M  V30 43 H 4.602635 2.128385 3.860482 0
M  V30 44 H 3.581945 3.334406 4.701656 0
M  V30 45 H 2.124395 1.101944 5.250501 0
M  V30 46 H 4.873665 -0.042452 4.695571 0
M  V30 47 H 5.613193 -2.047032 3.418962 0
M  V30 48 H 1.426618 0.053938 2.183073 0
M  V30 49 H 2.948554 3.438604 2.748637 0
M  V30 50 H 1.216264 4.608440 1.509713 0
M  V30 51 H -0.976698 3.950137 1.663628 0
M  V30 52 H -2.830951 3.607467 1.800572 0
M  V30 53 H -5.271251 2.556759 1.886626 0
M  V30 54 H -4.727274 1.982037 3.562958 0
M  V30 55 H -5.540028 -2.707635 2.235548 0
M  V30 56 H -5.247220 -4.908961 1.052659 0
M  V30 57 H -2.764873 -6.392580 -2.647744 0
M  V30 58 H -1.371148 -5.293546 -4.163393 0
M  V30 59 H -0.321280 -3.672742 -5.357327 0
M  V30 60 H -2.166763 -2.168637 -5.097384 0
M  V30 61 H -1.661408 -1.639261 -3.479169 0
M  V30 62 H -1.007791 -0.041410 -5.049741 0
M  V30 63 H -0.115971 -1.180867 -6.087171 0
M  V30 64 H 1.191665 1.217966 -3.742413 0
M  V30 65 H -0.435317 0.735377 -3.176312 0
M  V30 66 H 1.033787 0.165323 -2.284012 0
M  V30 67 H 2.040273 -1.633880 -2.779320 0
M  V30 68 H 2.365313 -1.906510 -4.485201 0
M  V30 69 H 1.534382 -3.949817 -4.151099 0
M  V30 70 H 0.815206 -3.493295 -2.611968 0
M  V30 71 H -2.790690 -1.042860 -0.536306 0
M  V30 END ATOM
M  V30 BEGIN BOND
M  V30 1 1 1 2
M  V30 2 1 2 3
M  V30 3 2 3 4
M  V30 4 1 4 5
M  V30 5 2 5 6
M  V30 6 1 6 7
M  V30 7 1 6 8
M  V30 8 1 8 9
M  V30 9 2 8 10
M  V30 10 1 2 11
M  V30 11 1 11 12
M  V30 12 2 12 13
M  V30 13 1 13 14
M  V30 14 2 14 15
M  V30 15 1 15 16
M  V30 16 2 16 17
M  V30 17 1 16 18
M  V30 18 1 18 19
M  V30 19 1 19 20
M  V30 20 3 20 21
M  V30 21 1 21 22
M  V30 22 2 22 23
M  V30 23 1 23 24
M  V30 24 2 24 25
M  V30 25 1 25 26
M  V30 26 2 26 27
M  V30 27 1 27 28
M  V30 28 1 28 29
M  V30 29 1 29 30
M  V30 30 1 30 31
M  V30 31 1 31 32
M  V30 32 1 32 33
M  V30 33 1 33 34
M  V30 34 1 33 35
M  V30 35 1 35 36
M  V30 36 2 28 37
M  V30 37 1 37 38
M  V30 38 2 38 39
M  V30 39 1 15 40
M  V30 40 2 40 41
M  V30 41 1 10 3
M  V30 42 1 40 11
M  V30 43 1 39 22
M  V30 44 1 38 25
M  V30 45 1 36 30
M  V30 46 1 1 42
M  V30 47 1 1 43
M  V30 48 1 1 44
M  V30 49 1 2 45 CFG=1
M  V30 50 1 4 46
M  V30 51 1 5 47
M  V30 52 1 10 48
M  V30 53 1 12 49
M  V30 54 1 13 50
M  V30 55 1 14 51
M  V30 56 1 18 52
M  V30 57 1 19 53
M  V30 58 1 19 54
M  V30 59 1 23 55
M  V30 60 1 24 56
M  V30 61 1 27 57
M  V30 62 1 29 58
M  V30 63 1 30 59
M  V30 64 1 31 60
M  V30 65 1 31 61
M  V30 66 1 32 62
M  V30 67 1 32 63
M  V30 68 1 34 64
M  V30 69 1 34 65
M  V30 70 1 34 66
M  V30 71 1 35 67
M  V30 72 1 35 68
M  V30 73 1 36 69
M  V30 74 1 36 70
M  V30 75 1 39 71
M  V30 END BOND
M  V30 END CTAB
M  END
>  <Dataset>  (816) 
ChEMBL_Kinases

>  <Ligand_Instance>  (816) 
nan

>  <PDB_ID>  (816) 
nan

>  <Standardized_SMILES>  (816) 
C[C@H](c1ccc(F)c(F)c1)n1cccc(C(=O)NCC#Cc2ccc3ncc(NC4CCN(C)CC4)nc3c2)c1=O

>  <Name>  (816) 
nan

>  <Pocket>  (816) 
nan

>  <ATP_Site>  (816) 
nan

>  <Peripheral>  (816) 
nan

>  <Num_H_Atoms_ProtBoundConf>  (816) 
nan

>  <Num_Resolved_Atoms>  (816) 
nan

>  <Num_Not_Resolved_Atoms>  (816) 
nan

$$$$
CHEMBL3689202
     RDKit          3D

  0  0  0  0  0  0  0  0  0  0999 V3000
M  V30 BEGIN CTAB
M  V30 COUNTS 68 72 0 0 0
M  V30 BEGIN ATOM
M  V30 1 C 3.354637 -3.747531 5.372963 0
M  V30 2 N 3.877997 -2.684119 4.534929 0
M  V30 3 C 3.056574 -2.638879 3.342321 0
M  V30 4 C 3.640850 -1.796817 2.273403 0
M  V30 5 C 4.963982 -1.175325 2.496730 0
M  V30 6 N 5.773466 -1.178039 1.249407 0
M  V30 7 C 5.315968 -0.468611 0.086728 0
M  V30 8 C 5.986477 -0.411074 -1.135203 0
M  V30 9 N 5.431598 0.312692 -2.150051 0
M  V30 10 C 4.270124 0.968927 -2.014377 0
M  V30 11 C 3.656914 1.717607 -2.991168 0
M  V30 12 C 2.447035 2.375486 -2.777853 0
M  V30 13 C 1.810398 2.298407 -1.559995 0
M  V30 14 C 0.573485 2.925344 -1.196467 0
M  V30 15 C -0.460963 3.455098 -0.876038 0
M  V30 16 C -1.720568 4.094628 -0.460730 0
M  V30 17 N -2.476783 3.175096 0.416687 0
M  V30 18 C -2.800074 2.002475 -0.192698 0
M  V30 19 O -2.490846 1.707348 -1.409915 0
M  V30 20 C -3.346429 0.720390 -0.331868 0
M  V30 21 C -3.841448 0.853348 1.077767 0
M  V30 22 C -4.594548 -0.078350 1.877488 0
M  V30 23 C -4.934030 -1.313894 1.274392 0
M  V30 24 N -4.500692 -1.473141 -0.010675 0
M  V30 25 C -4.700097 -2.631113 -0.837338 0
M  V30 26 C -5.955381 -2.502984 -1.619130 0
M  V30 27 C -7.208142 -2.839717 -1.139446 0
M  V30 28 C -8.390806 -2.750325 -1.825656 0
M  V30 29 C -8.316252 -2.271650 -3.138983 0
M  V30 30 F -9.460465 -2.164675 -3.864350 0
M  V30 31 C -7.119929 -1.909862 -3.709339 0
M  V30 32 F -7.027412 -1.441164 -4.985527 0
M  V30 33 C -5.989146 -2.043155 -2.917880 0
M  V30 34 C -3.852682 -0.461266 -0.453037 0
M  V30 35 O -3.379677 -0.485147 -1.679719 0
M  V30 36 C 2.403024 1.551133 -0.553344 0
M  V30 37 C 3.601337 0.917681 -0.811298 0
M  V30 38 N 4.156595 0.200667 0.182137 0
M  V30 39 C 5.807450 -1.679379 3.619948 0
M  V30 40 C 5.260798 -2.967684 4.153517 0
M  V30 41 H 4.052094 -4.026301 6.187547 0
M  V30 42 H 2.372455 -3.447718 5.755677 0
M  V30 43 H 3.231749 -4.632264 4.679606 0
M  V30 44 H 2.885056 -3.682729 2.949221 0
M  V30 45 H 2.077299 -2.222768 3.676675 0
M  V30 46 H 3.738018 -2.419911 1.330935 0
M  V30 47 H 2.902555 -0.986918 2.004713 0
M  V30 48 H 4.750243 -0.082312 2.752160 0
M  V30 49 H 6.703715 -1.660858 1.079427 0
M  V30 50 H 6.914009 -0.952059 -1.200491 0
M  V30 51 H 4.142293 1.788180 -3.950992 0
M  V30 52 H 1.950543 2.966199 -3.521651 0
M  V30 53 H -1.465118 4.994289 0.102935 0
M  V30 54 H -2.303058 4.311031 -1.350353 0
M  V30 55 H -2.876484 3.071320 1.366777 0
M  V30 56 H -3.863107 1.570071 1.967573 0
M  V30 57 H -5.041607 -0.191981 2.876348 0
M  V30 58 H -5.472256 -2.178079 1.613133 0
M  V30 59 H -4.701365 -3.539156 -0.185295 0
M  V30 60 H -3.841324 -2.735421 -1.546835 0
M  V30 61 H -7.282653 -3.212780 -0.118534 0
M  V30 62 H -9.324832 -3.043095 -1.353807 0
M  V30 63 H -5.066021 -1.751685 -3.403589 0
M  V30 64 H 1.967030 1.442325 0.423161 0
M  V30 65 H 5.927602 -0.917640 4.434870 0
M  V30 66 H 6.860939 -1.805414 3.235807 0
M  V30 67 H 5.802962 -3.265448 5.051426 0
M  V30 68 H 5.319704 -3.732170 3.361989 0
M  V30 END ATOM
M  V30 BEGIN BOND
M  V30 1 1 1 2
M  V30 2 1 2 3
M  V30 3 1 3 4
M  V30 4 1 4 5
M  V30 5 1 5 6
M  V30 6 1 6 7
M  V30 7 2 7 8
M  V30 8 1 8 9
M  V30 9 2 9 10
M  V30 10 1 10 11
M  V30 11 2 11 12
M  V30 12 1 12 13
M  V30 13 1 13 14
M  V30 14 3 14 15
M  V30 15 1 15 16
M  V30 16 1 16 17
M  V30 17 1 17 18
M  V30 18 2 18 19
M  V30 19 1 18 20
M  V30 20 2 20 21
M  V30 21 1 21 22
M  V30 22 2 22 23
M  V30 23 1 23 24
M  V30 24 1 24 25
M  V30 25 1 25 26
M  V30 26 2 26 27
M  V30 27 1 27 28
M  V30 28 2 28 29
M  V30 29 1 29 30
M  V30 30 1 29 31
M  V30 31 1 31 32
M  V30 32 2 31 33
M  V30 33 1 24 34
M  V30 34 2 34 35
M  V30 35 2 13 36
M  V30 36 1 36 37
M  V30 37 2 37 38
M  V30 38 1 5 39
M  V30 39 1 39 40
M  V30 40 1 40 2
M  V30 41 1 38 7
M  V30 42 1 37 10
M  V30 43 1 34 20
M  V30 44 1 33 26
M  V30 45 1 1 41
M  V30 46 1 1 42
M  V30 47 1 1 43
M  V30 48 1 3 44
M  V30 49 1 3 45
M  V30 50 1 4 46
M  V30 51 1 4 47
M  V30 52 1 5 48
M  V30 53 1 6 49
M  V30 54 1 8 50
M  V30 55 1 11 51
M  V30 56 1 12 52
M  V30 57 1 16 53
M  V30 58 1 16 54
M  V30 59 1 17 55
M  V30 60 1 21 56
M  V30 61 1 22 57
M  V30 62 1 23 58
M  V30 63 1 25 59
M  V30 64 1 25 60
M  V30 65 1 27 61
M  V30 66 1 28 62
M  V30 67 1 33 63
M  V30 68 1 36 64
M  V30 69 1 39 65
M  V30 70 1 39 66
M  V30 71 1 40 67
M  V30 72 1 40 68
M  V30 END BOND
M  V30 END CTAB
M  END
>  <Dataset>  (817) 
ChEMBL_Kinases

>  <Ligand_Instance>  (817) 
nan

>  <PDB_ID>  (817) 
nan

>  <Standardized_SMILES>  (817) 
CN1CCC(Nc2cnc3ccc(C#CCNC(=O)c4cccn(Cc5ccc(F)c(F)c5)c4=O)cc3n2)CC1

>  <Name>  (817) 
nan

>  <Pocket>  (817) 
nan

>  <ATP_Site>  (817) 
nan

>  <Peripheral>  (817) 
nan

>  <Num_H_Atoms_ProtBoundConf>  (817) 
nan

>  <Num_Resolved_Atoms>  (817) 
nan

>  <Num_Not_Resolved_Atoms>  (817) 
nan

$$$$
CHEMBL3689203
     RDKit          3D

  0  0  0  0  0  0  0  0  0  0999 V3000
M  V30 BEGIN CTAB
M  V30 COUNTS 72 76 0 0 0
M  V30 BEGIN ATOM
M  V30 1 C 4.161724 -1.569980 4.268636 0
M  V30 2 N 4.213158 -0.424212 3.348990 0
M  V30 3 C 5.457421 0.271710 3.619526 0
M  V30 4 C 5.716474 1.329831 2.607525 0
M  V30 5 C 4.630734 1.507651 1.584407 0
M  V30 6 N 5.081209 2.351586 0.471364 0
M  V30 7 C 4.238497 2.677643 -0.629568 0
M  V30 8 C 4.729724 3.484828 -1.655177 0
M  V30 9 N 3.938983 3.799397 -2.701198 0
M  V30 10 C 2.664084 3.358416 -2.803290 0
M  V30 11 C 1.930012 3.732158 -3.909878 0
M  V30 12 C 0.621564 3.273334 -4.003245 0
M  V30 13 C 0.121985 2.470454 -2.990332 0
M  V30 14 C -1.245502 2.025671 -3.148353 0
M  V30 15 C -2.386718 1.648920 -3.270033 0
M  V30 16 C -3.782986 1.202270 -3.413060 0
M  V30 17 N -4.067138 0.103091 -2.486219 0
M  V30 18 C -3.237461 -1.028461 -2.707818 0
M  V30 19 O -2.458440 -0.753881 -3.680849 0
M  V30 20 C -3.222684 -2.279705 -2.007240 0
M  V30 21 C -2.274835 -3.196379 -2.476358 0
M  V30 22 C -2.135471 -4.440948 -1.910598 0
M  V30 23 C -2.950379 -4.778153 -0.863873 0
M  V30 24 N -3.868298 -3.912664 -0.397265 0
M  V30 25 C -4.668560 -4.353754 0.693956 0 CFG=2
M  V30 26 C -6.166576 -4.339012 0.362188 0
M  V30 27 O -6.797053 -4.789604 1.513933 0
M  V30 28 C -4.525640 -3.500279 1.898888 0
M  V30 29 C -5.322586 -2.504537 2.374223 0
M  V30 30 C -4.988725 -1.827600 3.529454 0
M  V30 31 C -3.836141 -2.134643 4.244584 0
M  V30 32 C -3.025061 -3.126272 3.787723 0
M  V30 33 C -3.367089 -3.805331 2.622313 0
M  V30 34 C -3.984403 -2.706804 -0.965054 0
M  V30 35 O -4.825355 -1.904354 -0.542874 0
M  V30 36 C 0.866760 2.100320 -1.882660 0
M  V30 37 C 2.168758 2.548548 -1.775692 0
M  V30 38 N 2.978834 2.246238 -0.737342 0
M  V30 39 C 4.013585 0.243311 1.089492 0
M  V30 40 C 4.344943 -0.918893 1.973358 0
M  V30 41 H 3.129114 -1.804580 4.573262 0
M  V30 42 H 4.804277 -1.377053 5.157736 0
M  V30 43 H 4.534368 -2.471605 3.712755 0
M  V30 44 H 6.311270 -0.436198 3.690596 0
M  V30 45 H 5.349604 0.740784 4.614398 0
M  V30 46 H 5.870311 2.311392 3.103281 0
M  V30 47 H 6.654579 1.145309 2.044356 0
M  V30 48 H 3.831863 2.104425 2.087262 0
M  V30 49 H 6.039652 2.707483 0.509243 0
M  V30 50 H 5.761965 3.851125 -1.588463 0
M  V30 51 H 2.402705 4.363034 -4.653179 0
M  V30 52 H 0.072625 3.579105 -4.874777 0
M  V30 53 H -4.514060 1.988703 -3.161555 0
M  V30 54 H -3.907567 0.897146 -4.471391 0
M  V30 55 H -4.768084 0.040961 -1.716568 0
M  V30 56 H -1.602018 -2.962813 -3.315405 0
M  V30 57 H -1.393389 -5.123307 -2.297491 0
M  V30 58 H -2.801074 -5.776984 -0.449561 0
M  V30 59 H -4.470485 -5.412515 0.984193 0
M  V30 60 H -6.376063 -5.061731 -0.467456 0
M  V30 61 H -6.537306 -3.362036 0.064272 0
M  V30 62 H -7.752898 -5.002544 1.374001 0
M  V30 63 H -6.192899 -2.320372 1.781344 0
M  V30 64 H -5.712764 -1.055395 3.796906 0
M  V30 65 H -3.639310 -1.572865 5.127299 0
M  V30 66 H -2.136624 -3.351635 4.353056 0
M  V30 67 H -2.643741 -4.579077 2.351206 0
M  V30 68 H 0.454756 1.471801 -1.103066 0
M  V30 69 H 2.902259 0.369139 0.988342 0
M  V30 70 H 4.399718 0.053318 0.046207 0
M  V30 71 H 3.659389 -1.759642 1.770659 0
M  V30 72 H 5.410750 -1.191415 1.806588 0
M  V30 END ATOM
M  V30 BEGIN BOND
M  V30 1 1 1 2
M  V30 2 1 2 3
M  V30 3 1 3 4
M  V30 4 1 4 5
M  V30 5 1 5 6
M  V30 6 1 6 7
M  V30 7 2 7 8
M  V30 8 1 8 9
M  V30 9 2 9 10
M  V30 10 1 10 11
M  V30 11 2 11 12
M  V30 12 1 12 13
M  V30 13 1 13 14
M  V30 14 3 14 15
M  V30 15 1 15 16
M  V30 16 1 16 17
M  V30 17 1 17 18
M  V30 18 2 18 19
M  V30 19 1 18 20
M  V30 20 2 20 21
M  V30 21 1 21 22
M  V30 22 2 22 23
M  V30 23 1 23 24
M  V30 24 1 24 25
M  V30 25 1 25 26
M  V30 26 1 26 27
M  V30 27 1 25 28
M  V30 28 2 28 29
M  V30 29 1 29 30
M  V30 30 2 30 31
M  V30 31 1 31 32
M  V30 32 2 32 33
M  V30 33 1 24 34
M  V30 34 2 34 35
M  V30 35 2 13 36
M  V30 36 1 36 37
M  V30 37 2 37 38
M  V30 38 1 5 39
M  V30 39 1 39 40
M  V30 40 1 40 2
M  V30 41 1 38 7
M  V30 42 1 37 10
M  V30 43 1 34 20
M  V30 44 1 33 28
M  V30 45 1 1 41
M  V30 46 1 1 42
M  V30 47 1 1 43
M  V30 48 1 3 44
M  V30 49 1 3 45
M  V30 50 1 4 46
M  V30 51 1 4 47
M  V30 52 1 5 48
M  V30 53 1 6 49
M  V30 54 1 8 50
M  V30 55 1 11 51
M  V30 56 1 12 52
M  V30 57 1 16 53
M  V30 58 1 16 54
M  V30 59 1 17 55
M  V30 60 1 21 56
M  V30 61 1 22 57
M  V30 62 1 23 58
M  V30 63 1 25 59 CFG=1
M  V30 64 1 26 60
M  V30 65 1 26 61
M  V30 66 1 27 62
M  V30 67 1 29 63
M  V30 68 1 30 64
M  V30 69 1 31 65
M  V30 70 1 32 66
M  V30 71 1 33 67
M  V30 72 1 36 68
M  V30 73 1 39 69
M  V30 74 1 39 70
M  V30 75 1 40 71
M  V30 76 1 40 72
M  V30 END BOND
M  V30 END CTAB
M  END
>  <Dataset>  (818) 
ChEMBL_Kinases

>  <Ligand_Instance>  (818) 
nan

>  <PDB_ID>  (818) 
nan

>  <Standardized_SMILES>  (818) 
CN1CCC(Nc2cnc3ccc(C#CCNC(=O)c4cccn([C@H](CO)c5ccccc5)c4=O)cc3n2)CC1

>  <Name>  (818) 
nan

>  <Pocket>  (818) 
nan

>  <ATP_Site>  (818) 
nan

>  <Peripheral>  (818) 
nan

>  <Num_H_Atoms_ProtBoundConf>  (818) 
nan

>  <Num_Resolved_Atoms>  (818) 
nan

>  <Num_Not_Resolved_Atoms>  (818) 
nan

$$$$
CHEMBL3689204
     RDKit          3D

  0  0  0  0  0  0  0  0  0  0999 V3000
M  V30 BEGIN CTAB
M  V30 COUNTS 67 71 0 0 0
M  V30 BEGIN ATOM
M  V30 1 N 2.203573 -1.564958 4.866443 0
M  V30 2 C 3.435822 -1.841008 4.152783 0 CFG=1
M  V30 3 C 3.097768 -2.026949 2.704922 0
M  V30 4 C 4.290211 -2.292372 1.850735 0
M  V30 5 C 5.486523 -1.456918 2.252255 0 CFG=1
M  V30 6 N 6.282771 -1.083743 1.101985 0
M  V30 7 C 5.784097 -0.314397 0.013240 0
M  V30 8 C 6.534042 0.048768 -1.092965 0
M  V30 9 N 6.031785 0.778097 -2.106483 0
M  V30 10 C 4.748316 1.191315 -2.079899 0
M  V30 11 C 4.133617 1.941365 -3.063169 0
M  V30 12 C 2.807290 2.313305 -2.936301 0
M  V30 13 C 2.051830 1.951734 -1.829633 0
M  V30 14 C 0.668254 2.338198 -1.694234 0
M  V30 15 C -0.498595 2.651016 -1.596937 0
M  V30 16 C -1.928824 3.013237 -1.490877 0
M  V30 17 N -2.664185 1.960780 -0.772597 0
M  V30 18 C -2.531056 0.746870 -1.495418 0
M  V30 19 O -1.814287 0.978340 -2.530950 0
M  V30 20 C -3.088913 -0.551623 -1.161462 0
M  V30 21 C -2.771566 -1.555066 -2.087588 0
M  V30 22 N -3.207167 -2.812262 -1.930020 0
M  V30 23 C -3.956101 -3.179578 -0.900700 0
M  V30 24 N -4.274569 -2.236990 0.001472 0
M  V30 25 C -5.080860 -2.579246 1.131941 0
M  V30 26 C -6.509607 -2.401796 0.824984 0
M  V30 27 C -7.154451 -3.506824 0.292872 0
M  V30 28 C -8.490127 -3.492812 -0.044121 0
M  V30 29 C -9.241105 -2.353256 0.142408 0
M  V30 30 F -10.568809 -2.277402 -0.171995 0
M  V30 31 C -8.618351 -1.241428 0.671131 0
M  V30 32 F -9.338332 -0.109331 0.863096 0
M  V30 33 C -7.283798 -1.274189 1.001618 0
M  V30 34 C -3.862003 -0.972220 -0.116410 0
M  V30 35 O -4.133390 -0.065721 0.696251 0
M  V30 36 C 2.632220 1.206272 -0.834001 0
M  V30 37 C 3.963976 0.853155 -0.998103 0
M  V30 38 N 4.517909 0.122322 -0.012948 0
M  V30 39 C 4.956664 -0.248203 2.990465 0
M  V30 40 C 4.440152 -0.740447 4.327229 0
M  V30 41 H 2.305133 -0.622461 5.343218 0
M  V30 42 H 2.015295 -2.241982 5.639297 0
M  V30 43 H 3.818027 -2.789833 4.559469 0
M  V30 44 H 2.392711 -2.883231 2.622479 0
M  V30 45 H 2.555784 -1.125993 2.312295 0
M  V30 46 H 4.062813 -2.074246 0.774530 0
M  V30 47 H 4.601483 -3.351230 1.862567 0
M  V30 48 H 6.131020 -2.077157 2.908279 0
M  V30 49 H 7.303731 -1.369580 1.005749 0
M  V30 50 H 7.572610 -0.273480 -1.136453 0
M  V30 51 H 4.729066 2.219797 -3.923663 0
M  V30 52 H 2.319643 2.906343 -3.712863 0
M  V30 53 H -2.312893 3.185620 -2.494176 0
M  V30 54 H -1.975439 3.933593 -0.873298 0
M  V30 55 H -3.225057 1.943742 0.106836 0
M  V30 56 H -2.165850 -1.375177 -2.969686 0
M  V30 57 H -4.310495 -4.188236 -0.766599 0
M  V30 58 H -4.824264 -1.942075 2.003232 0
M  V30 59 H -4.889663 -3.617092 1.459872 0
M  V30 60 H -6.624533 -4.449194 0.115242 0
M  V30 61 H -8.960996 -4.374846 -0.457612 0
M  V30 62 H -6.760343 -0.422682 1.418704 0
M  V30 63 H 2.059190 0.918581 0.029615 0
M  V30 64 H 5.734382 0.503818 3.155666 0
M  V30 65 H 4.121002 0.178978 2.399599 0
M  V30 66 H 3.976495 0.113532 4.899741 0
M  V30 67 H 5.311184 -1.141759 4.883717 0
M  V30 END ATOM
M  V30 BEGIN BOND
M  V30 1 1 1 2
M  V30 2 1 2 3
M  V30 3 1 3 4
M  V30 4 1 4 5
M  V30 5 1 5 6
M  V30 6 1 6 7
M  V30 7 2 7 8
M  V30 8 1 8 9
M  V30 9 2 9 10
M  V30 10 1 10 11
M  V30 11 2 11 12
M  V30 12 1 12 13
M  V30 13 1 13 14
M  V30 14 3 14 15
M  V30 15 1 15 16
M  V30 16 1 16 17
M  V30 17 1 17 18
M  V30 18 2 18 19
M  V30 19 1 18 20
M  V30 20 2 20 21
M  V30 21 1 21 22
M  V30 22 2 22 23
M  V30 23 1 23 24
M  V30 24 1 24 25
M  V30 25 1 25 26
M  V30 26 2 26 27
M  V30 27 1 27 28
M  V30 28 2 28 29
M  V30 29 1 29 30
M  V30 30 1 29 31
M  V30 31 1 31 32
M  V30 32 2 31 33
M  V30 33 1 24 34
M  V30 34 2 34 35
M  V30 35 2 13 36
M  V30 36 1 36 37
M  V30 37 2 37 38
M  V30 38 1 5 39
M  V30 39 1 39 40
M  V30 40 1 40 2
M  V30 41 1 38 7
M  V30 42 1 37 10
M  V30 43 1 34 20
M  V30 44 1 33 26
M  V30 45 1 1 41
M  V30 46 1 1 42
M  V30 47 1 2 43 CFG=1
M  V30 48 1 3 44
M  V30 49 1 3 45
M  V30 50 1 4 46
M  V30 51 1 4 47
M  V30 52 1 5 48 CFG=1
M  V30 53 1 6 49
M  V30 54 1 8 50
M  V30 55 1 11 51
M  V30 56 1 12 52
M  V30 57 1 16 53
M  V30 58 1 16 54
M  V30 59 1 17 55
M  V30 60 1 21 56
M  V30 61 1 23 57
M  V30 62 1 25 58
M  V30 63 1 25 59
M  V30 64 1 27 60
M  V30 65 1 28 61
M  V30 66 1 33 62
M  V30 67 1 36 63
M  V30 68 1 39 64
M  V30 69 1 39 65
M  V30 70 1 40 66
M  V30 71 1 40 67
M  V30 END BOND
M  V30 END CTAB
M  END
>  <Dataset>  (819) 
ChEMBL_Kinases

>  <Ligand_Instance>  (819) 
nan

>  <PDB_ID>  (819) 
nan

>  <Standardized_SMILES>  (819) 
N[C@H]1CC[C@@H](Nc2cnc3ccc(C#CCNC(=O)c4cncn(Cc5ccc(F)c(F)c5)c4=O)cc3n2)CC1

>  <Name>  (819) 
nan

>  <Pocket>  (819) 
nan

>  <ATP_Site>  (819) 
nan

>  <Peripheral>  (819) 
nan

>  <Num_H_Atoms_ProtBoundConf>  (819) 
nan

>  <Num_Resolved_Atoms>  (819) 
nan

>  <Num_Not_Resolved_Atoms>  (819) 
nan

$$$$
CHEMBL3689214
     RDKit          3D

  0  0  0  0  0  0  0  0  0  0999 V3000
M  V30 BEGIN CTAB
M  V30 COUNTS 64 68 0 0 0
M  V30 BEGIN ATOM
M  V30 1 N 4.017299 0.241124 5.930364 0
M  V30 2 C 4.670757 -0.146385 4.706644 0
M  V30 3 C 5.298387 -1.518363 4.770798 0
M  V30 4 C 5.285762 -2.066226 3.378589 0
M  V30 5 C 4.524543 -1.059997 2.543438 0
M  V30 6 N 5.412985 -0.026818 2.023168 0
M  V30 7 C 4.972442 1.043119 1.194650 0
M  V30 8 C 5.792195 2.033274 0.691695 0
M  V30 9 N 5.319072 3.027032 -0.092786 0
M  V30 10 C 4.001235 3.087009 -0.418435 0
M  V30 11 C 3.414008 4.054341 -1.208983 0
M  V30 12 C 2.049604 3.992189 -1.460412 0
M  V30 13 C 1.237458 2.999184 -0.953853 0
M  V30 14 C -0.176374 2.921967 -1.204407 0
M  V30 15 C -1.361813 2.852457 -1.435476 0
M  V30 16 C -2.811327 2.747433 -1.705099 0
M  V30 17 N -3.169153 1.355280 -1.990959 0
M  V30 18 C -2.839688 0.548947 -0.868610 0
M  V30 19 O -2.335158 1.305615 0.030829 0
M  V30 20 C -3.022767 -0.877158 -0.721080 0
M  V30 21 C -2.595014 -1.379656 0.514752 0
M  V30 22 N -2.685254 -2.678092 0.834695 0
M  V30 23 C -3.198016 -3.569382 -0.029184 0
M  V30 24 N -3.617211 -3.117519 -1.223386 0
M  V30 25 C -4.179548 -4.028285 -2.194820 0
M  V30 26 C -5.658817 -4.173876 -2.054579 0
M  V30 27 C -6.163348 -5.162638 -1.211630 0
M  V30 28 C -7.492935 -5.431990 -0.968403 0
M  V30 29 C -8.412925 -4.633535 -1.633935 0
M  V30 30 F -9.736821 -4.826572 -1.455532 0
M  V30 31 C -7.960280 -3.637556 -2.482428 0
M  V30 32 F -8.826253 -2.835728 -3.151346 0
M  V30 33 C -6.615713 -3.411021 -2.689608 0
M  V30 34 C -3.541246 -1.824303 -1.575660 0
M  V30 35 O -3.914965 -1.363613 -2.664782 0
M  V30 36 C 1.811512 2.028809 -0.164047 0
M  V30 37 C 3.168080 2.104342 0.076423 0
M  V30 38 N 3.671007 1.128922 0.854793 0
M  V30 39 C 3.645207 -0.368507 3.588155 0
M  V30 40 H 4.700988 0.603637 6.601632 0
M  V30 41 H 3.547585 -0.588305 6.346792 0
M  V30 42 H 5.366243 0.629934 4.335720 0
M  V30 43 H 4.640320 -2.122218 5.436361 0
M  V30 44 H 6.305646 -1.530516 5.206356 0
M  V30 45 H 6.315291 -2.149886 2.973025 0
M  V30 46 H 4.783025 -3.063852 3.324259 0
M  V30 47 H 3.924029 -1.544909 1.765416 0
M  V30 48 H 6.424291 -0.086245 2.279461 0
M  V30 49 H 6.843415 2.001459 0.940693 0
M  V30 50 H 4.052151 4.821094 -1.597732 0
M  V30 51 H 1.603997 4.763793 -2.086492 0
M  V30 52 H -3.018888 3.412731 -2.545573 0
M  V30 53 H -3.426138 3.057516 -0.845737 0
M  V30 54 H -3.593838 0.887098 -2.817096 0
M  V30 55 H -2.151184 -0.807565 1.345145 0
M  V30 56 H -3.307944 -4.630101 0.145561 0
M  V30 57 H -3.904850 -3.755675 -3.233886 0
M  V30 58 H -3.736142 -5.028607 -1.986026 0
M  V30 59 H -5.442624 -5.784871 -0.693228 0
M  V30 60 H -7.778039 -6.220093 -0.297741 0
M  V30 61 H -6.251177 -2.638276 -3.348522 0
M  V30 62 H 1.192695 1.249139 0.237665 0
M  V30 63 H 3.335346 0.594573 3.144068 0
M  V30 64 H 2.809340 -0.989056 3.924040 0
M  V30 END ATOM
M  V30 BEGIN BOND
M  V30 1 1 1 2
M  V30 2 1 2 3
M  V30 3 1 3 4
M  V30 4 1 4 5
M  V30 5 1 5 6
M  V30 6 1 6 7
M  V30 7 2 7 8
M  V30 8 1 8 9
M  V30 9 2 9 10
M  V30 10 1 10 11
M  V30 11 2 11 12
M  V30 12 1 12 13
M  V30 13 1 13 14
M  V30 14 3 14 15
M  V30 15 1 15 16
M  V30 16 1 16 17
M  V30 17 1 17 18
M  V30 18 2 18 19
M  V30 19 1 18 20
M  V30 20 2 20 21
M  V30 21 1 21 22
M  V30 22 2 22 23
M  V30 23 1 23 24
M  V30 24 1 24 25
M  V30 25 1 25 26
M  V30 26 2 26 27
M  V30 27 1 27 28
M  V30 28 2 28 29
M  V30 29 1 29 30
M  V30 30 1 29 31
M  V30 31 1 31 32
M  V30 32 2 31 33
M  V30 33 1 24 34
M  V30 34 2 34 35
M  V30 35 2 13 36
M  V30 36 1 36 37
M  V30 37 2 37 38
M  V30 38 1 5 39
M  V30 39 1 39 2
M  V30 40 1 38 7
M  V30 41 1 37 10
M  V30 42 1 34 20
M  V30 43 1 33 26
M  V30 44 1 1 40
M  V30 45 1 1 41
M  V30 46 1 2 42
M  V30 47 1 3 43
M  V30 48 1 3 44
M  V30 49 1 4 45
M  V30 50 1 4 46
M  V30 51 1 5 47
M  V30 52 1 6 48
M  V30 53 1 8 49
M  V30 54 1 11 50
M  V30 55 1 12 51
M  V30 56 1 16 52
M  V30 57 1 16 53
M  V30 58 1 17 54
M  V30 59 1 21 55
M  V30 60 1 23 56
M  V30 61 1 25 57
M  V30 62 1 25 58
M  V30 63 1 27 59
M  V30 64 1 28 60
M  V30 65 1 33 61
M  V30 66 1 36 62
M  V30 67 1 39 63
M  V30 68 1 39 64
M  V30 END BOND
M  V30 END CTAB
M  END
>  <Dataset>  (820) 
ChEMBL_Kinases

>  <Ligand_Instance>  (820) 
nan

>  <PDB_ID>  (820) 
nan

>  <Standardized_SMILES>  (820) 
NC1CCC(Nc2cnc3ccc(C#CCNC(=O)c4cncn(Cc5ccc(F)c(F)c5)c4=O)cc3n2)C1

>  <Name>  (820) 
nan

>  <Pocket>  (820) 
nan

>  <ATP_Site>  (820) 
nan

>  <Peripheral>  (820) 
nan

>  <Num_H_Atoms_ProtBoundConf>  (820) 
nan

>  <Num_Resolved_Atoms>  (820) 
nan

>  <Num_Not_Resolved_Atoms>  (820) 
nan

$$$$
CHEMBL3689206
     RDKit          3D

  0  0  0  0  0  0  0  0  0  0999 V3000
M  V30 BEGIN CTAB
M  V30 COUNTS 58 61 0 0 0
M  V30 BEGIN ATOM
M  V30 1 C 1.116145 -1.177934 4.458661 0
M  V30 2 C 2.155203 -2.227302 4.139609 0
M  V30 3 C 2.016242 -3.333864 5.153962 0
M  V30 4 N 3.502001 -1.697240 4.204088 0
M  V30 5 C 3.924482 -0.623997 3.371905 0
M  V30 6 C 5.185561 -0.060337 3.368991 0
M  V30 7 N 5.465451 0.954866 2.531784 0
M  V30 8 C 4.574219 1.475396 1.670234 0
M  V30 9 C 4.816449 2.508104 0.800843 0
M  V30 10 C 3.826220 2.977474 -0.053977 0
M  V30 11 C 2.576887 2.392624 -0.026238 0
M  V30 12 C 1.492958 2.811515 -0.872735 0
M  V30 13 C 0.568471 3.155284 -1.570352 0
M  V30 14 C -0.582451 3.565464 -2.410218 0
M  V30 15 N -1.417432 2.357557 -2.532190 0
M  V30 16 C -1.829111 1.946457 -1.239538 0
M  V30 17 O -1.338096 2.763686 -0.383688 0
M  V30 18 C -2.661928 0.806200 -0.887911 0
M  V30 19 C -2.886451 0.673590 0.489508 0
M  V30 20 N -3.623956 -0.311247 0.984147 0
M  V30 21 C -4.196995 -1.234549 0.208679 0
M  V30 22 N -3.995627 -1.126755 -1.108322 0
M  V30 23 C -4.587919 -2.094497 -1.998912 0
M  V30 24 C -3.699998 -3.260387 -2.237733 0
M  V30 25 C -3.770786 -4.359319 -1.404777 0
M  V30 26 C -2.965985 -5.466238 -1.587889 0
M  V30 27 C -2.054091 -5.508212 -2.623104 0
M  V30 28 F -1.227454 -6.567360 -2.864301 0
M  V30 29 C -1.955421 -4.412619 -3.486322 0
M  V30 30 F -1.068542 -4.412666 -4.520985 0
M  V30 31 C -2.789149 -3.336101 -3.248716 0
M  V30 32 C -3.261490 -0.155016 -1.664039 0
M  V30 33 O -3.051116 -0.019462 -2.872830 0
M  V30 34 C 2.300798 1.345830 0.842244 0
M  V30 35 C 3.318682 0.915346 1.672071 0
M  V30 36 N 3.029009 -0.100018 2.505343 0
M  V30 37 H 0.231849 -1.664916 4.913665 0
M  V30 38 H 0.755096 -0.737342 3.504800 0
M  V30 39 H 1.527081 -0.417781 5.122652 0
M  V30 40 H 1.984773 -2.593743 3.106817 0
M  V30 41 H 2.811694 -3.215489 5.916074 0
M  V30 42 H 1.012148 -3.281934 5.660575 0
M  V30 43 H 2.116071 -4.341375 4.662022 0
M  V30 44 H 4.216987 -2.079602 4.862153 0
M  V30 45 H 5.909784 -0.468056 4.054744 0
M  V30 46 H 5.807148 2.947205 0.802034 0
M  V30 47 H 4.003916 3.790425 -0.743786 0
M  V30 48 H -0.240215 3.909686 -3.403895 0
M  V30 49 H -1.114505 4.373019 -1.883178 0
M  V30 50 H -1.738476 1.788487 -3.346598 0
M  V30 51 H -2.477026 1.359862 1.238764 0
M  V30 52 H -4.791111 -2.021819 0.651839 0
M  V30 53 H -5.510438 -2.498812 -1.493143 0
M  V30 54 H -4.889120 -1.616225 -2.955896 0
M  V30 55 H -4.450783 -4.424249 -0.567115 0
M  V30 56 H -2.973614 -6.357583 -0.970369 0
M  V30 57 H -2.679015 -2.526768 -3.930464 0
M  V30 58 H 1.327581 0.874888 0.878275 0
M  V30 END ATOM
M  V30 BEGIN BOND
M  V30 1 1 1 2
M  V30 2 1 2 3
M  V30 3 1 2 4
M  V30 4 1 4 5
M  V30 5 2 5 6
M  V30 6 1 6 7
M  V30 7 2 7 8
M  V30 8 1 8 9
M  V30 9 2 9 10
M  V30 10 1 10 11
M  V30 11 1 11 12
M  V30 12 3 12 13
M  V30 13 1 13 14
M  V30 14 1 14 15
M  V30 15 1 15 16
M  V30 16 2 16 17
M  V30 17 1 16 18
M  V30 18 2 18 19
M  V30 19 1 19 20
M  V30 20 2 20 21
M  V30 21 1 21 22
M  V30 22 1 22 23
M  V30 23 1 23 24
M  V30 24 2 24 25
M  V30 25 1 25 26
M  V30 26 2 26 27
M  V30 27 1 27 28
M  V30 28 1 27 29
M  V30 29 1 29 30
M  V30 30 2 29 31
M  V30 31 1 22 32
M  V30 32 2 32 33
M  V30 33 2 11 34
M  V30 34 1 34 35
M  V30 35 2 35 36
M  V30 36 1 36 5
M  V30 37 1 35 8
M  V30 38 1 32 18
M  V30 39 1 31 24
M  V30 40 1 1 37
M  V30 41 1 1 38
M  V30 42 1 1 39
M  V30 43 1 2 40
M  V30 44 1 3 41
M  V30 45 1 3 42
M  V30 46 1 3 43
M  V30 47 1 4 44
M  V30 48 1 6 45
M  V30 49 1 9 46
M  V30 50 1 10 47
M  V30 51 1 14 48
M  V30 52 1 14 49
M  V30 53 1 15 50
M  V30 54 1 19 51
M  V30 55 1 21 52
M  V30 56 1 23 53
M  V30 57 1 23 54
M  V30 58 1 25 55
M  V30 59 1 26 56
M  V30 60 1 31 57
M  V30 61 1 34 58
M  V30 END BOND
M  V30 END CTAB
M  END
>  <Dataset>  (821) 
ChEMBL_Kinases

>  <Ligand_Instance>  (821) 
nan

>  <PDB_ID>  (821) 
nan

>  <Standardized_SMILES>  (821) 
CC(C)Nc1cnc2ccc(C#CCNC(=O)c3cncn(Cc4ccc(F)c(F)c4)c3=O)cc2n1

>  <Name>  (821) 
nan

>  <Pocket>  (821) 
nan

>  <ATP_Site>  (821) 
nan

>  <Peripheral>  (821) 
nan

>  <Num_H_Atoms_ProtBoundConf>  (821) 
nan

>  <Num_Resolved_Atoms>  (821) 
nan

>  <Num_Not_Resolved_Atoms>  (821) 
nan

$$$$
CHEMBL3689207
     RDKit          3D

  0  0  0  0  0  0  0  0  0  0999 V3000
M  V30 BEGIN CTAB
M  V30 COUNTS 66 70 0 0 0
M  V30 BEGIN ATOM
M  V30 1 C 4.246198 -1.830276 5.988936 0
M  V30 2 N 4.121889 -1.101627 4.788516 0
M  V30 3 C 3.411961 -1.676249 3.728046 0
M  V30 4 C 3.503238 -0.954737 2.412992 0
M  V30 5 N 4.784387 -0.460750 2.079822 0
M  V30 6 N 4.942272 0.180105 0.885004 0
M  V30 7 C 4.237567 0.907774 -0.105585 0
M  V30 8 C 4.929877 1.398260 -1.189696 0
M  V30 9 N 4.255249 2.082559 -2.119819 0
M  V30 10 C 2.915791 2.301647 -2.020217 0
M  V30 11 C 2.271064 3.018425 -3.017738 0
M  V30 12 C 0.897366 3.265508 -2.956071 0
M  V30 13 C 0.246396 2.756613 -1.855181 0
M  V30 14 C -1.189780 2.907589 -1.642189 0
M  V30 15 C -2.378120 3.013575 -1.476498 0
M  V30 16 C -3.825672 3.146715 -1.300296 0
M  V30 17 N -4.475126 1.952971 -0.815710 0
M  V30 18 C -5.524330 1.136724 -0.394701 0
M  V30 19 O -6.510147 1.944680 -0.514392 0
M  V30 20 C -5.543716 -0.231776 0.056627 0
M  V30 21 C -6.841303 -0.601431 0.351709 0
M  V30 22 N -7.076472 -1.874776 0.788680 0
M  V30 23 C -6.024554 -2.736682 0.919471 0
M  V30 24 N -4.760915 -2.414564 0.643891 0
M  V30 25 C -3.601309 -3.252215 0.752090 0
M  V30 26 C -3.341335 -4.016869 -0.494652 0
M  V30 27 C -3.912648 -5.255218 -0.728471 0
M  V30 28 C -3.692997 -5.997930 -1.860097 0
M  V30 29 C -2.838621 -5.473792 -2.840479 0
M  V30 30 F -2.571382 -6.156536 -4.004739 0
M  V30 31 C -2.218978 -4.237701 -2.695259 0
M  V30 32 F -1.400657 -3.730653 -3.641514 0
M  V30 33 C -2.519058 -3.573151 -1.500751 0
M  V30 34 C -4.555847 -1.172815 0.221335 0
M  V30 35 O -3.414142 -0.762531 -0.064123 0
M  V30 36 C 0.858434 2.030526 -0.827013 0
M  V30 37 C 2.218578 1.813316 -0.936222 0
M  V30 38 N 2.920996 1.124460 -0.010069 0
M  V30 39 C 5.652371 -0.097347 3.145775 0
M  V30 40 C 5.038023 -0.064837 4.511584 0
M  V30 41 H 3.433375 -1.497938 6.696636 0
M  V30 42 H 4.132870 -2.933296 5.929520 0
M  V30 43 H 5.199562 -1.513778 6.503079 0
M  V30 44 H 3.752617 -2.711974 3.571359 0
M  V30 45 H 2.326532 -1.751259 4.037121 0
M  V30 46 H 2.795326 -0.077509 2.488835 0
M  V30 47 H 3.112081 -1.563735 1.573296 0
M  V30 48 H 5.984356 0.006834 0.753258 0
M  V30 49 H 6.003572 1.241397 -1.314327 0
M  V30 50 H 2.789150 3.416385 -3.881621 0
M  V30 51 H 0.329772 3.817218 -3.692281 0
M  V30 52 H -4.216308 3.468352 -2.289760 0
M  V30 53 H -4.043416 3.951942 -0.550450 0
M  V30 54 H -3.615565 1.306980 -0.736538 0
M  V30 55 H -7.750389 -0.003198 0.287139 0
M  V30 56 H -6.224267 -3.750801 1.265920 0
M  V30 57 H -2.681099 -2.638956 0.918834 0
M  V30 58 H -3.673739 -3.907845 1.636442 0
M  V30 59 H -4.583570 -5.702263 0.007422 0
M  V30 60 H -4.109453 -6.967020 -2.100913 0
M  V30 61 H -2.007517 -2.614731 -1.428064 0
M  V30 62 H 0.378904 1.633545 0.030180 0
M  V30 63 H 6.076668 0.896395 2.911016 0
M  V30 64 H 6.529729 -0.800242 3.108059 0
M  V30 65 H 4.518953 0.913415 4.677810 0
M  V30 66 H 5.864088 -0.099201 5.252274 0
M  V30 END ATOM
M  V30 BEGIN BOND
M  V30 1 1 1 2
M  V30 2 1 2 3
M  V30 3 1 3 4
M  V30 4 1 4 5
M  V30 5 1 5 6
M  V30 6 1 6 7
M  V30 7 2 7 8
M  V30 8 1 8 9
M  V30 9 2 9 10
M  V30 10 1 10 11
M  V30 11 2 11 12
M  V30 12 1 12 13
M  V30 13 1 13 14
M  V30 14 3 14 15
M  V30 15 1 15 16
M  V30 16 1 16 17
M  V30 17 1 17 18
M  V30 18 2 18 19
M  V30 19 1 18 20
M  V30 20 2 20 21
M  V30 21 1 21 22
M  V30 22 2 22 23
M  V30 23 1 23 24
M  V30 24 1 24 25
M  V30 25 1 25 26
M  V30 26 2 26 27
M  V30 27 1 27 28
M  V30 28 2 28 29
M  V30 29 1 29 30
M  V30 30 1 29 31
M  V30 31 1 31 32
M  V30 32 2 31 33
M  V30 33 1 24 34
M  V30 34 2 34 35
M  V30 35 2 13 36
M  V30 36 1 36 37
M  V30 37 2 37 38
M  V30 38 1 5 39
M  V30 39 1 39 40
M  V30 40 1 40 2
M  V30 41 1 38 7
M  V30 42 1 37 10
M  V30 43 1 34 20
M  V30 44 1 33 26
M  V30 45 1 1 41
M  V30 46 1 1 42
M  V30 47 1 1 43
M  V30 48 1 3 44
M  V30 49 1 3 45
M  V30 50 1 4 46
M  V30 51 1 4 47
M  V30 52 1 6 48
M  V30 53 1 8 49
M  V30 54 1 11 50
M  V30 55 1 12 51
M  V30 56 1 16 52
M  V30 57 1 16 53
M  V30 58 1 17 54
M  V30 59 1 21 55
M  V30 60 1 23 56
M  V30 61 1 25 57
M  V30 62 1 25 58
M  V30 63 1 27 59
M  V30 64 1 28 60
M  V30 65 1 33 61
M  V30 66 1 36 62
M  V30 67 1 39 63
M  V30 68 1 39 64
M  V30 69 1 40 65
M  V30 70 1 40 66
M  V30 END BOND
M  V30 END CTAB
M  END
>  <Dataset>  (822) 
ChEMBL_Kinases

>  <Ligand_Instance>  (822) 
nan

>  <PDB_ID>  (822) 
nan

>  <Standardized_SMILES>  (822) 
CN1CCN(Nc2cnc3ccc(C#CCNC(=O)c4cncn(Cc5ccc(F)c(F)c5)c4=O)cc3n2)CC1

>  <Name>  (822) 
nan

>  <Pocket>  (822) 
nan

>  <ATP_Site>  (822) 
nan

>  <Peripheral>  (822) 
nan

>  <Num_H_Atoms_ProtBoundConf>  (822) 
nan

>  <Num_Resolved_Atoms>  (822) 
nan

>  <Num_Not_Resolved_Atoms>  (822) 
nan

$$$$
CHEMBL3689208
     RDKit          3D

  0  0  0  0  0  0  0  0  0  0999 V3000
M  V30 BEGIN CTAB
M  V30 COUNTS 74 78 0 0 0
M  V30 BEGIN ATOM
M  V30 1 C 2.239906 -7.238512 -1.437946 0
M  V30 2 O 3.550612 -7.661256 -1.472272 0
M  V30 3 C 4.468622 -6.691603 -1.842366 0
M  V30 4 C 4.498224 -5.512732 -0.913327 0
M  V30 5 N 5.470693 -4.515165 -1.278295 0
M  V30 6 C 5.191955 -3.803246 -2.470202 0
M  V30 7 C 4.430672 -2.527094 -2.346778 0
M  V30 8 C 5.123061 -1.566199 -1.415752 0
M  V30 9 N 4.258491 -0.706136 -0.675258 0
M  V30 10 C 4.092967 0.244237 0.339951 0
M  V30 11 C 5.173505 0.640108 1.095982 0
M  V30 12 N 5.013232 1.548082 2.093834 0
M  V30 13 C 3.782041 2.042845 2.316700 0
M  V30 14 C 3.549595 2.967014 3.320146 0
M  V30 15 C 2.238956 3.423372 3.477733 0
M  V30 16 C 1.175342 3.037628 2.728278 0
M  V30 17 C -0.167597 3.514106 2.836550 0
M  V30 18 C -1.291215 3.932417 2.917004 0
M  V30 19 C -2.648734 4.453475 2.993929 0
M  V30 20 N -3.624004 3.424303 2.589772 0
M  V30 21 C -4.990761 3.727495 2.530136 0
M  V30 22 O -5.378125 4.909781 2.828784 0
M  V30 23 C -6.065114 2.816785 2.147649 0
M  V30 24 C -7.391700 3.265747 2.111034 0
M  V30 25 N -8.393444 2.448187 1.751901 0
M  V30 26 C -8.206095 1.162997 1.407278 0
M  V30 27 N -6.931486 0.686375 1.429860 0
M  V30 28 C -6.774943 -0.704346 1.053635 0
M  V30 29 C -6.558254 -0.727095 -0.422028 0
M  V30 30 C -7.660400 -0.768787 -1.272167 0
M  V30 31 C -7.464769 -0.793649 -2.627440 0
M  V30 32 C -6.208382 -0.780135 -3.210205 0
M  V30 33 F -5.976862 -0.799379 -4.549428 0
M  V30 34 C -5.133904 -0.739100 -2.368258 0
M  V30 35 F -3.879708 -0.721947 -2.877695 0
M  V30 36 C -5.307972 -0.712895 -0.998941 0
M  V30 37 C -5.954524 1.500044 1.784226 0
M  V30 38 O -4.834470 0.969000 1.771591 0
M  V30 39 C 1.394374 2.100665 1.709280 0
M  V30 40 C 2.698978 1.654143 1.564009 0
M  V30 41 N 2.882839 0.759085 0.588733 0
M  V30 42 C 6.160965 -2.302389 -0.635001 0
M  V30 43 C 5.567020 -3.602304 -0.163356 0
M  V30 44 H 2.042912 -6.410018 -0.736412 0
M  V30 45 H 1.650039 -8.122982 -1.030326 0
M  V30 46 H 1.802405 -7.050673 -2.445933 0
M  V30 47 H 4.153825 -6.392131 -2.887628 0
M  V30 48 H 5.497408 -7.087901 -1.920552 0
M  V30 49 H 4.806377 -5.907035 0.098854 0
M  V30 50 H 3.491906 -5.054881 -0.743155 0
M  V30 51 H 4.710932 -4.484296 -3.242308 0
M  V30 52 H 6.181486 -3.531353 -2.946638 0
M  V30 53 H 4.374905 -2.080639 -3.362007 0
M  V30 54 H 3.361602 -2.688429 -2.056712 0
M  V30 55 H 5.726742 -0.887135 -2.121500 0
M  V30 56 H 3.321095 -0.917364 -1.152908 0
M  V30 57 H 6.182267 0.326430 1.003553 0
M  V30 58 H 4.344301 3.324327 3.958192 0
M  V30 59 H 2.015807 4.162514 4.265148 0
M  V30 60 H -2.881318 4.841695 3.994655 0
M  V30 61 H -2.735829 5.245913 2.224451 0
M  V30 62 H -3.278082 2.480033 2.348912 0
M  V30 63 H -7.665907 4.277556 2.367287 0
M  V30 64 H -9.072468 0.582347 1.137161 0
M  V30 65 H -5.819185 -1.066097 1.524986 0
M  V30 66 H -7.631841 -1.340924 1.306878 0
M  V30 67 H -8.681966 -0.786336 -0.869584 0
M  V30 68 H -8.289307 -0.826413 -3.340821 0
M  V30 69 H -4.424087 -0.683461 -0.388491 0
M  V30 70 H 0.593228 1.746941 1.070039 0
M  V30 71 H 6.992973 -2.609554 -1.346977 0
M  V30 72 H 6.671710 -1.747450 0.148314 0
M  V30 73 H 4.521212 -3.475751 0.227965 0
M  V30 74 H 6.153481 -4.006066 0.695743 0
M  V30 END ATOM
M  V30 BEGIN BOND
M  V30 1 1 1 2
M  V30 2 1 2 3
M  V30 3 1 3 4
M  V30 4 1 4 5
M  V30 5 1 5 6
M  V30 6 1 6 7
M  V30 7 1 7 8
M  V30 8 1 8 9
M  V30 9 1 9 10
M  V30 10 2 10 11
M  V30 11 1 11 12
M  V30 12 2 12 13
M  V30 13 1 13 14
M  V30 14 2 14 15
M  V30 15 1 15 16
M  V30 16 1 16 17
M  V30 17 3 17 18
M  V30 18 1 18 19
M  V30 19 1 19 20
M  V30 20 1 20 21
M  V30 21 2 21 22
M  V30 22 1 21 23
M  V30 23 2 23 24
M  V30 24 1 24 25
M  V30 25 2 25 26
M  V30 26 1 26 27
M  V30 27 1 27 28
M  V30 28 1 28 29
M  V30 29 2 29 30
M  V30 30 1 30 31
M  V30 31 2 31 32
M  V30 32 1 32 33
M  V30 33 1 32 34
M  V30 34 1 34 35
M  V30 35 2 34 36
M  V30 36 1 27 37
M  V30 37 2 37 38
M  V30 38 2 16 39
M  V30 39 1 39 40
M  V30 40 2 40 41
M  V30 41 1 8 42
M  V30 42 1 42 43
M  V30 43 1 43 5
M  V30 44 1 41 10
M  V30 45 1 40 13
M  V30 46 1 37 23
M  V30 47 1 36 29
M  V30 48 1 1 44
M  V30 49 1 1 45
M  V30 50 1 1 46
M  V30 51 1 3 47
M  V30 52 1 3 48
M  V30 53 1 4 49
M  V30 54 1 4 50
M  V30 55 1 6 51
M  V30 56 1 6 52
M  V30 57 1 7 53
M  V30 58 1 7 54
M  V30 59 1 8 55
M  V30 60 1 9 56
M  V30 61 1 11 57
M  V30 62 1 14 58
M  V30 63 1 15 59
M  V30 64 1 19 60
M  V30 65 1 19 61
M  V30 66 1 20 62
M  V30 67 1 24 63
M  V30 68 1 26 64
M  V30 69 1 28 65
M  V30 70 1 28 66
M  V30 71 1 30 67
M  V30 72 1 31 68
M  V30 73 1 36 69
M  V30 74 1 39 70
M  V30 75 1 42 71
M  V30 76 1 42 72
M  V30 77 1 43 73
M  V30 78 1 43 74
M  V30 END BOND
M  V30 END CTAB
M  END
>  <Dataset>  (823) 
ChEMBL_Kinases

>  <Ligand_Instance>  (823) 
nan

>  <PDB_ID>  (823) 
nan

>  <Standardized_SMILES>  (823) 
COCCN1CCC(Nc2cnc3ccc(C#CCNC(=O)c4cncn(Cc5ccc(F)c(F)c5)c4=O)cc3n2)CC1

>  <Name>  (823) 
nan

>  <Pocket>  (823) 
nan

>  <ATP_Site>  (823) 
nan

>  <Peripheral>  (823) 
nan

>  <Num_H_Atoms_ProtBoundConf>  (823) 
nan

>  <Num_Resolved_Atoms>  (823) 
nan

>  <Num_Not_Resolved_Atoms>  (823) 
nan

$$$$
CHEMBL3689209
     RDKit          3D

  0  0  0  0  0  0  0  0  0  0999 V3000
M  V30 BEGIN CTAB
M  V30 COUNTS 66 70 0 0 0
M  V30 BEGIN ATOM
M  V30 1 C 4.406753 -1.242901 7.673842 0
M  V30 2 N 3.587676 -0.962687 6.534343 0
M  V30 3 C 4.112910 -1.539868 5.335826 0
M  V30 4 C 3.306102 -1.199387 4.129766 0
M  V30 5 C 2.960362 0.242425 3.970312 0
M  V30 6 O 4.032670 1.068662 3.574468 0
M  V30 7 C 3.994433 1.821462 2.394978 0
M  V30 8 C 5.001871 2.653964 1.937166 0
M  V30 9 N 4.849858 3.330607 0.782181 0
M  V30 10 C 3.739057 3.236877 0.029464 0
M  V30 11 C 3.574334 3.925740 -1.154314 0
M  V30 12 C 2.438745 3.836866 -1.934328 0
M  V30 13 C 1.442737 3.003999 -1.466749 0
M  V30 14 C 0.199106 2.804173 -2.164334 0
M  V30 15 C -0.850677 2.620075 -2.738163 0
M  V30 16 C -2.137284 2.378326 -3.419996 0
M  V30 17 N -2.399697 0.933873 -3.509003 0
M  V30 18 C -2.453406 0.385126 -2.197938 0
M  V30 19 O -2.254131 1.336531 -1.365324 0
M  V30 20 C -2.689725 -1.002346 -1.825669 0
M  V30 21 C -2.679237 -1.209865 -0.438721 0
M  V30 22 N -2.883249 -2.441107 0.051290 0
M  V30 23 C -3.101512 -3.515228 -0.691839 0
M  V30 24 N -3.111630 -3.319111 -2.008328 0
M  V30 25 C -3.341939 -4.427009 -2.910914 0
M  V30 26 C -4.785755 -4.626689 -3.221558 0
M  V30 27 C -5.437352 -5.483535 -2.335926 0
M  V30 28 C -6.780961 -5.762573 -2.501411 0
M  V30 29 C -7.507514 -5.206620 -3.537124 0
M  V30 30 F -8.819083 -5.493959 -3.678579 0
M  V30 31 C -6.827954 -4.364060 -4.392446 0
M  V30 32 F -7.503778 -3.794556 -5.426078 0
M  V30 33 C -5.494807 -4.062853 -4.260853 0
M  V30 34 C -2.918743 -2.134813 -2.577225 0
M  V30 35 O -2.919028 -1.901414 -3.804227 0
M  V30 36 C 1.592649 2.307939 -0.283955 0
M  V30 37 C 2.734573 2.407511 0.484872 0
M  V30 38 N 2.902622 1.738569 1.641021 0
M  V30 39 C 2.424626 0.763384 5.285372 0
M  V30 40 C 3.413770 0.468807 6.367061 0
M  V30 41 H 3.828760 -1.154022 8.639141 0
M  V30 42 H 4.744799 -2.302201 7.642313 0
M  V30 43 H 5.337200 -0.632664 7.688803 0
M  V30 44 H 4.059937 -2.660354 5.440179 0
M  V30 45 H 5.199934 -1.326395 5.210794 0
M  V30 46 H 3.842734 -1.622192 3.252518 0
M  V30 47 H 2.332362 -1.750295 4.198140 0
M  V30 48 H 2.120427 0.291177 3.216748 0
M  V30 49 H 5.893552 2.717648 2.559140 0
M  V30 50 H 4.382610 4.580905 -1.502202 0
M  V30 51 H 2.285773 4.363066 -2.860519 0
M  V30 52 H -2.030624 2.829123 -4.409489 0
M  V30 53 H -2.990936 2.799382 -2.849327 0
M  V30 54 H -2.543047 0.289352 -4.316874 0
M  V30 55 H -2.512492 -0.419198 0.285081 0
M  V30 56 H -3.261891 -4.490872 -0.266777 0
M  V30 57 H -2.849120 -4.243695 -3.908290 0
M  V30 58 H -2.895679 -5.340725 -2.485166 0
M  V30 59 H -4.942317 -5.959500 -1.500191 0
M  V30 60 H -7.276355 -6.434974 -1.800042 0
M  V30 61 H -4.931500 -3.410272 -4.908915 0
M  V30 62 H 0.824005 1.647379 0.104165 0
M  V30 63 H 1.414009 0.379642 5.518380 0
M  V30 64 H 2.373019 1.873161 5.167381 0
M  V30 65 H 2.972988 0.830212 7.317328 0
M  V30 66 H 4.361239 0.997673 6.137958 0
M  V30 END ATOM
M  V30 BEGIN BOND
M  V30 1 1 1 2
M  V30 2 1 2 3
M  V30 3 1 3 4
M  V30 4 1 4 5
M  V30 5 1 5 6
M  V30 6 1 6 7
M  V30 7 2 7 8
M  V30 8 1 8 9
M  V30 9 2 9 10
M  V30 10 1 10 11
M  V30 11 2 11 12
M  V30 12 1 12 13
M  V30 13 1 13 14
M  V30 14 3 14 15
M  V30 15 1 15 16
M  V30 16 1 16 17
M  V30 17 1 17 18
M  V30 18 2 18 19
M  V30 19 1 18 20
M  V30 20 2 20 21
M  V30 21 1 21 22
M  V30 22 2 22 23
M  V30 23 1 23 24
M  V30 24 1 24 25
M  V30 25 1 25 26
M  V30 26 2 26 27
M  V30 27 1 27 28
M  V30 28 2 28 29
M  V30 29 1 29 30
M  V30 30 1 29 31
M  V30 31 1 31 32
M  V30 32 2 31 33
M  V30 33 1 24 34
M  V30 34 2 34 35
M  V30 35 2 13 36
M  V30 36 1 36 37
M  V30 37 2 37 38
M  V30 38 1 5 39
M  V30 39 1 39 40
M  V30 40 1 40 2
M  V30 41 1 38 7
M  V30 42 1 37 10
M  V30 43 1 34 20
M  V30 44 1 33 26
M  V30 45 1 1 41
M  V30 46 1 1 42
M  V30 47 1 1 43
M  V30 48 1 3 44
M  V30 49 1 3 45
M  V30 50 1 4 46
M  V30 51 1 4 47
M  V30 52 1 5 48
M  V30 53 1 8 49
M  V30 54 1 11 50
M  V30 55 1 12 51
M  V30 56 1 16 52
M  V30 57 1 16 53
M  V30 58 1 17 54
M  V30 59 1 21 55
M  V30 60 1 23 56
M  V30 61 1 25 57
M  V30 62 1 25 58
M  V30 63 1 27 59
M  V30 64 1 28 60
M  V30 65 1 33 61
M  V30 66 1 36 62
M  V30 67 1 39 63
M  V30 68 1 39 64
M  V30 69 1 40 65
M  V30 70 1 40 66
M  V30 END BOND
M  V30 END CTAB
M  END
>  <Dataset>  (824) 
ChEMBL_Kinases

>  <Ligand_Instance>  (824) 
nan

>  <PDB_ID>  (824) 
nan

>  <Standardized_SMILES>  (824) 
CN1CCC(Oc2cnc3ccc(C#CCNC(=O)c4cncn(Cc5ccc(F)c(F)c5)c4=O)cc3n2)CC1

>  <Name>  (824) 
nan

>  <Pocket>  (824) 
nan

>  <ATP_Site>  (824) 
nan

>  <Peripheral>  (824) 
nan

>  <Num_H_Atoms_ProtBoundConf>  (824) 
nan

>  <Num_Resolved_Atoms>  (824) 
nan

>  <Num_Not_Resolved_Atoms>  (824) 
nan

$$$$
CHEMBL3689210
     RDKit          3D

  0  0  0  0  0  0  0  0  0  0999 V3000
M  V30 BEGIN CTAB
M  V30 COUNTS 78 83 0 0 0
M  V30 BEGIN ATOM
M  V30 1 O 3.378360 -7.470228 3.730650 0
M  V30 2 C 2.808026 -6.330600 3.727158 0
M  V30 3 N 3.920001 -5.482904 3.539383 0
M  V30 4 C 5.133960 -4.780784 3.358216 0
M  V30 5 C 4.877184 -3.387725 2.996505 0
M  V30 6 C 4.657611 -2.250366 2.680623 0
M  V30 7 C 4.387744 -0.914240 2.283674 0
M  V30 8 C 4.764179 0.300177 2.830642 0
M  V30 9 C 4.347446 1.472759 2.190377 0
M  V30 10 C 3.593125 1.538299 1.060425 0
M  V30 11 N 3.204322 2.663013 0.448525 0
M  V30 12 C 2.447402 2.577788 -0.693143 0
M  V30 13 C 2.073633 1.405765 -1.231339 0
M  V30 14 N 1.302020 1.117671 -2.392410 0
M  V30 15 C 0.679149 1.951268 -3.379203 0 CFG=1
M  V30 16 C -0.120044 1.176037 -4.375629 0
M  V30 17 C -1.586714 1.122758 -4.223750 0
M  V30 18 C -2.224000 2.173604 -3.344735 0 CFG=2
M  V30 19 N -3.556204 2.365101 -3.740905 0
M  V30 20 C -4.337500 3.328294 -2.999755 0
M  V30 21 C -4.933211 2.737780 -1.717800 0
M  V30 22 O -4.794333 1.367790 -1.663559 0
M  V30 23 C -5.254858 0.825401 -2.876091 0
M  V30 24 C -4.359932 1.225920 -4.028603 0
M  V30 25 C -1.351459 3.401775 -3.482158 0
M  V30 26 C -0.026524 3.141750 -2.803146 0
M  V30 27 N 2.498294 0.321599 -0.567180 0
M  V30 28 C 3.235674 0.332742 0.544921 0
M  V30 29 C 3.606534 -0.853129 1.117683 0
M  V30 30 C 1.413980 -6.133491 3.872681 0
M  V30 31 C 0.631532 -7.310156 3.760728 0
M  V30 32 N -0.775960 -7.214833 3.757461 0
M  V30 33 C -1.357481 -6.040304 3.860438 0
M  V30 34 N -0.731035 -4.867560 3.975198 0
M  V30 35 C -1.310362 -3.580437 4.214038 0
M  V30 36 C -1.291975 -2.610768 3.125271 0
M  V30 37 C -0.450297 -1.507591 3.403664 0
M  V30 38 C -0.197743 -0.431505 2.628166 0
M  V30 39 C -0.836584 -0.389115 1.400398 0
M  V30 40 F -0.684548 0.617410 0.519346 0
M  V30 41 C -1.670273 -1.430221 1.062804 0
M  V30 42 F -2.311274 -1.402941 -0.146255 0
M  V30 43 C -1.892801 -2.511242 1.900743 0
M  V30 44 C 0.539261 -5.031264 3.969542 0
M  V30 45 O 1.241009 -3.974681 4.074289 0
M  V30 46 H 3.300310 -4.596940 3.522095 0
M  V30 47 H 5.708103 -5.221070 2.505642 0
M  V30 48 H 5.830469 -4.859619 4.230045 0
M  V30 49 H 5.346911 0.170013 3.701080 0
M  V30 50 H 4.670288 2.389874 2.671929 0
M  V30 51 H 2.125707 3.459211 -1.202911 0
M  V30 52 H 1.115529 0.094146 -2.635557 0
M  V30 53 H 1.545625 2.377316 -3.983397 0
M  V30 54 H 0.097500 1.472773 -5.425558 0
M  V30 55 H 0.260929 0.105877 -4.336039 0
M  V30 56 H -2.103586 1.206772 -5.205328 0
M  V30 57 H -1.938898 0.123899 -3.813352 0
M  V30 58 H -2.192987 1.880573 -2.262030 0
M  V30 59 H -3.843461 4.259619 -2.751739 0
M  V30 60 H -5.214991 3.595565 -3.640459 0
M  V30 61 H -6.012826 2.979749 -1.632791 0
M  V30 62 H -4.419653 3.176822 -0.828545 0
M  V30 63 H -5.229313 -0.294018 -2.728458 0
M  V30 64 H -6.317689 1.076648 -3.050783 0
M  V30 65 H -3.844678 0.358143 -4.400128 0
M  V30 66 H -5.074307 1.528271 -4.858197 0
M  V30 67 H -1.834348 4.270442 -3.019509 0
M  V30 68 H -1.121641 3.505537 -4.562554 0
M  V30 69 H -0.237206 2.942772 -1.737453 0
M  V30 70 H 0.560897 4.075553 -2.858716 0
M  V30 71 H 3.247616 -1.736256 0.589418 0
M  V30 72 H 1.154688 -8.271771 3.675686 0
M  V30 73 H -2.449823 -6.062716 3.849340 0
M  V30 74 H -0.912368 -3.198654 5.183435 0
M  V30 75 H -2.414616 -3.799182 4.502553 0
M  V30 76 H 0.117083 -1.443418 4.355376 0
M  V30 77 H 0.459749 0.382426 2.904761 0
M  V30 78 H -2.529499 -3.357443 1.696173 0
M  V30 END ATOM
M  V30 BEGIN BOND
M  V30 1 2 1 2
M  V30 2 1 2 3
M  V30 3 1 3 4
M  V30 4 1 4 5
M  V30 5 3 5 6
M  V30 6 1 6 7
M  V30 7 2 7 8
M  V30 8 1 8 9
M  V30 9 2 9 10
M  V30 10 1 10 11
M  V30 11 2 11 12
M  V30 12 1 12 13
M  V30 13 1 13 14
M  V30 14 1 14 15
M  V30 15 1 15 16
M  V30 16 1 16 17
M  V30 17 1 17 18
M  V30 18 1 18 19
M  V30 19 1 19 20
M  V30 20 1 20 21
M  V30 21 1 21 22
M  V30 22 1 22 23
M  V30 23 1 23 24
M  V30 24 1 18 25
M  V30 25 1 25 26
M  V30 26 2 13 27
M  V30 27 1 27 28
M  V30 28 2 28 29
M  V30 29 1 2 30
M  V30 30 2 30 31
M  V30 31 1 31 32
M  V30 32 2 32 33
M  V30 33 1 33 34
M  V30 34 1 34 35
M  V30 35 1 35 36
M  V30 36 2 36 37
M  V30 37 1 37 38
M  V30 38 2 38 39
M  V30 39 1 39 40
M  V30 40 1 39 41
M  V30 41 1 41 42
M  V30 42 2 41 43
M  V30 43 1 34 44
M  V30 44 2 44 45
M  V30 45 1 29 7
M  V30 46 1 44 30
M  V30 47 1 28 10
M  V30 48 1 43 36
M  V30 49 1 26 15
M  V30 50 1 24 19
M  V30 51 1 3 46
M  V30 52 1 4 47
M  V30 53 1 4 48
M  V30 54 1 8 49
M  V30 55 1 9 50
M  V30 56 1 12 51
M  V30 57 1 14 52
M  V30 58 1 15 53 CFG=3
M  V30 59 1 16 54
M  V30 60 1 16 55
M  V30 61 1 17 56
M  V30 62 1 17 57
M  V30 63 1 18 58 CFG=1
M  V30 64 1 20 59
M  V30 65 1 20 60
M  V30 66 1 21 61
M  V30 67 1 21 62
M  V30 68 1 23 63
M  V30 69 1 23 64
M  V30 70 1 24 65
M  V30 71 1 24 66
M  V30 72 1 25 67
M  V30 73 1 25 68
M  V30 74 1 26 69
M  V30 75 1 26 70
M  V30 76 1 29 71
M  V30 77 1 31 72
M  V30 78 1 33 73
M  V30 79 1 35 74
M  V30 80 1 35 75
M  V30 81 1 37 76
M  V30 82 1 38 77
M  V30 83 1 43 78
M  V30 END BOND
M  V30 END CTAB
M  END
>  <Dataset>  (825) 
ChEMBL_Kinases

>  <Ligand_Instance>  (825) 
nan

>  <PDB_ID>  (825) 
nan

>  <Standardized_SMILES>  (825) 
O=C(NCC#Cc1ccc2ncc(N[C@H]3CC[C@H](N4CCOCC4)CC3)nc2c1)c1cncn(Cc2ccc(F)c(F)c2)c1=O

>  <Name>  (825) 
nan

>  <Pocket>  (825) 
nan

>  <ATP_Site>  (825) 
nan

>  <Peripheral>  (825) 
nan

>  <Num_H_Atoms_ProtBoundConf>  (825) 
nan

>  <Num_Resolved_Atoms>  (825) 
nan

>  <Num_Not_Resolved_Atoms>  (825) 
nan

$$$$
CHEMBL3689211
     RDKit          3D

  0  0  0  0  0  0  0  0  0  0999 V3000
M  V30 BEGIN CTAB
M  V30 COUNTS 72 76 0 0 0
M  V30 BEGIN ATOM
M  V30 1 C -3.817514 -7.888498 -6.627208 0
M  V30 2 N -2.705928 -7.023945 -6.249875 0
M  V30 3 C -2.246399 -7.455718 -4.957355 0
M  V30 4 C -0.959597 -6.792620 -4.596670 0
M  V30 5 C -1.052769 -5.328772 -5.061217 0
M  V30 6 N -0.289493 -4.447324 -4.213044 0
M  V30 7 C 0.012883 -3.077030 -4.406345 0
M  V30 8 C -0.359942 -2.354761 -5.517413 0
M  V30 9 N -0.049514 -1.053869 -5.620646 0
M  V30 10 C 0.633918 -0.429673 -4.640120 0
M  V30 11 C 0.982549 0.899988 -4.685124 0
M  V30 12 C 1.690515 1.471213 -3.624956 0
M  V30 13 C 2.058174 0.739211 -2.518583 0
M  V30 14 C 2.779404 1.265088 -1.391834 0
M  V30 15 C 3.377582 1.688701 -0.435918 0
M  V30 16 C 4.114338 2.190812 0.759797 0
M  V30 17 N 3.201662 2.146156 1.909227 0
M  V30 18 C 3.580042 2.552505 3.215936 0
M  V30 19 O 4.790624 2.942044 3.194106 0
M  V30 20 C 2.774824 2.550361 4.419274 0
M  V30 21 C 3.397766 3.007356 5.560294 0
M  V30 22 C 2.722647 3.050471 6.761753 0
M  V30 23 C 1.399144 2.628291 6.821627 0
M  V30 24 N 0.768573 2.174964 5.713463 0
M  V30 25 C -0.605509 1.715576 5.718869 0 CFG=1
M  V30 26 C -0.640549 0.509103 6.630931 0
M  V30 27 O -1.940875 0.038946 6.664565 0
M  V30 28 C -1.465562 2.806230 6.173291 0
M  V30 29 C -1.793645 2.932805 7.492338 0
M  V30 30 C -2.609657 3.957565 7.939594 0
M  V30 31 C -3.119383 4.889496 7.057513 0
M  V30 32 F -3.915895 5.903809 7.442324 0
M  V30 33 C -2.769425 4.737566 5.720146 0
M  V30 34 F -3.263259 5.649961 4.833359 0
M  V30 35 C -1.953981 3.722109 5.238638 0
M  V30 36 C 1.473230 2.156684 4.578313 0
M  V30 37 O 0.883702 1.739230 3.566283 0
M  V30 38 C 1.721560 -0.598592 -2.448391 0
M  V30 39 C 1.025406 -1.116721 -3.514793 0
M  V30 40 N 0.690424 -2.412343 -3.459553 0
M  V30 41 C -2.546381 -4.933627 -5.028898 0
M  V30 42 C -3.163531 -5.646097 -6.203479 0
M  V30 43 H -3.651011 -8.907341 -6.243555 0
M  V30 44 H -4.777905 -7.475966 -6.319887 0
M  V30 45 H -3.821727 -7.900816 -7.743109 0
M  V30 46 H -3.004458 -7.261123 -4.169900 0
M  V30 47 H -2.054389 -8.567100 -5.006507 0
M  V30 48 H -0.065535 -7.208742 -5.098493 0
M  V30 49 H -0.758010 -6.805249 -3.494633 0
M  V30 50 H -0.737653 -5.317036 -6.117652 0
M  V30 51 H 0.081924 -4.905257 -3.343539 0
M  V30 52 H -0.894673 -2.811436 -6.328050 0
M  V30 53 H 0.703149 1.487001 -5.542151 0
M  V30 54 H 1.978962 2.533141 -3.634768 0
M  V30 55 H 4.391799 3.225513 0.517730 0
M  V30 56 H 5.028935 1.595102 0.921653 0
M  V30 57 H 2.225910 1.801981 1.762816 0
M  V30 58 H 4.434143 3.367412 5.641799 0
M  V30 59 H 3.165947 3.396852 7.681615 0
M  V30 60 H 0.866328 2.661101 7.763072 0
M  V30 61 H -0.906101 1.420370 4.708595 0
M  V30 62 H -0.163401 0.650845 7.592825 0
M  V30 63 H -0.046761 -0.299445 6.110975 0
M  V30 64 H -2.170688 -0.172959 5.710645 0
M  V30 65 H -1.458728 2.277497 8.259171 0
M  V30 66 H -2.899702 4.095812 8.992231 0
M  V30 67 H -1.735053 3.680484 4.178590 0
M  V30 68 H 1.977069 -1.229604 -1.615078 0
M  V30 69 H -3.004666 -5.236181 -4.059864 0
M  V30 70 H -2.582437 -3.839197 -5.088993 0
M  V30 71 H -2.790689 -5.100050 -7.113974 0
M  V30 72 H -4.258466 -5.580392 -6.261147 0
M  V30 END ATOM
M  V30 BEGIN BOND
M  V30 1 1 1 2
M  V30 2 1 2 3
M  V30 3 1 3 4
M  V30 4 1 4 5
M  V30 5 1 5 6
M  V30 6 1 6 7
M  V30 7 2 7 8
M  V30 8 1 8 9
M  V30 9 2 9 10
M  V30 10 1 10 11
M  V30 11 2 11 12
M  V30 12 1 12 13
M  V30 13 1 13 14
M  V30 14 3 14 15
M  V30 15 1 15 16
M  V30 16 1 16 17
M  V30 17 1 17 18
M  V30 18 2 18 19
M  V30 19 1 18 20
M  V30 20 2 20 21
M  V30 21 1 21 22
M  V30 22 2 22 23
M  V30 23 1 23 24
M  V30 24 1 24 25
M  V30 25 1 25 26
M  V30 26 1 26 27
M  V30 27 1 25 28
M  V30 28 2 28 29
M  V30 29 1 29 30
M  V30 30 2 30 31
M  V30 31 1 31 32
M  V30 32 1 31 33
M  V30 33 1 33 34
M  V30 34 2 33 35
M  V30 35 1 24 36
M  V30 36 2 36 37
M  V30 37 2 13 38
M  V30 38 1 38 39
M  V30 39 2 39 40
M  V30 40 1 5 41
M  V30 41 1 41 42
M  V30 42 1 42 2
M  V30 43 1 40 7
M  V30 44 1 39 10
M  V30 45 1 36 20
M  V30 46 1 35 28
M  V30 47 1 1 43
M  V30 48 1 1 44
M  V30 49 1 1 45
M  V30 50 1 3 46
M  V30 51 1 3 47
M  V30 52 1 4 48
M  V30 53 1 4 49
M  V30 54 1 5 50
M  V30 55 1 6 51
M  V30 56 1 8 52
M  V30 57 1 11 53
M  V30 58 1 12 54
M  V30 59 1 16 55
M  V30 60 1 16 56
M  V30 61 1 17 57
M  V30 62 1 21 58
M  V30 63 1 22 59
M  V30 64 1 23 60
M  V30 65 1 25 61 CFG=3
M  V30 66 1 26 62
M  V30 67 1 26 63
M  V30 68 1 27 64
M  V30 69 1 29 65
M  V30 70 1 30 66
M  V30 71 1 35 67
M  V30 72 1 38 68
M  V30 73 1 41 69
M  V30 74 1 41 70
M  V30 75 1 42 71
M  V30 76 1 42 72
M  V30 END BOND
M  V30 END CTAB
M  END
>  <Dataset>  (826) 
ChEMBL_Kinases

>  <Ligand_Instance>  (826) 
nan

>  <PDB_ID>  (826) 
nan

>  <Standardized_SMILES>  (826) 
CN1CCC(Nc2cnc3ccc(C#CCNC(=O)c4cccn([C@@H](CO)c5ccc(F)c(F)c5)c4=O)cc3n2)CC1

>  <Name>  (826) 
nan

>  <Pocket>  (826) 
nan

>  <ATP_Site>  (826) 
nan

>  <Peripheral>  (826) 
nan

>  <Num_H_Atoms_ProtBoundConf>  (826) 
nan

>  <Num_Resolved_Atoms>  (826) 
nan

>  <Num_Not_Resolved_Atoms>  (826) 
nan

$$$$
CHEMBL3689212
     RDKit          3D

  0  0  0  0  0  0  0  0  0  0999 V3000
M  V30 BEGIN CTAB
M  V30 COUNTS 89 95 0 0 0
M  V30 BEGIN ATOM
M  V30 1 O 0.938648 -3.883732 -2.072463 0
M  V30 2 C 1.594173 -4.710715 -1.367734 0
M  V30 3 N 2.821043 -5.187130 -1.692836 0
M  V30 4 C 3.385164 -4.698497 -2.931759 0
M  V30 5 C 3.538374 -3.252106 -2.860643 0
M  V30 6 C 3.685737 -2.056022 -2.797888 0
M  V30 7 C 3.880344 -0.636874 -2.738840 0
M  V30 8 C 4.854169 -0.085485 -3.546650 0
M  V30 9 C 5.183912 1.262948 -3.623393 0
M  V30 10 C 4.433736 2.088899 -2.789110 0
M  V30 11 N 4.732722 3.406386 -2.841727 0
M  V30 12 C 4.031871 4.265793 -2.046945 0
M  V30 13 C 3.040073 3.761215 -1.215475 0
M  V30 14 N 2.291085 4.669969 -0.377963 0
M  V30 15 C 1.277136 4.118090 0.483294 0 CFG=1
M  V30 16 C 1.905779 3.167727 1.459203 0
M  V30 17 C 1.291831 3.281732 2.840105 0
M  V30 18 C -0.214705 3.376193 2.773918 0 CFG=2
M  V30 19 N -0.846796 2.256568 2.186706 0
M  V30 20 C -2.284194 2.270959 2.138462 0
M  V30 21 C -2.748897 0.891256 1.686496 0
M  V30 22 N -1.815531 0.197869 0.866859 0
M  V30 23 C -1.682117 0.643909 -0.476947 0
M  V30 24 C -2.871931 0.399889 -1.342763 0
M  V30 25 C -2.700409 0.888495 -2.776074 0
M  V30 26 C -2.813132 -0.576617 -2.471335 0
M  V30 27 C -0.578872 -0.006483 1.544986 0
M  V30 28 C -0.458293 0.978120 2.718790 0
M  V30 29 C -0.601174 4.631356 2.029973 0
M  V30 30 C 0.559225 5.192166 1.233091 0
M  V30 31 N 2.773647 2.441040 -1.192870 0
M  V30 32 C 3.450644 1.575127 -1.966224 0
M  V30 33 C 3.163968 0.215881 -1.931642 0
M  V30 34 C 0.422319 -4.527316 -0.641429 0
M  V30 35 C 0.997067 -5.481422 0.374687 0
M  V30 36 N 0.478590 -5.960843 1.585936 0
M  V30 37 C -0.764664 -5.527008 1.976931 0
M  V30 38 N -1.354711 -4.672984 1.132601 0
M  V30 39 C -2.641846 -4.077091 1.263402 0
M  V30 40 C -3.729655 -4.919203 0.705427 0
M  V30 41 C -4.342529 -5.822189 1.584949 0
M  V30 42 C -5.358912 -6.639232 1.142189 0
M  V30 43 C -5.828681 -6.628849 -0.148121 0
M  V30 44 F -6.824069 -7.426591 -0.586288 0
M  V30 45 C -5.222393 -5.736075 -1.015410 0
M  V30 46 F -5.664221 -5.705734 -2.291645 0
M  V30 47 C -4.197052 -4.903853 -0.589234 0
M  V30 48 C -0.683996 -4.355668 0.046565 0
M  V30 49 O -1.090136 -3.539737 -0.895759 0
M  V30 50 H 3.041169 -5.823727 -0.904586 0
M  V30 51 H 2.767808 -5.014901 -3.798347 0
M  V30 52 H 4.368693 -5.139047 -3.058364 0
M  V30 53 H 5.439666 -0.731401 -4.196785 0
M  V30 54 H 5.962378 1.609832 -4.285653 0
M  V30 55 H 4.206922 5.352740 -2.025101 0
M  V30 56 H 2.502667 5.685960 -0.419920 0
M  V30 57 H 0.540336 3.627053 -0.184917 0
M  V30 58 H 2.995801 3.400969 1.490628 0
M  V30 59 H 1.844621 2.133060 1.050427 0
M  V30 60 H 1.638456 4.261885 3.233803 0
M  V30 61 H 1.604554 2.523428 3.550617 0
M  V30 62 H -0.578682 3.491798 3.816129 0
M  V30 63 H -2.727519 2.461834 3.157951 0
M  V30 64 H -2.731433 2.980075 1.433107 0
M  V30 65 H -3.735384 0.953424 1.174411 0
M  V30 66 H -2.938483 0.288858 2.597326 0
M  V30 67 H -0.843818 0.042489 -0.929186 0
M  V30 68 H -1.364746 1.696011 -0.611256 0
M  V30 69 H -3.828537 0.690965 -0.882045 0
M  V30 70 H -1.694306 1.182752 -3.136520 0
M  V30 71 H -3.521470 1.404781 -3.284876 0
M  V30 72 H -1.949031 -1.254930 -2.538348 0
M  V30 73 H -3.773286 -1.047208 -2.782124 0
M  V30 74 H 0.249713 0.224965 0.835291 0
M  V30 75 H -0.382641 -1.046859 1.879164 0
M  V30 76 H -1.134007 0.596163 3.515117 0
M  V30 77 H 0.563088 0.877459 3.061032 0
M  V30 78 H -1.432846 4.459420 1.326804 0
M  V30 79 H -0.924321 5.425187 2.722092 0
M  V30 80 H 0.174249 5.910374 0.471642 0
M  V30 81 H 1.260122 5.766445 1.870645 0
M  V30 82 H 2.403004 -0.206830 -1.298643 0
M  V30 83 H 1.905319 -6.125855 0.609766 0
M  V30 84 H -1.425783 -5.683682 2.799099 0
M  V30 85 H -2.861261 -3.941487 2.357248 0
M  V30 86 H -2.669161 -3.077798 0.839326 0
M  V30 87 H -4.039927 -5.906164 2.638276 0
M  V30 88 H -5.817781 -7.333788 1.860096 0
M  V30 89 H -3.725907 -4.207741 -1.268192 0
M  V30 END ATOM
M  V30 BEGIN BOND
M  V30 1 2 1 2
M  V30 2 1 2 3
M  V30 3 1 3 4
M  V30 4 1 4 5
M  V30 5 3 5 6
M  V30 6 1 6 7
M  V30 7 2 7 8
M  V30 8 1 8 9
M  V30 9 2 9 10
M  V30 10 1 10 11
M  V30 11 2 11 12
M  V30 12 1 12 13
M  V30 13 1 13 14
M  V30 14 1 14 15
M  V30 15 1 15 16
M  V30 16 1 16 17
M  V30 17 1 17 18
M  V30 18 1 18 19
M  V30 19 1 19 20
M  V30 20 1 20 21
M  V30 21 1 21 22
M  V30 22 1 22 23
M  V30 23 1 23 24
M  V30 24 1 24 25
M  V30 25 1 25 26
M  V30 26 1 22 27
M  V30 27 1 27 28
M  V30 28 1 18 29
M  V30 29 1 29 30
M  V30 30 2 13 31
M  V30 31 1 31 32
M  V30 32 2 32 33
M  V30 33 1 2 34
M  V30 34 2 34 35
M  V30 35 1 35 36
M  V30 36 2 36 37
M  V30 37 1 37 38
M  V30 38 1 38 39
M  V30 39 1 39 40
M  V30 40 2 40 41
M  V30 41 1 41 42
M  V30 42 2 42 43
M  V30 43 1 43 44
M  V30 44 1 43 45
M  V30 45 1 45 46
M  V30 46 2 45 47
M  V30 47 1 38 48
M  V30 48 2 48 49
M  V30 49 1 33 7
M  V30 50 1 48 34
M  V30 51 1 32 10
M  V30 52 1 47 40
M  V30 53 1 30 15
M  V30 54 1 28 19
M  V30 55 1 26 24
M  V30 56 1 3 50
M  V30 57 1 4 51
M  V30 58 1 4 52
M  V30 59 1 8 53
M  V30 60 1 9 54
M  V30 61 1 12 55
M  V30 62 1 14 56
M  V30 63 1 15 57 CFG=3
M  V30 64 1 16 58
M  V30 65 1 16 59
M  V30 66 1 17 60
M  V30 67 1 17 61
M  V30 68 1 18 62 CFG=1
M  V30 69 1 20 63
M  V30 70 1 20 64
M  V30 71 1 21 65
M  V30 72 1 21 66
M  V30 73 1 23 67
M  V30 74 1 23 68
M  V30 75 1 24 69
M  V30 76 1 25 70
M  V30 77 1 25 71
M  V30 78 1 26 72
M  V30 79 1 26 73
M  V30 80 1 27 74
M  V30 81 1 27 75
M  V30 82 1 28 76
M  V30 83 1 28 77
M  V30 84 1 29 78
M  V30 85 1 29 79
M  V30 86 1 30 80
M  V30 87 1 30 81
M  V30 88 1 33 82
M  V30 89 1 35 83
M  V30 90 1 37 84
M  V30 91 1 39 85
M  V30 92 1 39 86
M  V30 93 1 41 87
M  V30 94 1 42 88
M  V30 95 1 47 89
M  V30 END BOND
M  V30 END CTAB
M  END
>  <Dataset>  (827) 
ChEMBL_Kinases

>  <Ligand_Instance>  (827) 
nan

>  <PDB_ID>  (827) 
nan

>  <Standardized_SMILES>  (827) 
O=C(NCC#Cc1ccc2ncc(N[C@H]3CC[C@H](N4CCN(CC5CC5)CC4)CC3)nc2c1)c1cncn(Cc2ccc(F)c(F)c2)c1=O

>  <Name>  (827) 
nan

>  <Pocket>  (827) 
nan

>  <ATP_Site>  (827) 
nan

>  <Peripheral>  (827) 
nan

>  <Num_H_Atoms_ProtBoundConf>  (827) 
nan

>  <Num_Resolved_Atoms>  (827) 
nan

>  <Num_Not_Resolved_Atoms>  (827) 
nan

$$$$
CHEMBL3689213
     RDKit          3D

  0  0  0  0  0  0  0  0  0  0999 V3000
M  V30 BEGIN CTAB
M  V30 COUNTS 73 77 0 0 0
M  V30 BEGIN ATOM
M  V30 1 C 5.713773 -4.588041 0.547469 0
M  V30 2 N 4.857502 -3.501613 0.928566 0
M  V30 3 C 3.631940 -3.947832 1.561753 0
M  V30 4 C 4.630434 -2.502590 -0.061612 0 CFG=1
M  V30 5 C 5.890736 -1.829536 -0.522033 0
M  V30 6 C 5.479831 -0.440485 -1.001794 0
M  V30 7 C 4.289616 -0.586004 -1.913101 0 CFG=2
M  V30 8 N 3.070812 -0.217020 -1.189941 0
M  V30 9 C 2.755331 1.043684 -0.623611 0
M  V30 10 C 3.493541 2.200466 -0.696829 0
M  V30 11 N 3.110740 3.357066 -0.075573 0
M  V30 12 C 1.971456 3.369937 0.636490 0
M  V30 13 C 1.472256 4.453989 1.326156 0
M  V30 14 C 0.302301 4.430574 2.064773 0
M  V30 15 C -0.437036 3.275537 2.141757 0
M  V30 16 C -1.647734 3.079299 2.881039 0
M  V30 17 C -2.653781 2.901155 3.514595 0
M  V30 18 C -3.863942 2.664056 4.293728 0
M  V30 19 N -4.930391 2.054061 3.504926 0
M  V30 20 C -4.511698 0.855845 2.972047 0
M  V30 21 O -3.407461 0.236666 3.051474 0
M  V30 22 C -4.975874 -0.184794 2.174495 0
M  V30 23 C -6.423429 0.253236 2.030478 0
M  V30 24 N -7.429039 -0.404384 1.319032 0
M  V30 25 C -7.098138 -1.586016 0.664274 0
M  V30 26 N -5.786280 -2.092560 0.723507 0
M  V30 27 C -5.332962 -3.277243 0.075297 0
M  V30 28 C -4.923072 -2.845031 -1.313073 0
M  V30 29 C -5.818625 -2.849867 -2.360664 0
M  V30 30 C -5.478963 -2.443973 -3.650604 0
M  V30 31 C -4.194579 -2.019513 -3.899541 0
M  V30 32 F -3.874398 -1.627042 -5.157656 0
M  V30 33 C -3.302891 -2.015457 -2.856156 0
M  V30 34 F -2.052038 -1.594226 -3.126207 0
M  V30 35 C -3.616980 -2.412929 -1.566068 0
M  V30 36 C -5.408521 -1.145009 1.436936 0
M  V30 37 O -4.087722 -1.570637 1.551143 0
M  V30 38 C 0.043000 2.176108 1.456458 0
M  V30 39 C 1.211616 2.226752 0.727691 0
M  V30 40 N 1.625172 1.119667 0.102044 0
M  V30 41 C 4.142189 -1.993184 -2.445277 0
M  V30 42 C 3.907781 -2.965684 -1.301633 0
M  V30 43 H 6.533606 -4.643144 1.296235 0
M  V30 44 H 6.094471 -4.556907 -0.481791 0
M  V30 45 H 5.123881 -5.536540 0.714945 0
M  V30 46 H 3.591243 -5.039825 1.738782 0
M  V30 47 H 3.565199 -3.448314 2.547358 0
M  V30 48 H 2.741599 -3.588049 0.967094 0
M  V30 49 H 4.002114 -1.719357 0.417966 0
M  V30 50 H 6.555576 -1.728010 0.388033 0
M  V30 51 H 6.407037 -2.389308 -1.340847 0
M  V30 52 H 5.147210 0.109764 -0.070831 0
M  V30 53 H 6.363388 0.018538 -1.458934 0
M  V30 54 H 4.397837 0.098675 -2.750025 0
M  V30 55 H 2.358599 -0.988248 -1.100607 0
M  V30 56 H 4.401354 2.152047 -1.278899 0
M  V30 57 H 2.041195 5.381760 1.278608 0
M  V30 58 H -0.088170 5.266967 2.601709 0
M  V30 59 H -4.313364 3.625070 4.680092 0
M  V30 60 H -3.642067 2.021415 5.170866 0
M  V30 61 H -5.899014 2.290695 3.249948 0
M  V30 62 H -7.140560 1.098053 2.361598 0
M  V30 63 H -7.868420 -2.145406 0.083493 0
M  V30 64 H -6.048829 -4.092858 0.086797 0
M  V30 65 H -4.360128 -3.555764 0.573658 0
M  V30 66 H -6.817799 -3.201127 -2.092855 0
M  V30 67 H -6.283333 -2.490079 -4.403098 0
M  V30 68 H -2.872610 -2.389623 -0.774061 0
M  V30 69 H -0.493158 1.226942 1.469354 0
M  V30 70 H 3.251105 -2.019687 -3.086754 0
M  V30 71 H 5.014811 -2.302526 -3.039994 0
M  V30 72 H 4.303378 -3.940924 -1.614495 0
M  V30 73 H 2.830110 -3.077282 -1.094974 0
M  V30 END ATOM
M  V30 BEGIN BOND
M  V30 1 1 1 2
M  V30 2 1 2 3
M  V30 3 1 2 4
M  V30 4 1 4 5
M  V30 5 1 5 6
M  V30 6 1 6 7
M  V30 7 1 7 8
M  V30 8 1 8 9
M  V30 9 2 9 10
M  V30 10 1 10 11
M  V30 11 2 11 12
M  V30 12 1 12 13
M  V30 13 2 13 14
M  V30 14 1 14 15
M  V30 15 1 15 16
M  V30 16 3 16 17
M  V30 17 1 17 18
M  V30 18 1 18 19
M  V30 19 1 19 20
M  V30 20 2 20 21
M  V30 21 1 20 22
M  V30 22 2 22 23
M  V30 23 1 23 24
M  V30 24 2 24 25
M  V30 25 1 25 26
M  V30 26 1 26 27
M  V30 27 1 27 28
M  V30 28 2 28 29
M  V30 29 1 29 30
M  V30 30 2 30 31
M  V30 31 1 31 32
M  V30 32 1 31 33
M  V30 33 1 33 34
M  V30 34 2 33 35
M  V30 35 1 26 36
M  V30 36 2 36 37
M  V30 37 2 15 38
M  V30 38 1 38 39
M  V30 39 2 39 40
M  V30 40 1 7 41
M  V30 41 1 41 42
M  V30 42 1 42 4
M  V30 43 1 40 9
M  V30 44 1 39 12
M  V30 45 1 36 22
M  V30 46 1 35 28
M  V30 47 1 1 43
M  V30 48 1 1 44
M  V30 49 1 1 45
M  V30 50 1 3 46
M  V30 51 1 3 47
M  V30 52 1 3 48
M  V30 53 1 4 49 CFG=1
M  V30 54 1 5 50
M  V30 55 1 5 51
M  V30 56 1 6 52
M  V30 57 1 6 53
M  V30 58 1 7 54 CFG=3
M  V30 59 1 8 55
M  V30 60 1 10 56
M  V30 61 1 13 57
M  V30 62 1 14 58
M  V30 63 1 18 59
M  V30 64 1 18 60
M  V30 65 1 19 61
M  V30 66 1 23 62
M  V30 67 1 25 63
M  V30 68 1 27 64
M  V30 69 1 27 65
M  V30 70 1 29 66
M  V30 71 1 30 67
M  V30 72 1 35 68
M  V30 73 1 38 69
M  V30 74 1 41 70
M  V30 75 1 41 71
M  V30 76 1 42 72
M  V30 77 1 42 73
M  V30 END BOND
M  V30 END CTAB
M  END
>  <Dataset>  (828) 
ChEMBL_Kinases

>  <Ligand_Instance>  (828) 
nan

>  <PDB_ID>  (828) 
nan

>  <Standardized_SMILES>  (828) 
CN(C)[C@H]1CC[C@H](Nc2cnc3ccc(C#CCNC(=O)c4cncn(Cc5ccc(F)c(F)c5)c4=O)cc3n2)CC1

>  <Name>  (828) 
nan

>  <Pocket>  (828) 
nan

>  <ATP_Site>  (828) 
nan

>  <Peripheral>  (828) 
nan

>  <Num_H_Atoms_ProtBoundConf>  (828) 
nan

>  <Num_Resolved_Atoms>  (828) 
nan

>  <Num_Not_Resolved_Atoms>  (828) 
nan

$$$$
CHEMBL3689205
     RDKit          3D

  0  0  0  0  0  0  0  0  0  0999 V3000
M  V30 BEGIN CTAB
M  V30 COUNTS 67 71 0 0 0
M  V30 BEGIN ATOM
M  V30 1 N 5.259390 -3.477891 3.867861 0
M  V30 2 C 4.176874 -2.632260 3.380916 0 CFG=1
M  V30 3 C 4.576828 -1.198384 3.370437 0
M  V30 4 C 5.120148 -0.704190 2.054443 0
M  V30 5 C 5.479348 -1.839220 1.156857 0 CFG=2
M  V30 6 N 6.146521 -1.332616 -0.011797 0
M  V30 7 C 5.600358 -0.435951 -0.972324 0
M  V30 8 C 6.260573 0.056506 -2.105719 0
M  V30 9 N 5.629136 0.900506 -2.941695 0
M  V30 10 C 4.363423 1.313807 -2.750782 0
M  V30 11 C 3.706898 2.177447 -3.600878 0
M  V30 12 C 2.404730 2.549312 -3.327605 0
M  V30 13 C 1.715227 2.085615 -2.217721 0
M  V30 14 C 0.352732 2.475474 -1.934450 0
M  V30 15 C -0.801594 2.796255 -1.704476 0
M  V30 16 C -2.195569 3.178689 -1.443691 0
M  V30 17 N -2.839015 2.196271 -0.554065 0
M  V30 18 C -2.858695 0.882193 -1.097347 0
M  V30 19 O -2.294267 0.914956 -2.246317 0
M  V30 20 C -3.410509 -0.320493 -0.494147 0
M  V30 21 C -3.269194 -1.460344 -1.292197 0
M  V30 22 N -3.708285 -2.658309 -0.919333 0
M  V30 23 C -4.317706 -2.833379 0.259236 0
M  V30 24 N -4.463431 -1.756953 1.038048 0
M  V30 25 C -5.122298 -1.919082 2.318470 0
M  V30 26 C -6.578233 -1.707096 2.111103 0
M  V30 27 C -7.349488 -2.813703 1.778917 0
M  V30 28 C -8.708332 -2.748240 1.560880 0
M  V30 29 C -9.370722 -1.544183 1.668220 0
M  V30 30 F -10.701247 -1.381030 1.472830 0
M  V30 31 C -8.620612 -0.434091 1.997471 0
M  V30 32 F -9.187945 0.787067 2.123858 0
M  V30 33 C -7.258588 -0.516530 2.213001 0
M  V30 34 C -4.040274 -0.524967 0.713317 0
M  V30 35 O -4.151168 0.497673 1.396759 0
M  V30 36 C 2.387562 1.208351 -1.357561 0
M  V30 37 C 3.698635 0.839461 -1.640712 0
M  V30 38 N 4.329121 -0.003080 -0.806377 0
M  V30 39 C 4.239759 -2.611280 0.852551 0
M  V30 40 C 3.637729 -3.175391 2.106651 0
M  V30 41 H 4.869072 -4.395504 4.183558 0
M  V30 42 H 5.829810 -3.003879 4.593547 0
M  V30 43 H 3.379604 -2.724488 4.177782 0
M  V30 44 H 5.425188 -1.089831 4.107896 0
M  V30 45 H 3.792081 -0.499911 3.725987 0
M  V30 46 H 6.035999 -0.075135 2.191642 0
M  V30 47 H 4.354855 -0.079800 1.556873 0
M  V30 48 H 6.195976 -2.510760 1.675998 0
M  V30 49 H 7.143190 -1.603992 -0.254357 0
M  V30 50 H 7.276674 -0.287781 -2.241150 0
M  V30 51 H 4.258999 2.532551 -4.465625 0
M  V30 52 H 1.910013 3.226934 -4.007440 0
M  V30 53 H -2.272294 4.184852 -1.033061 0
M  V30 54 H -2.739902 3.073426 -2.401893 0
M  V30 55 H -3.266033 2.335476 0.387927 0
M  V30 56 H -2.797321 -1.462293 -2.266216 0
M  V30 57 H -4.671486 -3.815590 0.552290 0
M  V30 58 H -4.772290 -1.188953 3.077915 0
M  V30 59 H -4.981485 -2.955146 2.707191 0
M  V30 60 H -6.878778 -3.787864 1.681485 0
M  V30 61 H -9.291767 -3.615419 1.304459 0
M  V30 62 H -6.670719 0.350228 2.471264 0
M  V30 63 H 1.876856 0.823617 -0.475672 0
M  V30 64 H 3.457077 -1.948405 0.392044 0
M  V30 65 H 4.449146 -3.484169 0.168924 0
M  V30 66 H 2.515980 -3.034450 2.121872 0
M  V30 67 H 3.744501 -4.294846 2.148900 0
M  V30 END ATOM
M  V30 BEGIN BOND
M  V30 1 1 1 2
M  V30 2 1 2 3
M  V30 3 1 3 4
M  V30 4 1 4 5
M  V30 5 1 5 6
M  V30 6 1 6 7
M  V30 7 2 7 8
M  V30 8 1 8 9
M  V30 9 2 9 10
M  V30 10 1 10 11
M  V30 11 2 11 12
M  V30 12 1 12 13
M  V30 13 1 13 14
M  V30 14 3 14 15
M  V30 15 1 15 16
M  V30 16 1 16 17
M  V30 17 1 17 18
M  V30 18 2 18 19
M  V30 19 1 18 20
M  V30 20 2 20 21
M  V30 21 1 21 22
M  V30 22 2 22 23
M  V30 23 1 23 24
M  V30 24 1 24 25
M  V30 25 1 25 26
M  V30 26 2 26 27
M  V30 27 1 27 28
M  V30 28 2 28 29
M  V30 29 1 29 30
M  V30 30 1 29 31
M  V30 31 1 31 32
M  V30 32 2 31 33
M  V30 33 1 24 34
M  V30 34 2 34 35
M  V30 35 2 13 36
M  V30 36 1 36 37
M  V30 37 2 37 38
M  V30 38 1 5 39
M  V30 39 1 39 40
M  V30 40 1 40 2
M  V30 41 1 38 7
M  V30 42 1 37 10
M  V30 43 1 34 20
M  V30 44 1 33 26
M  V30 45 1 1 41
M  V30 46 1 1 42
M  V30 47 1 2 43 CFG=1
M  V30 48 1 3 44
M  V30 49 1 3 45
M  V30 50 1 4 46
M  V30 51 1 4 47
M  V30 52 1 5 48 CFG=1
M  V30 53 1 6 49
M  V30 54 1 8 50
M  V30 55 1 11 51
M  V30 56 1 12 52
M  V30 57 1 16 53
M  V30 58 1 16 54
M  V30 59 1 17 55
M  V30 60 1 21 56
M  V30 61 1 23 57
M  V30 62 1 25 58
M  V30 63 1 25 59
M  V30 64 1 27 60
M  V30 65 1 28 61
M  V30 66 1 33 62
M  V30 67 1 36 63
M  V30 68 1 39 64
M  V30 69 1 39 65
M  V30 70 1 40 66
M  V30 71 1 40 67
M  V30 END BOND
M  V30 END CTAB
M  END
>  <Dataset>  (829) 
ChEMBL_Kinases

>  <Ligand_Instance>  (829) 
nan

>  <PDB_ID>  (829) 
nan

>  <Standardized_SMILES>  (829) 
N[C@H]1CC[C@H](Nc2cnc3ccc(C#CCNC(=O)c4cncn(Cc5ccc(F)c(F)c5)c4=O)cc3n2)CC1

>  <Name>  (829) 
nan

>  <Pocket>  (829) 
nan

>  <ATP_Site>  (829) 
nan

>  <Peripheral>  (829) 
nan

>  <Num_H_Atoms_ProtBoundConf>  (829) 
nan

>  <Num_Resolved_Atoms>  (829) 
nan

>  <Num_Not_Resolved_Atoms>  (829) 
nan

$$$$
CHEMBL3689427
     RDKit          3D

  0  0  0  0  0  0  0  0  0  0999 V3000
M  V30 BEGIN CTAB
M  V30 COUNTS 50 53 0 0 0
M  V30 BEGIN ATOM
M  V30 1 C 1.004123 -5.084836 0.623385 0
M  V30 2 S 2.275055 -5.291292 -0.580838 0
M  V30 3 O 1.719653 -5.975342 -1.778477 0
M  V30 4 O 3.285918 -6.254047 0.026079 0
M  V30 5 N 3.124970 -3.855381 -0.941633 0
M  V30 6 C 2.451330 -2.734106 -1.494932 0
M  V30 7 C 1.562979 -2.934745 -2.528460 0
M  V30 8 C 0.942588 -1.804303 -3.020786 0
M  V30 9 C 1.206730 -0.554945 -2.498596 0
M  V30 10 C 2.109171 -0.366579 -1.451351 0
M  V30 11 C 2.260428 1.047820 -1.033979 0
M  V30 12 N 1.320222 1.430275 -0.038557 0
M  V30 13 C 1.399183 2.776467 0.398782 0
M  V30 14 C 0.796579 2.867930 1.780946 0
M  V30 15 C 0.961391 1.471614 2.336291 0
M  V30 16 N -0.162962 0.964983 3.044565 0
M  V30 17 C -1.499373 0.753185 2.627561 0
M  V30 18 C -2.003430 1.017640 1.374026 0
M  V30 19 C -3.299926 0.809657 0.972923 0
M  V30 20 C -4.171337 0.298810 1.882887 0
M  V30 21 N -5.469614 -0.018894 1.829377 0
M  V30 22 N -5.874700 -0.484410 2.977308 0
M  V30 23 C -4.827051 -0.488995 3.850214 0
M  V30 24 C -3.745527 0.007299 3.158529 0
M  V30 25 C -2.443528 0.238953 3.488806 0
M  V30 26 C 1.231095 0.636604 1.124827 0
M  V30 27 C 2.727640 -1.492328 -0.960507 0
M  V30 28 H 1.000654 -5.887168 1.388525 0
M  V30 29 H 1.065687 -4.096509 1.105995 0
M  V30 30 H -0.016411 -5.150688 0.147460 0
M  V30 31 H 4.167311 -3.715701 -0.781870 0
M  V30 32 H 1.410537 -3.938262 -2.880952 0
M  V30 33 H 0.235987 -1.959361 -3.842287 0
M  V30 34 H 0.649512 0.267750 -2.975504 0
M  V30 35 H 2.147689 1.736533 -1.893421 0
M  V30 36 H 3.317018 1.145200 -0.665326 0
M  V30 37 H 2.404200 3.236284 0.332617 0
M  V30 38 H 0.714448 3.390517 -0.257128 0
M  V30 39 H 1.363376 3.620627 2.367354 0
M  V30 40 H -0.259035 3.161488 1.803100 0
M  V30 41 H 1.856076 1.514698 3.006815 0
M  V30 42 H 0.023203 0.700750 4.048926 0
M  V30 43 H -1.358024 1.423866 0.614538 0
M  V30 44 H -3.641736 1.034183 -0.021042 0
M  V30 45 H -6.079347 0.091167 0.980414 0
M  V30 46 H -4.801901 -0.802468 4.867695 0
M  V30 47 H -2.163916 -0.009201 4.507316 0
M  V30 48 H 0.429959 -0.121400 0.953796 0
M  V30 49 H 2.135830 0.032274 1.347507 0
M  V30 50 H 3.418797 -1.297048 -0.153655 0
M  V30 END ATOM
M  V30 BEGIN BOND
M  V30 1 1 1 2
M  V30 2 2 2 3
M  V30 3 2 2 4
M  V30 4 1 2 5
M  V30 5 1 5 6
M  V30 6 2 6 7
M  V30 7 1 7 8
M  V30 8 2 8 9
M  V30 9 1 9 10
M  V30 10 1 10 11
M  V30 11 1 11 12
M  V30 12 1 12 13
M  V30 13 1 13 14
M  V30 14 1 14 15
M  V30 15 1 15 16
M  V30 16 1 16 17
M  V30 17 2 17 18
M  V30 18 1 18 19
M  V30 19 2 19 20
M  V30 20 1 20 21
M  V30 21 1 21 22
M  V30 22 2 22 23
M  V30 23 1 23 24
M  V30 24 2 24 25
M  V30 25 1 15 26
M  V30 26 2 10 27
M  V30 27 1 27 6
M  V30 28 1 26 12
M  V30 29 1 25 17
M  V30 30 1 24 20
M  V30 31 1 1 28
M  V30 32 1 1 29
M  V30 33 1 1 30
M  V30 34 1 5 31
M  V30 35 1 7 32
M  V30 36 1 8 33
M  V30 37 1 9 34
M  V30 38 1 11 35
M  V30 39 1 11 36
M  V30 40 1 13 37
M  V30 41 1 13 38
M  V30 42 1 14 39
M  V30 43 1 14 40
M  V30 44 1 15 41
M  V30 45 1 16 42
M  V30 46 1 18 43
M  V30 47 1 19 44
M  V30 48 1 21 45
M  V30 49 1 23 46
M  V30 50 1 25 47
M  V30 51 1 26 48
M  V30 52 1 26 49
M  V30 53 1 27 50
M  V30 END BOND
M  V30 END CTAB
M  END
>  <Dataset>  (830) 
ChEMBL_Kinases

>  <Ligand_Instance>  (830) 
nan

>  <PDB_ID>  (830) 
nan

>  <Standardized_SMILES>  (830) 
CS(=O)(=O)Nc1cccc(CN2CCC(Nc3ccc4[nH]ncc4c3)C2)c1

>  <Name>  (830) 
nan

>  <Pocket>  (830) 
nan

>  <ATP_Site>  (830) 
nan

>  <Peripheral>  (830) 
nan

>  <Num_H_Atoms_ProtBoundConf>  (830) 
nan

>  <Num_Resolved_Atoms>  (830) 
nan

>  <Num_Not_Resolved_Atoms>  (830) 
nan

$$$$
CHEMBL3689426
     RDKit          3D

  0  0  0  0  0  0  0  0  0  0999 V3000
M  V30 BEGIN CTAB
M  V30 COUNTS 52 55 0 0 0
M  V30 BEGIN ATOM
M  V30 1 O 1.078061 -5.663943 1.598771 0
M  V30 2 C 0.683339 -5.176249 0.506863 0
M  V30 3 O -0.059188 -5.986303 -0.373017 0
M  V30 4 C 1.059490 -3.750484 0.262486 0
M  V30 5 O 0.578711 -3.284676 -0.982857 0
M  V30 6 C 0.788878 -1.995113 -1.453306 0
M  V30 7 C 0.297759 -1.589729 -2.680700 0
M  V30 8 C 0.520706 -0.312500 -3.118340 0
M  V30 9 C 1.222705 0.617655 -2.391776 0
M  V30 10 C 1.721991 0.239744 -1.167076 0
M  V30 11 C 2.490027 1.200779 -0.343449 0
M  V30 12 N 1.719258 1.992697 0.538433 0
M  V30 13 C 2.378613 2.922499 1.363999 0
M  V30 14 C 2.034518 2.805477 2.832528 0
M  V30 15 C 1.340952 1.496414 3.133164 0
M  V30 16 C 0.086128 1.314712 2.278210 0
M  V30 17 N -0.311479 -0.070383 2.427266 0
M  V30 18 C -1.474477 -0.633131 1.836731 0
M  V30 19 C -2.367227 0.075663 1.062262 0
M  V30 20 C -3.499983 -0.451206 0.478444 0
M  V30 21 C -3.791237 -1.778848 0.661920 0
M  V30 22 N -4.801437 -2.552056 0.226218 0
M  V30 23 N -4.620701 -3.779565 0.686418 0
M  V30 24 C -3.491822 -3.802113 1.421499 0
M  V30 25 C -2.933567 -2.539187 1.428362 0
M  V30 26 C -1.815717 -1.958450 1.987382 0
M  V30 27 C 0.402007 1.601305 0.838316 0
M  V30 28 C 1.497841 -1.058738 -0.717130 0
M  V30 29 H -0.003007 -7.005606 -0.310072 0
M  V30 30 H 2.180714 -3.642067 0.254710 0
M  V30 31 H 0.685570 -3.093024 1.070036 0
M  V30 32 H -0.271072 -2.271281 -3.318484 0
M  V30 33 H 0.149920 0.055981 -4.087781 0
M  V30 34 H 1.418889 1.633153 -2.703175 0
M  V30 35 H 3.119860 1.849702 -1.019461 0
M  V30 36 H 3.251701 0.585934 0.210815 0
M  V30 37 H 2.264860 3.988207 1.056603 0
M  V30 38 H 3.484473 2.728880 1.298271 0
M  V30 39 H 1.317784 3.616380 3.076136 0
M  V30 40 H 2.911125 2.886741 3.494818 0
M  V30 41 H 2.010145 0.645471 2.894970 0
M  V30 42 H 1.020730 1.418901 4.173976 0
M  V30 43 H -0.665252 2.016806 2.637740 0
M  V30 44 H 0.265745 -0.754860 3.004062 0
M  V30 45 H -2.213673 1.116043 0.874568 0
M  V30 46 H -4.174695 0.142503 -0.123206 0
M  V30 47 H -5.600727 -2.262733 -0.370755 0
M  V30 48 H -3.015121 -4.628098 1.960575 0
M  V30 49 H -1.179704 -2.616342 2.582001 0
M  V30 50 H 0.063788 0.734496 0.235971 0
M  V30 51 H -0.280396 2.439420 0.501219 0
M  V30 52 H 1.888535 -1.365421 0.248529 0
M  V30 END ATOM
M  V30 BEGIN BOND
M  V30 1 2 1 2
M  V30 2 1 2 3
M  V30 3 1 2 4
M  V30 4 1 4 5
M  V30 5 1 5 6
M  V30 6 2 6 7
M  V30 7 1 7 8
M  V30 8 2 8 9
M  V30 9 1 9 10
M  V30 10 1 10 11
M  V30 11 1 11 12
M  V30 12 1 12 13
M  V30 13 1 13 14
M  V30 14 1 14 15
M  V30 15 1 15 16
M  V30 16 1 16 17
M  V30 17 1 17 18
M  V30 18 2 18 19
M  V30 19 1 19 20
M  V30 20 2 20 21
M  V30 21 1 21 22
M  V30 22 1 22 23
M  V30 23 2 23 24
M  V30 24 1 24 25
M  V30 25 2 25 26
M  V30 26 1 16 27
M  V30 27 2 10 28
M  V30 28 1 28 6
M  V30 29 1 27 12
M  V30 30 1 26 18
M  V30 31 1 25 21
M  V30 32 1 3 29
M  V30 33 1 4 30
M  V30 34 1 4 31
M  V30 35 1 7 32
M  V30 36 1 8 33
M  V30 37 1 9 34
M  V30 38 1 11 35
M  V30 39 1 11 36
M  V30 40 1 13 37
M  V30 41 1 13 38
M  V30 42 1 14 39
M  V30 43 1 14 40
M  V30 44 1 15 41
M  V30 45 1 15 42
M  V30 46 1 16 43
M  V30 47 1 17 44
M  V30 48 1 19 45
M  V30 49 1 20 46
M  V30 50 1 22 47
M  V30 51 1 24 48
M  V30 52 1 26 49
M  V30 53 1 27 50
M  V30 54 1 27 51
M  V30 55 1 28 52
M  V30 END BOND
M  V30 END CTAB
M  END
>  <Dataset>  (831) 
ChEMBL_Kinases

>  <Ligand_Instance>  (831) 
nan

>  <PDB_ID>  (831) 
nan

>  <Standardized_SMILES>  (831) 
O=C(O)COc1cccc(CN2CCCC(Nc3ccc4[nH]ncc4c3)C2)c1

>  <Name>  (831) 
nan

>  <Pocket>  (831) 
nan

>  <ATP_Site>  (831) 
nan

>  <Peripheral>  (831) 
nan

>  <Num_H_Atoms_ProtBoundConf>  (831) 
nan

>  <Num_Resolved_Atoms>  (831) 
nan

>  <Num_Not_Resolved_Atoms>  (831) 
nan

$$$$
CHEMBL3689425
     RDKit          3D

  0  0  0  0  0  0  0  0  0  0999 V3000
M  V30 BEGIN CTAB
M  V30 COUNTS 54 57 0 0 0
M  V30 BEGIN ATOM
M  V30 1 N 2.032946 -4.090612 3.963772 0
M  V30 2 C 1.992516 -4.440013 2.557822 0
M  V30 3 C 2.093479 -3.169757 1.772712 0
M  V30 4 O 3.279413 -2.452146 2.020928 0
M  V30 5 C 3.513669 -1.248366 1.367966 0
M  V30 6 C 4.639760 -0.474866 1.542997 0
M  V30 7 C 4.777760 0.720669 0.837430 0
M  V30 8 C 3.822944 1.169444 -0.040779 0
M  V30 9 C 2.677560 0.432662 -0.252179 0
M  V30 10 C 1.536643 0.792101 -1.174436 0
M  V30 11 N 0.527416 1.513709 -0.564829 0
M  V30 12 C 0.711290 2.760209 0.030985 0
M  V30 13 C 0.391562 2.566961 1.514003 0
M  V30 14 C -0.401964 1.344035 1.751532 0
M  V30 15 C -1.406542 1.018310 0.680098 0
M  V30 16 N -1.910477 -0.332444 0.797710 0
M  V30 17 C -2.920325 -0.924928 -0.004086 0
M  V30 18 C -3.587769 -0.267900 -1.015684 0
M  V30 19 C -4.566315 -0.840446 -1.802246 0
M  V30 20 C -4.901848 -2.160437 -1.561847 0
M  V30 21 N -5.761033 -3.066442 -2.069523 0
M  V30 22 N -5.662919 -4.228747 -1.437253 0
M  V30 23 C -4.729616 -4.147282 -0.476479 0
M  V30 24 C -4.259115 -2.852648 -0.560498 0
M  V30 25 C -3.289541 -2.227467 0.192339 0
M  V30 26 C -0.833983 1.195283 -0.708610 0
M  V30 27 C 2.588454 -0.756058 0.479019 0
M  V30 28 H 2.926627 -4.307934 4.422167 0
M  V30 29 H 1.738515 -3.102950 4.101364 0
M  V30 30 H 0.961486 -4.841919 2.360842 0
M  V30 31 H 2.737005 -5.195550 2.277426 0
M  V30 32 H 1.265892 -2.503609 2.091796 0
M  V30 33 H 2.015310 -3.327642 0.677590 0
M  V30 34 H 5.393646 -0.831747 2.237197 0
M  V30 35 H 5.677756 1.334053 0.979761 0
M  V30 36 H 3.891767 2.089168 -0.605756 0
M  V30 37 H 1.120983 -0.195545 -1.513842 0
M  V30 38 H 1.960780 1.232001 -2.111933 0
M  V30 39 H 1.691812 3.243949 -0.115790 0
M  V30 40 H -0.030815 3.517208 -0.363528 0
M  V30 41 H -0.117132 3.472262 1.902630 0
M  V30 42 H 1.407893 2.483721 1.999471 0
M  V30 43 H 0.298150 0.469925 1.806884 0
M  V30 44 H -0.884678 1.425442 2.739508 0
M  V30 45 H -2.260207 1.707977 0.800751 0
M  V30 46 H -1.476870 -0.913420 1.551887 0
M  V30 47 H -3.367235 0.758542 -1.238006 0
M  V30 48 H -5.080852 -0.316924 -2.591180 0
M  V30 49 H -6.406360 -2.822201 -2.870912 0
M  V30 50 H -4.431335 -4.940170 0.201467 0
M  V30 51 H -2.783983 -2.777860 0.982752 0
M  V30 52 H -1.039577 0.280404 -1.300321 0
M  V30 53 H -1.360916 2.056227 -1.179845 0
M  V30 54 H 1.689331 -1.349683 0.325453 0
M  V30 END ATOM
M  V30 BEGIN BOND
M  V30 1 1 1 2
M  V30 2 1 2 3
M  V30 3 1 3 4
M  V30 4 1 4 5
M  V30 5 2 5 6
M  V30 6 1 6 7
M  V30 7 2 7 8
M  V30 8 1 8 9
M  V30 9 1 9 10
M  V30 10 1 10 11
M  V30 11 1 11 12
M  V30 12 1 12 13
M  V30 13 1 13 14
M  V30 14 1 14 15
M  V30 15 1 15 16
M  V30 16 1 16 17
M  V30 17 2 17 18
M  V30 18 1 18 19
M  V30 19 2 19 20
M  V30 20 1 20 21
M  V30 21 1 21 22
M  V30 22 2 22 23
M  V30 23 1 23 24
M  V30 24 2 24 25
M  V30 25 1 15 26
M  V30 26 2 9 27
M  V30 27 1 27 5
M  V30 28 1 26 11
M  V30 29 1 25 17
M  V30 30 1 24 20
M  V30 31 1 1 28
M  V30 32 1 1 29
M  V30 33 1 2 30
M  V30 34 1 2 31
M  V30 35 1 3 32
M  V30 36 1 3 33
M  V30 37 1 6 34
M  V30 38 1 7 35
M  V30 39 1 8 36
M  V30 40 1 10 37
M  V30 41 1 10 38
M  V30 42 1 12 39
M  V30 43 1 12 40
M  V30 44 1 13 41
M  V30 45 1 13 42
M  V30 46 1 14 43
M  V30 47 1 14 44
M  V30 48 1 15 45
M  V30 49 1 16 46
M  V30 50 1 18 47
M  V30 51 1 19 48
M  V30 52 1 21 49
M  V30 53 1 23 50
M  V30 54 1 25 51
M  V30 55 1 26 52
M  V30 56 1 26 53
M  V30 57 1 27 54
M  V30 END BOND
M  V30 END CTAB
M  END
>  <Dataset>  (832) 
ChEMBL_Kinases

>  <Ligand_Instance>  (832) 
nan

>  <PDB_ID>  (832) 
nan

>  <Standardized_SMILES>  (832) 
NCCOc1cccc(CN2CCCC(Nc3ccc4[nH]ncc4c3)C2)c1

>  <Name>  (832) 
nan

>  <Pocket>  (832) 
nan

>  <ATP_Site>  (832) 
nan

>  <Peripheral>  (832) 
nan

>  <Num_H_Atoms_ProtBoundConf>  (832) 
nan

>  <Num_Resolved_Atoms>  (832) 
nan

>  <Num_Not_Resolved_Atoms>  (832) 
nan

$$$$
CHEMBL3689424
     RDKit          3D

  0  0  0  0  0  0  0  0  0  0999 V3000
M  V30 BEGIN CTAB
M  V30 COUNTS 56 59 0 0 0
M  V30 BEGIN ATOM
M  V30 1 O 1.759005 -1.840379 7.763593 0
M  V30 2 C 2.279632 -2.624183 6.734924 0
M  V30 3 C 1.971149 -1.963215 5.399937 0
M  V30 4 C 2.512966 -2.770842 4.250889 0
M  V30 5 O 2.232483 -2.173699 3.030962 0
M  V30 6 C 2.605859 -0.986883 2.497300 0
M  V30 7 C 3.382321 0.083688 2.871202 0
M  V30 8 C 3.594768 1.203833 2.103516 0
M  V30 9 C 2.989254 1.258201 0.875132 0
M  V30 10 C 2.182628 0.229549 0.397697 0
M  V30 11 C 1.575400 0.394222 -0.942530 0
M  V30 12 N 0.273564 0.978365 -0.916731 0
M  V30 13 C 0.201723 2.296446 -0.332479 0
M  V30 14 C -1.262400 2.526182 0.061361 0
M  V30 15 C -2.161906 1.436544 -0.532989 0
M  V30 16 C -1.833359 1.360060 -1.996638 0
M  V30 17 N -2.685001 0.445553 -2.715166 0
M  V30 18 C -2.791824 -0.959302 -2.620413 0
M  V30 19 C -2.038183 -1.766329 -1.799806 0
M  V30 20 C -2.137811 -3.125836 -1.690811 0
M  V30 21 C -3.086560 -3.731946 -2.483748 0
M  V30 22 N -3.486767 -5.002373 -2.667924 0
M  V30 23 N -4.459056 -5.064263 -3.563533 0
M  V30 24 C -4.749066 -3.829733 -4.016361 0
M  V30 25 C -3.881541 -2.994686 -3.332860 0
M  V30 26 C -3.719453 -1.631030 -3.384156 0
M  V30 27 C -0.357145 1.023509 -2.210757 0
M  V30 28 C 2.006805 -0.884953 1.230885 0
M  V30 29 H 1.068140 -1.206745 7.461636 0
M  V30 30 H 3.373993 -2.774520 6.825416 0
M  V30 31 H 1.759273 -3.601687 6.758178 0
M  V30 32 H 0.870871 -1.886853 5.261815 0
M  V30 33 H 2.396462 -0.955137 5.380488 0
M  V30 34 H 2.110121 -3.825926 4.277569 0
M  V30 35 H 3.635391 -2.879323 4.389885 0
M  V30 36 H 3.826906 -0.046441 3.833987 0
M  V30 37 H 4.227315 1.952497 2.539290 0
M  V30 38 H 3.222225 2.186427 0.339974 0
M  V30 39 H 2.252649 1.030808 -1.579000 0
M  V30 40 H 1.515693 -0.624268 -1.382569 0
M  V30 41 H 0.505957 3.024113 -1.105126 0
M  V30 42 H 0.863907 2.437862 0.536729 0
M  V30 43 H -1.299608 2.456801 1.162487 0
M  V30 44 H -1.602675 3.517618 -0.258813 0
M  V30 45 H -3.207257 1.846568 -0.475000 0
M  V30 46 H -2.066908 0.519882 0.035370 0
M  V30 47 H -1.943344 2.410245 -2.381888 0
M  V30 48 H -3.326023 0.917555 -3.422238 0
M  V30 49 H -1.281796 -1.322550 -1.173172 0
M  V30 50 H -1.530049 -3.705774 -1.039330 0
M  V30 51 H -3.097645 -5.846663 -2.180737 0
M  V30 52 H -5.485881 -3.540570 -4.744916 0
M  V30 53 H -4.371257 -1.075355 -4.073329 0
M  V30 54 H -0.242756 0.092855 -2.804690 0
M  V30 55 H 0.176445 1.804121 -2.791470 0
M  V30 56 H 1.355869 -1.597902 0.721803 0
M  V30 END ATOM
M  V30 BEGIN BOND
M  V30 1 1 1 2
M  V30 2 1 2 3
M  V30 3 1 3 4
M  V30 4 1 4 5
M  V30 5 1 5 6
M  V30 6 2 6 7
M  V30 7 1 7 8
M  V30 8 2 8 9
M  V30 9 1 9 10
M  V30 10 1 10 11
M  V30 11 1 11 12
M  V30 12 1 12 13
M  V30 13 1 13 14
M  V30 14 1 14 15
M  V30 15 1 15 16
M  V30 16 1 16 17
M  V30 17 1 17 18
M  V30 18 2 18 19
M  V30 19 1 19 20
M  V30 20 2 20 21
M  V30 21 1 21 22
M  V30 22 1 22 23
M  V30 23 2 23 24
M  V30 24 1 24 25
M  V30 25 2 25 26
M  V30 26 1 16 27
M  V30 27 2 10 28
M  V30 28 1 28 6
M  V30 29 1 27 12
M  V30 30 1 26 18
M  V30 31 1 25 21
M  V30 32 1 1 29
M  V30 33 1 2 30
M  V30 34 1 2 31
M  V30 35 1 3 32
M  V30 36 1 3 33
M  V30 37 1 4 34
M  V30 38 1 4 35
M  V30 39 1 7 36
M  V30 40 1 8 37
M  V30 41 1 9 38
M  V30 42 1 11 39
M  V30 43 1 11 40
M  V30 44 1 13 41
M  V30 45 1 13 42
M  V30 46 1 14 43
M  V30 47 1 14 44
M  V30 48 1 15 45
M  V30 49 1 15 46
M  V30 50 1 16 47
M  V30 51 1 17 48
M  V30 52 1 19 49
M  V30 53 1 20 50
M  V30 54 1 22 51
M  V30 55 1 24 52
M  V30 56 1 26 53
M  V30 57 1 27 54
M  V30 58 1 27 55
M  V30 59 1 28 56
M  V30 END BOND
M  V30 END CTAB
M  END
>  <Dataset>  (833) 
ChEMBL_Kinases

>  <Ligand_Instance>  (833) 
nan

>  <PDB_ID>  (833) 
nan

>  <Standardized_SMILES>  (833) 
OCCCOc1cccc(CN2CCCC(Nc3ccc4[nH]ncc4c3)C2)c1

>  <Name>  (833) 
nan

>  <Pocket>  (833) 
nan

>  <ATP_Site>  (833) 
nan

>  <Peripheral>  (833) 
nan

>  <Num_H_Atoms_ProtBoundConf>  (833) 
nan

>  <Num_Resolved_Atoms>  (833) 
nan

>  <Num_Not_Resolved_Atoms>  (833) 
nan

$$$$
CHEMBL3689423
     RDKit          3D

  0  0  0  0  0  0  0  0  0  0999 V3000
M  V30 BEGIN CTAB
M  V30 COUNTS 48 51 0 0 0
M  V30 BEGIN ATOM
M  V30 1 C 2.243224 -6.823627 1.492678 0
M  V30 2 C 1.850008 -5.867681 0.881461 0
M  V30 3 C 1.368728 -4.722830 0.161723 0
M  V30 4 C 2.128875 -4.319728 -0.923229 0
M  V30 5 C 1.725561 -3.223110 -1.662971 0
M  V30 6 C 0.558335 -2.539307 -1.304877 0
M  V30 7 C 0.097180 -1.354669 -2.081037 0
M  V30 8 N 0.621856 -0.129020 -1.596180 0
M  V30 9 C 0.178663 1.012273 -2.333749 0
M  V30 10 C 0.859660 2.288819 -1.948814 0
M  V30 11 C 1.759092 2.149217 -0.751083 0
M  V30 12 C 1.155352 1.293219 0.337713 0
M  V30 13 N 0.131286 2.017857 1.060033 0
M  V30 14 C -0.601991 1.554474 2.184196 0
M  V30 15 C -0.434026 0.323459 2.778109 0
M  V30 16 C -1.136672 -0.148614 3.866286 0
M  V30 17 C -2.090632 0.689902 4.404171 0
M  V30 18 N -2.946174 0.582418 5.433186 0
M  V30 19 N -3.678949 1.675078 5.561802 0
M  V30 20 C -3.300964 2.546080 4.583912 0
M  V30 21 C -2.304239 1.935392 3.852716 0
M  V30 22 C -1.567713 2.348278 2.763805 0
M  V30 23 C 0.606789 0.005872 -0.167264 0
M  V30 24 C -0.175151 -2.978206 -0.208279 0
M  V30 25 C 0.212162 -4.080926 0.552066 0
M  V30 26 O -0.536803 -4.500023 1.642878 0
M  V30 27 H 2.579041 -7.682226 2.047956 0
M  V30 28 H 3.036619 -4.854905 -1.198056 0
M  V30 29 H 2.310942 -2.893079 -2.516845 0
M  V30 30 H 0.413357 -1.451970 -3.162195 0
M  V30 31 H -1.009439 -1.287886 -2.109480 0
M  V30 32 H 0.297305 0.777820 -3.409415 0
M  V30 33 H -0.907128 1.129386 -2.144926 0
M  V30 34 H 1.498497 2.599660 -2.802431 0
M  V30 35 H 0.144422 3.118147 -1.772075 0
M  V30 36 H 2.773549 1.799954 -1.039399 0
M  V30 37 H 1.892671 3.168845 -0.324677 0
M  V30 38 H 1.964518 1.108745 1.087819 0
M  V30 39 H -0.085945 2.978726 0.714126 0
M  V30 40 H 0.299198 -0.354572 2.392992 0
M  V30 41 H -0.956787 -1.130300 4.287933 0
M  V30 42 H -3.056914 -0.249593 6.086309 0
M  V30 43 H -3.721282 3.542677 4.422643 0
M  V30 44 H -1.778378 3.329379 2.376832 0
M  V30 45 H 1.151988 -0.873219 0.233936 0
M  V30 46 H -0.451515 -0.085446 0.146447 0
M  V30 47 H -1.085648 -2.413787 0.039916 0
M  V30 48 H -1.288501 -5.178164 1.558064 0
M  V30 END ATOM
M  V30 BEGIN BOND
M  V30 1 3 1 2
M  V30 2 1 2 3
M  V30 3 2 3 4
M  V30 4 1 4 5
M  V30 5 2 5 6
M  V30 6 1 6 7
M  V30 7 1 7 8
M  V30 8 1 8 9
M  V30 9 1 9 10
M  V30 10 1 10 11
M  V30 11 1 11 12
M  V30 12 1 12 13
M  V30 13 1 13 14
M  V30 14 2 14 15
M  V30 15 1 15 16
M  V30 16 2 16 17
M  V30 17 1 17 18
M  V30 18 1 18 19
M  V30 19 2 19 20
M  V30 20 1 20 21
M  V30 21 2 21 22
M  V30 22 1 12 23
M  V30 23 1 6 24
M  V30 24 2 24 25
M  V30 25 1 25 26
M  V30 26 1 25 3
M  V30 27 1 23 8
M  V30 28 1 22 14
M  V30 29 1 21 17
M  V30 30 1 1 27
M  V30 31 1 4 28
M  V30 32 1 5 29
M  V30 33 1 7 30
M  V30 34 1 7 31
M  V30 35 1 9 32
M  V30 36 1 9 33
M  V30 37 1 10 34
M  V30 38 1 10 35
M  V30 39 1 11 36
M  V30 40 1 11 37
M  V30 41 1 12 38
M  V30 42 1 13 39
M  V30 43 1 15 40
M  V30 44 1 16 41
M  V30 45 1 18 42
M  V30 46 1 20 43
M  V30 47 1 22 44
M  V30 48 1 23 45
M  V30 49 1 23 46
M  V30 50 1 24 47
M  V30 51 1 26 48
M  V30 END BOND
M  V30 END CTAB
M  END
>  <Dataset>  (834) 
ChEMBL_Kinases

>  <Ligand_Instance>  (834) 
nan

>  <PDB_ID>  (834) 
nan

>  <Standardized_SMILES>  (834) 
C#Cc1ccc(CN2CCCC(Nc3ccc4[nH]ncc4c3)C2)cc1O

>  <Name>  (834) 
nan

>  <Pocket>  (834) 
nan

>  <ATP_Site>  (834) 
nan

>  <Peripheral>  (834) 
nan

>  <Num_H_Atoms_ProtBoundConf>  (834) 
nan

>  <Num_Resolved_Atoms>  (834) 
nan

>  <Num_Not_Resolved_Atoms>  (834) 
nan

$$$$
CHEMBL3689422
     RDKit          3D

  0  0  0  0  0  0  0  0  0  0999 V3000
M  V30 BEGIN CTAB
M  V30 COUNTS 49 53 0 0 0
M  V30 BEGIN ATOM
M  V30 1 C -0.665246 -5.234088 1.927384 0
M  V30 2 C 0.670831 -5.091347 2.181415 0
M  V30 3 C 1.172927 -4.184564 1.265028 0
M  V30 4 C 2.408107 -3.659373 1.033492 0
M  V30 5 C 2.550831 -2.759280 0.011306 0
M  V30 6 C 1.511491 -2.332958 -0.823499 0
M  V30 7 C 1.900251 -1.357168 -1.870252 0
M  V30 8 N 1.806733 -0.040292 -1.339462 0
M  V30 9 C 2.161563 0.993443 -2.290011 0
M  V30 10 C 2.487153 2.237434 -1.539356 0
M  V30 11 C 1.415826 2.664196 -0.574766 0
M  V30 12 C 0.826198 1.495029 0.188825 0
M  V30 13 N -0.451131 1.879418 0.743412 0
M  V30 14 C -1.250871 1.190572 1.691424 0
M  V30 15 C -0.907051 0.010379 2.309849 0
M  V30 16 C -1.675355 -0.677389 3.218053 0
M  V30 17 C -2.903589 -0.149991 3.550196 0
M  V30 18 N -3.909496 -0.507252 4.365558 0
M  V30 19 N -4.903758 0.387108 4.312831 0
M  V30 20 C -4.563410 1.372644 3.441803 0
M  V30 21 C -3.298503 1.031125 2.960784 0
M  V30 22 C -2.486128 1.673826 2.058316 0
M  V30 23 C 0.562192 0.333019 -0.758585 0
M  V30 24 C 0.279953 -2.876357 -0.569470 0
M  V30 25 C 0.106704 -3.785347 0.453719 0
M  V30 26 N -0.991683 -4.437989 0.879757 0
M  V30 27 H -1.324201 -5.879518 2.484107 0
M  V30 28 H 1.320394 -5.552854 2.934588 0
M  V30 29 H 3.237989 -3.959568 1.652371 0
M  V30 30 H 3.574490 -2.375304 -0.119772 0
M  V30 31 H 2.954421 -1.524111 -2.181797 0
M  V30 32 H 1.199801 -1.478201 -2.738306 0
M  V30 33 H 3.012761 0.742794 -2.929916 0
M  V30 34 H 1.236767 1.189009 -2.887528 0
M  V30 35 H 2.647768 3.098094 -2.244517 0
M  V30 36 H 3.474124 2.097450 -1.044336 0
M  V30 37 H 1.885847 3.333845 0.174447 0
M  V30 38 H 0.620998 3.240861 -1.083188 0
M  V30 39 H 1.497450 1.158368 0.994175 0
M  V30 40 H -0.856884 2.801865 0.401294 0
M  V30 41 H 0.044174 -0.448454 2.105307 0
M  V30 42 H -1.357789 -1.602421 3.674999 0
M  V30 43 H -3.939331 -1.360830 4.969970 0
M  V30 44 H -5.141347 2.252339 3.163481 0
M  V30 45 H -2.849846 2.603171 1.624564 0
M  V30 46 H 0.065088 -0.457825 -0.214489 0
M  V30 47 H -0.110850 0.732606 -1.571823 0
M  V30 48 H -0.506530 -2.536312 -1.227119 0
M  V30 49 H -1.946933 -4.357247 0.481336 0
M  V30 END ATOM
M  V30 BEGIN BOND
M  V30 1 2 1 2
M  V30 2 1 2 3
M  V30 3 2 3 4
M  V30 4 1 4 5
M  V30 5 2 5 6
M  V30 6 1 6 7
M  V30 7 1 7 8
M  V30 8 1 8 9
M  V30 9 1 9 10
M  V30 10 1 10 11
M  V30 11 1 11 12
M  V30 12 1 12 13
M  V30 13 1 13 14
M  V30 14 2 14 15
M  V30 15 1 15 16
M  V30 16 2 16 17
M  V30 17 1 17 18
M  V30 18 1 18 19
M  V30 19 2 19 20
M  V30 20 1 20 21
M  V30 21 2 21 22
M  V30 22 1 12 23
M  V30 23 1 6 24
M  V30 24 2 24 25
M  V30 25 1 25 26
M  V30 26 1 26 1
M  V30 27 1 25 3
M  V30 28 1 23 8
M  V30 29 1 22 14
M  V30 30 1 21 17
M  V30 31 1 1 27
M  V30 32 1 2 28
M  V30 33 1 4 29
M  V30 34 1 5 30
M  V30 35 1 7 31
M  V30 36 1 7 32
M  V30 37 1 9 33
M  V30 38 1 9 34
M  V30 39 1 10 35
M  V30 40 1 10 36
M  V30 41 1 11 37
M  V30 42 1 11 38
M  V30 43 1 12 39
M  V30 44 1 13 40
M  V30 45 1 15 41
M  V30 46 1 16 42
M  V30 47 1 18 43
M  V30 48 1 20 44
M  V30 49 1 22 45
M  V30 50 1 23 46
M  V30 51 1 23 47
M  V30 52 1 24 48
M  V30 53 1 26 49
M  V30 END BOND
M  V30 END CTAB
M  END
>  <Dataset>  (835) 
ChEMBL_Kinases

>  <Ligand_Instance>  (835) 
nan

>  <PDB_ID>  (835) 
nan

>  <Standardized_SMILES>  (835) 
c1cc2ccc(CN3CCCC(Nc4ccc5[nH]ncc5c4)C3)cc2[nH]1

>  <Name>  (835) 
nan

>  <Pocket>  (835) 
nan

>  <ATP_Site>  (835) 
nan

>  <Peripheral>  (835) 
nan

>  <Num_H_Atoms_ProtBoundConf>  (835) 
nan

>  <Num_Resolved_Atoms>  (835) 
nan

>  <Num_Not_Resolved_Atoms>  (835) 
nan

$$$$
CHEMBL3689421
     RDKit          3D

  0  0  0  0  0  0  0  0  0  0999 V3000
M  V30 BEGIN CTAB
M  V30 COUNTS 45 48 0 0 0
M  V30 BEGIN ATOM
M  V30 1 Cl -2.576327 -3.904923 3.313343 0
M  V30 2 C -1.282736 -3.622460 2.165796 0
M  V30 3 C -0.000813 -3.359821 2.603113 0
M  V30 4 C 1.047422 -3.131661 1.739496 0
M  V30 5 C 0.782927 -3.171913 0.378846 0
M  V30 6 C 1.741730 -2.959514 -0.749035 0
M  V30 7 N 1.770571 -1.604415 -1.085173 0
M  V30 8 C 2.611394 -1.189265 -2.125622 0
M  V30 9 C 2.566754 0.254200 -2.430269 0
M  V30 10 C 2.663580 1.058313 -1.125280 0
M  V30 11 C 1.364731 0.729468 -0.424380 0 CFG=2
M  V30 12 N 1.129746 1.508438 0.744543 0
M  V30 13 C 0.045039 1.719132 1.673451 0
M  V30 14 C 0.146132 2.554748 2.791932 0
M  V30 15 C -0.986859 2.654173 3.559171 0
M  V30 16 C -2.162164 2.013045 3.308985 0
M  V30 17 N -3.336710 2.023733 3.974760 0
M  V30 18 N -4.186249 1.234823 3.336304 0
M  V30 19 C -3.561238 0.718608 2.264267 0
M  V30 20 C -2.260966 1.188375 2.204309 0
M  V30 21 C -1.139308 1.063485 1.407236 0
M  V30 22 C 1.435896 -0.723172 -0.049375 0
M  V30 23 C -0.484067 -3.431269 -0.073882 0
M  V30 24 C -1.542571 -3.661636 0.795789 0
M  V30 25 H 0.238360 -3.321522 3.660089 0
M  V30 26 H 2.068254 -2.921290 1.976572 0
M  V30 27 H 1.581690 -3.686157 -1.562345 0
M  V30 28 H 2.744161 -3.237231 -0.310016 0
M  V30 29 H 3.684104 -1.447518 -1.889112 0
M  V30 30 H 2.366578 -1.765345 -3.043337 0
M  V30 31 H 3.284148 0.594963 -3.169456 0
M  V30 32 H 1.540240 0.501315 -2.827304 0
M  V30 33 H 3.560154 0.694822 -0.608414 0
M  V30 34 H 2.746513 2.109946 -1.424279 0
M  V30 35 H 0.546419 0.865757 -1.142696 0
M  V30 36 H 1.965801 2.088205 1.009805 0
M  V30 37 H 1.089525 3.052459 2.968972 0
M  V30 38 H -0.851144 3.322187 4.422910 0
M  V30 39 H -3.522296 2.568593 4.843602 0
M  V30 40 H -3.954153 0.030203 1.514123 0
M  V30 41 H -1.360677 0.397886 0.577248 0
M  V30 42 H 0.486454 -1.020621 0.417954 0
M  V30 43 H 2.198851 -0.802124 0.765977 0
M  V30 44 H -0.805097 -3.486731 -1.123118 0
M  V30 45 H -2.564967 -3.871295 0.464645 0
M  V30 END ATOM
M  V30 BEGIN BOND
M  V30 1 1 1 2
M  V30 2 2 2 3
M  V30 3 1 3 4
M  V30 4 2 4 5
M  V30 5 1 5 6
M  V30 6 1 6 7
M  V30 7 1 7 8
M  V30 8 1 8 9
M  V30 9 1 9 10
M  V30 10 1 10 11
M  V30 11 1 11 12
M  V30 12 1 12 13
M  V30 13 2 13 14
M  V30 14 1 14 15
M  V30 15 2 15 16
M  V30 16 1 16 17
M  V30 17 1 17 18
M  V30 18 2 18 19
M  V30 19 1 19 20
M  V30 20 2 20 21
M  V30 21 1 11 22
M  V30 22 1 5 23
M  V30 23 2 23 24
M  V30 24 1 24 2
M  V30 25 1 22 7
M  V30 26 1 21 13
M  V30 27 1 20 16
M  V30 28 1 3 25
M  V30 29 1 4 26
M  V30 30 1 6 27
M  V30 31 1 6 28
M  V30 32 1 8 29
M  V30 33 1 8 30
M  V30 34 1 9 31
M  V30 35 1 9 32
M  V30 36 1 10 33
M  V30 37 1 10 34
M  V30 38 1 11 35 CFG=3
M  V30 39 1 12 36
M  V30 40 1 14 37
M  V30 41 1 15 38
M  V30 42 1 17 39
M  V30 43 1 19 40
M  V30 44 1 21 41
M  V30 45 1 22 42
M  V30 46 1 22 43
M  V30 47 1 23 44
M  V30 48 1 24 45
M  V30 END BOND
M  V30 END CTAB
M  END
>  <Dataset>  (836) 
ChEMBL_Kinases

>  <Ligand_Instance>  (836) 
nan

>  <PDB_ID>  (836) 
nan

>  <Standardized_SMILES>  (836) 
Clc1ccc(CN2CCC[C@H](Nc3ccc4[nH]ncc4c3)C2)cc1

>  <Name>  (836) 
nan

>  <Pocket>  (836) 
nan

>  <ATP_Site>  (836) 
nan

>  <Peripheral>  (836) 
nan

>  <Num_H_Atoms_ProtBoundConf>  (836) 
nan

>  <Num_Resolved_Atoms>  (836) 
nan

>  <Num_Not_Resolved_Atoms>  (836) 
nan

$$$$
CHEMBL3689420
     RDKit          3D

  0  0  0  0  0  0  0  0  0  0999 V3000
M  V30 BEGIN CTAB
M  V30 COUNTS 45 48 0 0 0
M  V30 BEGIN ATOM
M  V30 1 Cl 0.652883 -7.746976 -1.202742 0
M  V30 2 C 0.706185 -6.047426 -0.711005 0
M  V30 3 C 1.857781 -5.458983 -0.224866 0
M  V30 4 C 1.796064 -4.127682 0.131477 0
M  V30 5 C 0.626815 -3.407224 0.007677 0
M  V30 6 C 0.743149 -1.990952 0.438205 0
M  V30 7 N 1.136170 -1.111796 -0.636204 0
M  V30 8 C 0.245229 -1.063530 -1.741131 0
M  V30 9 C 0.317754 0.161184 -2.577769 0
M  V30 10 C 0.441313 1.436407 -1.798489 0
M  V30 11 C 0.241448 1.073667 -0.328784 0 CFG=2
M  V30 12 N 0.197442 2.230075 0.511765 0
M  V30 13 C -0.045536 2.418708 1.914366 0
M  V30 14 C -0.019007 3.661259 2.549895 0
M  V30 15 C -0.283323 3.669863 3.899628 0
M  V30 16 C -0.566144 2.545185 4.640761 0
M  V30 17 N -0.839779 2.413384 5.951275 0
M  V30 18 N -1.040548 1.140273 6.182852 0
M  V30 19 C -0.898817 0.433354 5.023015 0
M  V30 20 C -0.588734 1.324661 3.998326 0
M  V30 21 C -0.327358 1.285480 2.644069 0
M  V30 22 C 1.450548 0.168863 -0.035487 0
M  V30 23 C -0.532872 -3.974303 -0.474710 0
M  V30 24 C -0.474524 -5.316705 -0.835112 0
M  V30 25 Cl -1.934042 -6.070674 -1.453530 0
M  V30 26 H 2.763252 -6.048385 -0.137822 0
M  V30 27 H 2.735013 -3.731074 0.504515 0
M  V30 28 H 1.447131 -1.842647 1.274824 0
M  V30 29 H -0.251358 -1.597758 0.791029 0
M  V30 30 H -0.827942 -1.223795 -1.455230 0
M  V30 31 H 0.494774 -1.927427 -2.409882 0
M  V30 32 H -0.632510 0.242382 -3.156695 0
M  V30 33 H 1.105738 0.085217 -3.380970 0
M  V30 34 H -0.270898 2.223043 -2.110793 0
M  V30 35 H 1.497603 1.783188 -1.876716 0
M  V30 36 H -0.683343 0.466459 -0.289451 0
M  V30 37 H 0.378063 3.142426 0.020938 0
M  V30 38 H 0.205444 4.528364 1.945886 0
M  V30 39 H -0.260518 4.627006 4.377169 0
M  V30 40 H -0.878688 3.208565 6.642694 0
M  V30 41 H -0.995478 -0.636232 4.851165 0
M  V30 42 H -0.388708 0.258304 2.292228 0
M  V30 43 H 1.615553 0.148037 1.038385 0
M  V30 44 H 2.335480 0.638735 -0.523755 0
M  V30 45 H -1.421872 -3.363527 -0.550855 0
M  V30 END ATOM
M  V30 BEGIN BOND
M  V30 1 1 1 2
M  V30 2 2 2 3
M  V30 3 1 3 4
M  V30 4 2 4 5
M  V30 5 1 5 6
M  V30 6 1 6 7
M  V30 7 1 7 8
M  V30 8 1 8 9
M  V30 9 1 9 10
M  V30 10 1 10 11
M  V30 11 1 11 12
M  V30 12 1 12 13
M  V30 13 2 13 14
M  V30 14 1 14 15
M  V30 15 2 15 16
M  V30 16 1 16 17
M  V30 17 1 17 18
M  V30 18 2 18 19
M  V30 19 1 19 20
M  V30 20 2 20 21
M  V30 21 1 11 22
M  V30 22 1 5 23
M  V30 23 2 23 24
M  V30 24 1 24 25
M  V30 25 1 24 2
M  V30 26 1 22 7
M  V30 27 1 21 13
M  V30 28 1 20 16
M  V30 29 1 3 26
M  V30 30 1 4 27
M  V30 31 1 6 28
M  V30 32 1 6 29
M  V30 33 1 8 30
M  V30 34 1 8 31
M  V30 35 1 9 32
M  V30 36 1 9 33
M  V30 37 1 10 34
M  V30 38 1 10 35
M  V30 39 1 11 36 CFG=3
M  V30 40 1 12 37
M  V30 41 1 14 38
M  V30 42 1 15 39
M  V30 43 1 17 40
M  V30 44 1 19 41
M  V30 45 1 21 42
M  V30 46 1 22 43
M  V30 47 1 22 44
M  V30 48 1 23 45
M  V30 END BOND
M  V30 END CTAB
M  END
>  <Dataset>  (837) 
ChEMBL_Kinases

>  <Ligand_Instance>  (837) 
nan

>  <PDB_ID>  (837) 
nan

>  <Standardized_SMILES>  (837) 
Clc1ccc(CN2CCC[C@H](Nc3ccc4[nH]ncc4c3)C2)cc1Cl

>  <Name>  (837) 
nan

>  <Pocket>  (837) 
nan

>  <ATP_Site>  (837) 
nan

>  <Peripheral>  (837) 
nan

>  <Num_H_Atoms_ProtBoundConf>  (837) 
nan

>  <Num_Resolved_Atoms>  (837) 
nan

>  <Num_Not_Resolved_Atoms>  (837) 
nan

$$$$
CHEMBL3689419
     RDKit          3D

  0  0  0  0  0  0  0  0  0  0999 V3000
M  V30 BEGIN CTAB
M  V30 COUNTS 49 52 0 0 0
M  V30 BEGIN ATOM
M  V30 1 C 0.680634 -5.376632 3.033481 0
M  V30 2 O -0.136795 -4.746459 2.094664 0
M  V30 3 C 0.243534 -3.895442 1.094329 0
M  V30 4 C 1.527269 -3.486307 0.811909 0
M  V30 5 C 1.760987 -2.619247 -0.235002 0
M  V30 6 C 0.749053 -2.112710 -1.053671 0
M  V30 7 C 1.205584 -1.204064 -2.128668 0
M  V30 8 N 1.258185 0.138316 -1.667705 0
M  V30 9 C 1.678581 1.090656 -2.645117 0
M  V30 10 C 2.057078 2.368718 -1.938777 0
M  V30 11 C 1.972140 2.173774 -0.448979 0
M  V30 12 C 0.569971 1.781765 -0.016533 0 CFG=2
M  V30 13 N 0.680288 1.371117 1.369081 0
M  V30 14 C -0.417908 0.925004 2.190928 0
M  V30 15 C -0.321411 0.529765 3.508695 0
M  V30 16 C -1.442449 0.121117 4.202064 0
M  V30 17 C -2.690826 0.086997 3.627197 0
M  V30 18 N -3.887021 -0.273848 4.126445 0
M  V30 19 N -4.785435 -0.122346 3.149449 0
M  V30 20 C -4.153380 0.335895 2.029440 0
M  V30 21 C -2.805179 0.479462 2.308691 0
M  V30 22 C -1.671871 0.895159 1.599408 0
M  V30 23 C 0.161587 0.570801 -0.856426 0
M  V30 24 C -0.546503 -2.539828 -0.750803 0
M  V30 25 C -0.767552 -3.405149 0.296186 0
M  V30 26 H 0.569953 -4.951011 4.067768 0
M  V30 27 H 1.759794 -5.348305 2.805745 0
M  V30 28 H 0.304039 -6.432371 3.153302 0
M  V30 29 H 2.319042 -3.871787 1.438920 0
M  V30 30 H 2.811117 -2.345169 -0.389875 0
M  V30 31 H 0.438387 -1.306395 -2.952578 0
M  V30 32 H 2.155309 -1.587948 -2.527964 0
M  V30 33 H 2.517058 0.650535 -3.220590 0
M  V30 34 H 0.830399 1.350953 -3.343226 0
M  V30 35 H 1.474625 3.237279 -2.289119 0
M  V30 36 H 3.150848 2.536499 -2.167258 0
M  V30 37 H 2.659152 1.377051 -0.109291 0
M  V30 38 H 2.291930 3.127329 0.011989 0
M  V30 39 H -0.123681 2.618036 -0.152828 0
M  V30 40 H 1.599449 1.364205 1.906884 0
M  V30 41 H 0.673664 0.565264 3.940427 0
M  V30 42 H -1.238024 -0.166920 5.235763 0
M  V30 43 H -4.064489 -0.611938 5.111197 0
M  V30 44 H -4.585171 0.563848 1.063559 0
M  V30 45 H -1.911555 1.166362 0.602504 0
M  V30 46 H -0.100202 -0.227324 -0.160242 0
M  V30 47 H -0.734895 0.850537 -1.457569 0
M  V30 48 H -1.287009 -2.117530 -1.414733 0
M  V30 49 H -1.835402 -3.635166 0.392530 0
M  V30 END ATOM
M  V30 BEGIN BOND
M  V30 1 1 1 2
M  V30 2 1 2 3
M  V30 3 2 3 4
M  V30 4 1 4 5
M  V30 5 2 5 6
M  V30 6 1 6 7
M  V30 7 1 7 8
M  V30 8 1 8 9
M  V30 9 1 9 10
M  V30 10 1 10 11
M  V30 11 1 11 12
M  V30 12 1 12 13
M  V30 13 1 13 14
M  V30 14 2 14 15
M  V30 15 1 15 16
M  V30 16 2 16 17
M  V30 17 1 17 18
M  V30 18 1 18 19
M  V30 19 2 19 20
M  V30 20 1 20 21
M  V30 21 2 21 22
M  V30 22 1 12 23
M  V30 23 1 6 24
M  V30 24 2 24 25
M  V30 25 1 25 3
M  V30 26 1 23 8
M  V30 27 1 22 14
M  V30 28 1 21 17
M  V30 29 1 1 26
M  V30 30 1 1 27
M  V30 31 1 1 28
M  V30 32 1 4 29
M  V30 33 1 5 30
M  V30 34 1 7 31
M  V30 35 1 7 32
M  V30 36 1 9 33
M  V30 37 1 9 34
M  V30 38 1 10 35
M  V30 39 1 10 36
M  V30 40 1 11 37
M  V30 41 1 11 38
M  V30 42 1 12 39 CFG=1
M  V30 43 1 13 40
M  V30 44 1 15 41
M  V30 45 1 16 42
M  V30 46 1 18 43
M  V30 47 1 20 44
M  V30 48 1 22 45
M  V30 49 1 23 46
M  V30 50 1 23 47
M  V30 51 1 24 48
M  V30 52 1 25 49
M  V30 END BOND
M  V30 END CTAB
M  END
>  <Dataset>  (838) 
ChEMBL_Kinases

>  <Ligand_Instance>  (838) 
nan

>  <PDB_ID>  (838) 
nan

>  <Standardized_SMILES>  (838) 
COc1ccc(CN2CCC[C@H](Nc3ccc4[nH]ncc4c3)C2)cc1

>  <Name>  (838) 
nan

>  <Pocket>  (838) 
nan

>  <ATP_Site>  (838) 
nan

>  <Peripheral>  (838) 
nan

>  <Num_H_Atoms_ProtBoundConf>  (838) 
nan

>  <Num_Resolved_Atoms>  (838) 
nan

>  <Num_Not_Resolved_Atoms>  (838) 
nan

$$$$
CHEMBL3689418
     RDKit          3D

  0  0  0  0  0  0  0  0  0  0999 V3000
M  V30 BEGIN CTAB
M  V30 COUNTS 48 51 0 0 0
M  V30 BEGIN ATOM
M  V30 1 C -1.979753 -4.992667 1.716216 0
M  V30 2 C -1.425098 -3.986690 0.777648 0
M  V30 3 C -0.127654 -3.539904 0.802629 0
M  V30 4 C 0.356410 -2.611429 -0.075453 0
M  V30 5 C -0.469077 -2.064399 -1.059719 0
M  V30 6 C -0.090031 -1.053371 -2.078480 0
M  V30 7 N -0.268488 0.290371 -1.701144 0
M  V30 8 C 0.070572 1.306348 -2.619802 0
M  V30 9 C 0.094980 2.691223 -2.015982 0
M  V30 10 C 0.363466 2.646245 -0.525863 0
M  V30 11 C -0.770236 1.896206 0.117661 0 CFG=2
M  V30 12 N -0.589987 1.704523 1.543568 0
M  V30 13 C 0.379392 0.937450 2.203806 0
M  V30 14 C 1.353247 0.173733 1.598651 0
M  V30 15 C 2.316720 -0.576298 2.237892 0
M  V30 16 C 2.312670 -0.567432 3.611686 0
M  V30 17 N 3.084917 -1.167018 4.532708 0
M  V30 18 N 2.661165 -0.830970 5.749746 0
M  V30 19 C 1.604145 -0.005612 5.643053 0
M  V30 20 C 1.366892 0.174196 4.285070 0
M  V30 21 C 0.439442 0.896012 3.580442 0
M  V30 22 C -1.064202 0.598035 -0.587526 0
M  V30 23 C -1.784987 -2.544099 -1.054092 0
M  V30 24 C -2.268551 -3.482801 -0.163883 0
M  V30 25 H -2.517450 -4.414134 2.522194 0
M  V30 26 H -2.690665 -5.683361 1.227942 0
M  V30 27 H -1.154594 -5.506787 2.244394 0
M  V30 28 H 0.546228 -3.938845 1.550615 0
M  V30 29 H 1.366908 -2.240826 -0.082439 0
M  V30 30 H 0.944295 -1.194125 -2.448177 0
M  V30 31 H -0.730583 -1.257023 -2.986908 0
M  V30 32 H 1.133657 1.131283 -2.961005 0
M  V30 33 H -0.530450 1.281427 -3.552598 0
M  V30 34 H -0.914836 3.123737 -2.151148 0
M  V30 35 H 0.820500 3.367428 -2.474436 0
M  V30 36 H 1.365539 2.319497 -0.263200 0
M  V30 37 H 0.245928 3.714000 -0.165923 0
M  V30 38 H -1.676047 2.553148 -0.038493 0
M  V30 39 H -1.280305 2.208839 2.181760 0
M  V30 40 H 1.402287 0.120564 0.528772 0
M  V30 41 H 3.052111 -1.152850 1.729349 0
M  V30 42 H 3.889522 -1.796829 4.258149 0
M  V30 43 H 1.028295 0.447532 6.425581 0
M  V30 44 H -0.268256 1.451414 4.183242 0
M  V30 45 H -0.936600 -0.209606 0.163138 0
M  V30 46 H -2.140042 0.556712 -0.870952 0
M  V30 47 H -2.466061 -2.153973 -1.795011 0
M  V30 48 H -3.311307 -3.786085 -0.248952 0
M  V30 END ATOM
M  V30 BEGIN BOND
M  V30 1 1 1 2
M  V30 2 2 2 3
M  V30 3 1 3 4
M  V30 4 2 4 5
M  V30 5 1 5 6
M  V30 6 1 6 7
M  V30 7 1 7 8
M  V30 8 1 8 9
M  V30 9 1 9 10
M  V30 10 1 10 11
M  V30 11 1 11 12
M  V30 12 1 12 13
M  V30 13 2 13 14
M  V30 14 1 14 15
M  V30 15 2 15 16
M  V30 16 1 16 17
M  V30 17 1 17 18
M  V30 18 2 18 19
M  V30 19 1 19 20
M  V30 20 2 20 21
M  V30 21 1 11 22
M  V30 22 1 5 23
M  V30 23 2 23 24
M  V30 24 1 24 2
M  V30 25 1 22 7
M  V30 26 1 21 13
M  V30 27 1 20 16
M  V30 28 1 1 25
M  V30 29 1 1 26
M  V30 30 1 1 27
M  V30 31 1 3 28
M  V30 32 1 4 29
M  V30 33 1 6 30
M  V30 34 1 6 31
M  V30 35 1 8 32
M  V30 36 1 8 33
M  V30 37 1 9 34
M  V30 38 1 9 35
M  V30 39 1 10 36
M  V30 40 1 10 37
M  V30 41 1 11 38 CFG=1
M  V30 42 1 12 39
M  V30 43 1 14 40
M  V30 44 1 15 41
M  V30 45 1 17 42
M  V30 46 1 19 43
M  V30 47 1 21 44
M  V30 48 1 22 45
M  V30 49 1 22 46
M  V30 50 1 23 47
M  V30 51 1 24 48
M  V30 END BOND
M  V30 END CTAB
M  END
>  <Dataset>  (839) 
ChEMBL_Kinases

>  <Ligand_Instance>  (839) 
nan

>  <PDB_ID>  (839) 
nan

>  <Standardized_SMILES>  (839) 
Cc1ccc(CN2CCC[C@H](Nc3ccc4[nH]ncc4c3)C2)cc1

>  <Name>  (839) 
nan

>  <Pocket>  (839) 
nan

>  <ATP_Site>  (839) 
nan

>  <Peripheral>  (839) 
nan

>  <Num_H_Atoms_ProtBoundConf>  (839) 
nan

>  <Num_Resolved_Atoms>  (839) 
nan

>  <Num_Not_Resolved_Atoms>  (839) 
nan

$$$$
CHEMBL3689417
     RDKit          3D

  0  0  0  0  0  0  0  0  0  0999 V3000
M  V30 BEGIN CTAB
M  V30 COUNTS 47 50 0 0 0
M  V30 BEGIN ATOM
M  V30 1 C -1.206020 -6.676901 1.024361 0
M  V30 2 C -0.593409 -5.697791 0.650604 0
M  V30 3 C 0.144585 -4.540528 0.228537 0
M  V30 4 C 0.477776 -4.300928 -1.088550 0
M  V30 5 C 1.186334 -3.191611 -1.501127 0
M  V30 6 C 1.588550 -2.263269 -0.546238 0
M  V30 7 C 2.366007 -1.001836 -0.823214 0
M  V30 8 N 1.426055 0.011500 -1.066777 0
M  V30 9 C 0.519741 -0.109978 -2.124924 0
M  V30 10 C -0.076471 1.172842 -2.632472 0
M  V30 11 C -0.275259 2.222654 -1.553813 0
M  V30 12 C -0.196907 1.486394 -0.236003 0 CFG=2
M  V30 13 N -0.599811 2.240373 0.903535 0
M  V30 14 C -0.760913 1.930600 2.284062 0
M  V30 15 C -1.147959 2.838726 3.246107 0
M  V30 16 C -1.269383 2.383147 4.539003 0
M  V30 17 C -1.024985 1.079971 4.908204 0
M  V30 18 N -1.095343 0.478136 6.110082 0
M  V30 19 N -0.763733 -0.805003 5.961584 0
M  V30 20 C -0.484882 -1.002733 4.656729 0
M  V30 21 C -0.638211 0.175848 3.941693 0
M  V30 22 C -0.510985 0.613570 2.639436 0
M  V30 23 C 1.282267 1.064570 -0.136964 0
M  V30 24 C 1.235070 -2.536470 0.775363 0
M  V30 25 C 0.526233 -3.642105 1.204524 0
M  V30 26 H -1.763281 -7.533879 1.353752 0
M  V30 27 H 0.164715 -5.023870 -1.833291 0
M  V30 28 H 1.461298 -2.973440 -2.506675 0
M  V30 29 H 2.964007 -0.793216 0.086335 0
M  V30 30 H 3.099471 -1.177976 -1.639122 0
M  V30 31 H 1.040990 -0.585100 -3.000256 0
M  V30 32 H -0.294518 -0.827196 -1.842744 0
M  V30 33 H -1.098271 0.936029 -3.006402 0
M  V30 34 H 0.478982 1.584655 -3.506250 0
M  V30 35 H -1.190946 2.801707 -1.670166 0
M  V30 36 H 0.591504 2.921069 -1.633144 0
M  V30 37 H -0.781368 0.550076 -0.327509 0
M  V30 38 H -0.826808 3.243966 0.671066 0
M  V30 39 H -1.329674 3.848697 2.916653 0
M  V30 40 H -1.572940 3.094661 5.294502 0
M  V30 41 H -1.368627 0.956227 7.008211 0
M  V30 42 H -0.176640 -1.941544 4.178689 0
M  V30 43 H -0.204739 -0.219345 1.999171 0
M  V30 44 H 1.584753 0.857424 0.888836 0
M  V30 45 H 1.856462 1.983472 -0.466802 0
M  V30 46 H 1.540853 -1.823025 1.531780 0
M  V30 47 H 0.306513 -3.752840 2.261221 0
M  V30 END ATOM
M  V30 BEGIN BOND
M  V30 1 3 1 2
M  V30 2 1 2 3
M  V30 3 2 3 4
M  V30 4 1 4 5
M  V30 5 2 5 6
M  V30 6 1 6 7
M  V30 7 1 7 8
M  V30 8 1 8 9
M  V30 9 1 9 10
M  V30 10 1 10 11
M  V30 11 1 11 12
M  V30 12 1 12 13
M  V30 13 1 13 14
M  V30 14 2 14 15
M  V30 15 1 15 16
M  V30 16 2 16 17
M  V30 17 1 17 18
M  V30 18 1 18 19
M  V30 19 2 19 20
M  V30 20 1 20 21
M  V30 21 2 21 22
M  V30 22 1 12 23
M  V30 23 1 6 24
M  V30 24 2 24 25
M  V30 25 1 25 3
M  V30 26 1 23 8
M  V30 27 1 22 14
M  V30 28 1 21 17
M  V30 29 1 1 26
M  V30 30 1 4 27
M  V30 31 1 5 28
M  V30 32 1 7 29
M  V30 33 1 7 30
M  V30 34 1 9 31
M  V30 35 1 9 32
M  V30 36 1 10 33
M  V30 37 1 10 34
M  V30 38 1 11 35
M  V30 39 1 11 36
M  V30 40 1 12 37 CFG=3
M  V30 41 1 13 38
M  V30 42 1 15 39
M  V30 43 1 16 40
M  V30 44 1 18 41
M  V30 45 1 20 42
M  V30 46 1 22 43
M  V30 47 1 23 44
M  V30 48 1 23 45
M  V30 49 1 24 46
M  V30 50 1 25 47
M  V30 END BOND
M  V30 END CTAB
M  END
>  <Dataset>  (840) 
ChEMBL_Kinases

>  <Ligand_Instance>  (840) 
nan

>  <PDB_ID>  (840) 
nan

>  <Standardized_SMILES>  (840) 
C#Cc1ccc(CN2CCC[C@H](Nc3ccc4[nH]ncc4c3)C2)cc1

>  <Name>  (840) 
nan

>  <Pocket>  (840) 
nan

>  <ATP_Site>  (840) 
nan

>  <Peripheral>  (840) 
nan

>  <Num_H_Atoms_ProtBoundConf>  (840) 
nan

>  <Num_Resolved_Atoms>  (840) 
nan

>  <Num_Not_Resolved_Atoms>  (840) 
nan

$$$$
CHEMBL3689416
     RDKit          3D

  0  0  0  0  0  0  0  0  0  0999 V3000
M  V30 BEGIN CTAB
M  V30 COUNTS 47 50 0 0 0
M  V30 BEGIN ATOM
M  V30 1 C -0.643756 -6.382649 2.286524 0
M  V30 2 C -0.537429 -5.453554 1.513924 0
M  V30 3 C -0.414708 -4.371948 0.587700 0
M  V30 4 C 0.724012 -3.601609 0.555052 0
M  V30 5 C 0.887432 -2.558265 -0.311494 0
M  V30 6 C -0.091696 -2.208195 -1.218730 0
M  V30 7 C -0.084787 -1.112964 -2.220796 0
M  V30 8 N -0.626802 0.116409 -1.812882 0
M  V30 9 C -0.668872 1.183202 -2.727170 0
M  V30 10 C 0.148554 2.394749 -2.395324 0
M  V30 11 C -0.059782 2.833776 -0.955998 0
M  V30 12 C 0.342239 1.638674 -0.108117 0 CFG=1
M  V30 13 N 0.132669 1.893516 1.298246 0
M  V30 14 C 0.525658 1.142058 2.437128 0
M  V30 15 C 1.262884 -0.020494 2.397120 0
M  V30 16 C 1.638684 -0.764835 3.494616 0
M  V30 17 C 1.234855 -0.290914 4.723527 0
M  V30 18 N 1.387264 -0.704372 5.994720 0
M  V30 19 N 0.792810 0.122280 6.851561 0
M  V30 20 C 0.210923 1.137098 6.168848 0
M  V30 21 C 0.495308 0.867845 4.825050 0
M  V30 22 C 0.150412 1.567607 3.691923 0
M  V30 23 C -0.591895 0.481716 -0.461274 0
M  V30 24 C -1.237532 -3.012467 -1.159071 0
M  V30 25 C -1.429126 -4.070549 -0.295784 0
M  V30 26 H -0.747995 -7.188800 2.962493 0
M  V30 27 H 1.553129 -3.807859 1.240095 0
M  V30 28 H 1.776562 -1.924304 -0.370375 0
M  V30 29 H -0.676962 -1.485601 -3.112475 0
M  V30 30 H 0.984822 -1.053117 -2.563575 0
M  V30 31 H -1.720247 1.496745 -2.908977 0
M  V30 32 H -0.297849 0.832954 -3.728313 0
M  V30 33 H -0.166903 3.216039 -3.066128 0
M  V30 34 H 1.221251 2.227858 -2.560296 0
M  V30 35 H -1.061743 3.211936 -0.755334 0
M  V30 36 H 0.677830 3.642535 -0.757029 0
M  V30 37 H 1.395345 1.418437 -0.318036 0
M  V30 38 H -0.397542 2.780579 1.486597 0
M  V30 39 H 1.594933 -0.399084 1.458829 0
M  V30 40 H 2.218468 -1.672858 3.411894 0
M  V30 41 H 1.918576 -1.582480 6.259188 0
M  V30 42 H -0.351290 1.972736 6.581124 0
M  V30 43 H -0.429880 2.471484 3.811501 0
M  V30 44 H -1.616422 0.865806 -0.173715 0
M  V30 45 H -0.418547 -0.361633 0.238886 0
M  V30 46 H -2.060832 -2.799223 -1.847096 0
M  V30 47 H -2.351937 -4.632536 -0.326960 0
M  V30 END ATOM
M  V30 BEGIN BOND
M  V30 1 3 1 2
M  V30 2 1 2 3
M  V30 3 2 3 4
M  V30 4 1 4 5
M  V30 5 2 5 6
M  V30 6 1 6 7
M  V30 7 1 7 8
M  V30 8 1 8 9
M  V30 9 1 9 10
M  V30 10 1 10 11
M  V30 11 1 11 12
M  V30 12 1 12 13
M  V30 13 1 13 14
M  V30 14 2 14 15
M  V30 15 1 15 16
M  V30 16 2 16 17
M  V30 17 1 17 18
M  V30 18 1 18 19
M  V30 19 2 19 20
M  V30 20 1 20 21
M  V30 21 2 21 22
M  V30 22 1 12 23
M  V30 23 1 6 24
M  V30 24 2 24 25
M  V30 25 1 25 3
M  V30 26 1 23 8
M  V30 27 1 22 14
M  V30 28 1 21 17
M  V30 29 1 1 26
M  V30 30 1 4 27
M  V30 31 1 5 28
M  V30 32 1 7 29
M  V30 33 1 7 30
M  V30 34 1 9 31
M  V30 35 1 9 32
M  V30 36 1 10 33
M  V30 37 1 10 34
M  V30 38 1 11 35
M  V30 39 1 11 36
M  V30 40 1 12 37 CFG=1
M  V30 41 1 13 38
M  V30 42 1 15 39
M  V30 43 1 16 40
M  V30 44 1 18 41
M  V30 45 1 20 42
M  V30 46 1 22 43
M  V30 47 1 23 44
M  V30 48 1 23 45
M  V30 49 1 24 46
M  V30 50 1 25 47
M  V30 END BOND
M  V30 END CTAB
M  END
>  <Dataset>  (841) 
ChEMBL_Kinases

>  <Ligand_Instance>  (841) 
nan

>  <PDB_ID>  (841) 
nan

>  <Standardized_SMILES>  (841) 
C#Cc1ccc(CN2CCC[C@@H](Nc3ccc4[nH]ncc4c3)C2)cc1

>  <Name>  (841) 
nan

>  <Pocket>  (841) 
nan

>  <ATP_Site>  (841) 
nan

>  <Peripheral>  (841) 
nan

>  <Num_H_Atoms_ProtBoundConf>  (841) 
nan

>  <Num_Resolved_Atoms>  (841) 
nan

>  <Num_Not_Resolved_Atoms>  (841) 
nan

$$$$
CHEMBL3689415
     RDKit          3D

  0  0  0  0  0  0  0  0  0  0999 V3000
M  V30 BEGIN CTAB
M  V30 COUNTS 49 52 0 0 0
M  V30 BEGIN ATOM
M  V30 1 C 1.536773 -5.380356 2.540826 0
M  V30 2 S 1.218920 -5.707494 0.788932 0
M  V30 3 C 1.020504 -4.209767 -0.143882 0
M  V30 4 C 2.069469 -3.551960 -0.749660 0
M  V30 5 C 1.930070 -2.379841 -1.481301 0
M  V30 6 C 0.679498 -1.816565 -1.628050 0
M  V30 7 C 0.707598 -0.574461 -2.438976 0
M  V30 8 N 0.930227 0.565912 -1.597840 0
M  V30 9 C 0.984381 1.810619 -2.334608 0
M  V30 10 C 1.700172 2.806235 -1.447565 0
M  V30 11 C 1.669250 2.347271 -0.027868 0
M  V30 12 C 0.322334 1.789704 0.403218 0 CFG=2
M  V30 13 N 0.484137 1.246378 1.736579 0
M  V30 14 C -0.538172 0.665369 2.537855 0
M  V30 15 C -0.307586 0.149559 3.813387 0
M  V30 16 C -1.318639 -0.403849 4.568894 0
M  V30 17 C -2.612989 -0.476341 4.102111 0
M  V30 18 N -3.759438 -0.953983 4.621161 0
M  V30 19 N -4.742728 -0.777021 3.743716 0
M  V30 20 C -4.232047 -0.181995 2.650521 0
M  V30 21 C -2.881821 0.022980 2.845342 0
M  V30 22 C -1.847463 0.571524 2.112125 0
M  V30 23 C -0.058136 0.674839 -0.543969 0
M  V30 24 C -0.403508 -2.449016 -1.032830 0
M  V30 25 C -0.226855 -3.610254 -0.314558 0
M  V30 26 H 1.495126 -4.292763 2.761362 0
M  V30 27 H 2.584701 -5.725643 2.770629 0
M  V30 28 H 0.832635 -5.956282 3.144471 0
M  V30 29 H 3.043691 -4.011995 -0.622073 0
M  V30 30 H 2.862613 -1.984916 -1.897525 0
M  V30 31 H -0.348878 -0.462483 -2.824320 0
M  V30 32 H 1.398705 -0.648498 -3.272692 0
M  V30 33 H 1.492673 1.716118 -3.312318 0
M  V30 34 H -0.033528 2.198652 -2.494512 0
M  V30 35 H 1.362918 3.839139 -1.593166 0
M  V30 36 H 2.781292 2.742839 -1.768863 0
M  V30 37 H 2.422585 1.565353 0.198727 0
M  V30 38 H 1.894926 3.199672 0.672111 0
M  V30 39 H -0.424072 2.621481 0.381451 0
M  V30 40 H 1.438188 1.258531 2.207483 0
M  V30 41 H 0.712003 0.209119 4.174033 0
M  V30 42 H -1.058156 -0.782468 5.549553 0
M  V30 43 H -3.772884 -1.380968 5.577822 0
M  V30 44 H -4.748434 0.117555 1.724422 0
M  V30 45 H -2.153998 0.932197 1.156630 0
M  V30 46 H -0.003388 -0.277962 0.015372 0
M  V30 47 H -1.075301 0.842227 -0.955807 0
M  V30 48 H -1.331957 -1.940219 -1.199892 0
M  V30 49 H -1.102512 -4.063622 0.129139 0
M  V30 END ATOM
M  V30 BEGIN BOND
M  V30 1 1 1 2
M  V30 2 1 2 3
M  V30 3 2 3 4
M  V30 4 1 4 5
M  V30 5 2 5 6
M  V30 6 1 6 7
M  V30 7 1 7 8
M  V30 8 1 8 9
M  V30 9 1 9 10
M  V30 10 1 10 11
M  V30 11 1 11 12
M  V30 12 1 12 13
M  V30 13 1 13 14
M  V30 14 2 14 15
M  V30 15 1 15 16
M  V30 16 2 16 17
M  V30 17 1 17 18
M  V30 18 1 18 19
M  V30 19 2 19 20
M  V30 20 1 20 21
M  V30 21 2 21 22
M  V30 22 1 12 23
M  V30 23 1 6 24
M  V30 24 2 24 25
M  V30 25 1 25 3
M  V30 26 1 23 8
M  V30 27 1 22 14
M  V30 28 1 21 17
M  V30 29 1 1 26
M  V30 30 1 1 27
M  V30 31 1 1 28
M  V30 32 1 4 29
M  V30 33 1 5 30
M  V30 34 1 7 31
M  V30 35 1 7 32
M  V30 36 1 9 33
M  V30 37 1 9 34
M  V30 38 1 10 35
M  V30 39 1 10 36
M  V30 40 1 11 37
M  V30 41 1 11 38
M  V30 42 1 12 39 CFG=1
M  V30 43 1 13 40
M  V30 44 1 15 41
M  V30 45 1 16 42
M  V30 46 1 18 43
M  V30 47 1 20 44
M  V30 48 1 22 45
M  V30 49 1 23 46
M  V30 50 1 23 47
M  V30 51 1 24 48
M  V30 52 1 25 49
M  V30 END BOND
M  V30 END CTAB
M  END
>  <Dataset>  (842) 
ChEMBL_Kinases

>  <Ligand_Instance>  (842) 
nan

>  <PDB_ID>  (842) 
nan

>  <Standardized_SMILES>  (842) 
CSc1ccc(CN2CCC[C@H](Nc3ccc4[nH]ncc4c3)C2)cc1

>  <Name>  (842) 
nan

>  <Pocket>  (842) 
nan

>  <ATP_Site>  (842) 
nan

>  <Peripheral>  (842) 
nan

>  <Num_H_Atoms_ProtBoundConf>  (842) 
nan

>  <Num_Resolved_Atoms>  (842) 
nan

>  <Num_Not_Resolved_Atoms>  (842) 
nan

$$$$
CHEMBL3689414
     RDKit          3D

  0  0  0  0  0  0  0  0  0  0999 V3000
M  V30 BEGIN CTAB
M  V30 COUNTS 49 52 0 0 0
M  V30 BEGIN ATOM
M  V30 1 C 0.285026 -4.993803 3.611249 0
M  V30 2 S 0.659425 -5.694470 1.964149 0
M  V30 3 C 1.018345 -4.422872 0.790041 0
M  V30 4 C 2.282891 -3.952203 0.579842 0
M  V30 5 C 2.438766 -2.960762 -0.360016 0
M  V30 6 C 1.426363 -2.377068 -1.132203 0
M  V30 7 C 1.791358 -1.319079 -2.105234 0
M  V30 8 N 1.765273 -0.053601 -1.466953 0
M  V30 9 C 2.107289 1.049502 -2.352566 0
M  V30 10 C 2.615780 2.147136 -1.442856 0
M  V30 11 C 1.577157 2.579300 -0.459522 0
M  V30 12 C 0.860125 1.424205 0.202480 0 CFG=1
M  V30 13 N -0.417487 1.850866 0.726597 0
M  V30 14 C -1.319814 1.187620 1.594476 0
M  V30 15 C -1.108832 -0.042221 2.175508 0
M  V30 16 C -1.983152 -0.706599 3.008450 0
M  V30 17 C -3.175372 -0.080376 3.283104 0
M  V30 18 N -4.259423 -0.380798 4.021894 0
M  V30 19 N -5.165501 0.585633 3.955068 0
M  V30 20 C -4.699535 1.565101 3.159565 0
M  V30 21 C -3.443651 1.153411 2.730680 0
M  V30 22 C -2.529721 1.766209 1.905581 0
M  V30 23 C 0.568735 0.321285 -0.800298 0
M  V30 24 C 0.176048 -2.898119 -0.870017 0
M  V30 25 C -0.019322 -3.885573 0.058186 0
M  V30 26 H -0.820697 -4.834856 3.718095 0
M  V30 27 H 0.557576 -5.695446 4.424109 0
M  V30 28 H 0.834808 -4.035199 3.656361 0
M  V30 29 H 3.121705 -4.332187 1.118176 0
M  V30 30 H 3.463103 -2.590996 -0.519023 0
M  V30 31 H 2.847515 -1.515418 -2.416887 0
M  V30 32 H 1.091870 -1.411752 -2.960519 0
M  V30 33 H 2.869135 0.795297 -3.094042 0
M  V30 34 H 1.150237 1.438201 -2.800794 0
M  V30 35 H 2.976543 3.018072 -1.997904 0
M  V30 36 H 3.477741 1.714839 -0.863520 0
M  V30 37 H 2.085773 3.151169 0.344641 0
M  V30 38 H 0.867373 3.275536 -0.947985 0
M  V30 39 H 1.441505 0.984045 1.026410 0
M  V30 40 H -0.723291 2.817737 0.404656 0
M  V30 41 H -0.184097 -0.564687 2.000674 0
M  V30 42 H -1.757741 -1.673605 3.433489 0
M  V30 43 H -4.352811 -1.269197 4.570334 0
M  V30 44 H -5.226074 2.473667 2.925717 0
M  V30 45 H -2.795422 2.735465 1.500490 0
M  V30 46 H 0.107454 -0.514168 -0.295624 0
M  V30 47 H -0.202873 0.755517 -1.487873 0
M  V30 48 H -0.634499 -2.456506 -1.466753 0
M  V30 49 H -1.052704 -4.235703 0.196165 0
M  V30 END ATOM
M  V30 BEGIN BOND
M  V30 1 1 1 2
M  V30 2 1 2 3
M  V30 3 2 3 4
M  V30 4 1 4 5
M  V30 5 2 5 6
M  V30 6 1 6 7
M  V30 7 1 7 8
M  V30 8 1 8 9
M  V30 9 1 9 10
M  V30 10 1 10 11
M  V30 11 1 11 12
M  V30 12 1 12 13
M  V30 13 1 13 14
M  V30 14 2 14 15
M  V30 15 1 15 16
M  V30 16 2 16 17
M  V30 17 1 17 18
M  V30 18 1 18 19
M  V30 19 2 19 20
M  V30 20 1 20 21
M  V30 21 2 21 22
M  V30 22 1 12 23
M  V30 23 1 6 24
M  V30 24 2 24 25
M  V30 25 1 25 3
M  V30 26 1 23 8
M  V30 27 1 22 14
M  V30 28 1 21 17
M  V30 29 1 1 26
M  V30 30 1 1 27
M  V30 31 1 1 28
M  V30 32 1 4 29
M  V30 33 1 5 30
M  V30 34 1 7 31
M  V30 35 1 7 32
M  V30 36 1 9 33
M  V30 37 1 9 34
M  V30 38 1 10 35
M  V30 39 1 10 36
M  V30 40 1 11 37
M  V30 41 1 11 38
M  V30 42 1 12 39 CFG=1
M  V30 43 1 13 40
M  V30 44 1 15 41
M  V30 45 1 16 42
M  V30 46 1 18 43
M  V30 47 1 20 44
M  V30 48 1 22 45
M  V30 49 1 23 46
M  V30 50 1 23 47
M  V30 51 1 24 48
M  V30 52 1 25 49
M  V30 END BOND
M  V30 END CTAB
M  END
>  <Dataset>  (843) 
ChEMBL_Kinases

>  <Ligand_Instance>  (843) 
nan

>  <PDB_ID>  (843) 
nan

>  <Standardized_SMILES>  (843) 
CSc1ccc(CN2CCC[C@@H](Nc3ccc4[nH]ncc4c3)C2)cc1

>  <Name>  (843) 
nan

>  <Pocket>  (843) 
nan

>  <ATP_Site>  (843) 
nan

>  <Peripheral>  (843) 
nan

>  <Num_H_Atoms_ProtBoundConf>  (843) 
nan

>  <Num_Resolved_Atoms>  (843) 
nan

>  <Num_Not_Resolved_Atoms>  (843) 
nan

$$$$
CHEMBL3689413
     RDKit          3D

  0  0  0  0  0  0  0  0  0  0999 V3000
M  V30 BEGIN CTAB
M  V30 COUNTS 45 48 0 0 0
M  V30 BEGIN ATOM
M  V30 1 F -2.487827 -6.198156 -3.319328 0
M  V30 2 C -1.800208 -5.355942 -2.505712 0
M  V30 3 C -0.411928 -5.291784 -2.534671 0
M  V30 4 C 0.251627 -4.413601 -1.682636 0
M  V30 5 C -0.469173 -3.601098 -0.803468 0
M  V30 6 C 0.372984 -2.715786 0.044029 0
M  V30 7 N 0.627098 -1.438929 -0.561284 0
M  V30 8 C -0.604669 -0.760685 -0.796861 0
M  V30 9 C -0.503860 0.663834 -1.177514 0
M  V30 10 C 0.672922 1.435766 -0.739472 0
M  V30 11 C 1.804704 0.707456 -0.107709 0 CFG=1
M  V30 12 N 2.341646 1.419120 1.055987 0
M  V30 13 C 1.600758 1.694878 2.234122 0
M  V30 14 C 0.292532 1.321090 2.446054 0
M  V30 15 C -0.448043 1.580634 3.578890 0
M  V30 16 C 0.151916 2.275978 4.608393 0
M  V30 17 N -0.280026 2.681904 5.816570 0
M  V30 18 N 0.706102 3.323177 6.430175 0
M  V30 19 C 1.785896 3.337380 5.622628 0
M  V30 20 C 1.462824 2.676310 4.451785 0
M  V30 21 C 2.151821 2.386149 3.293006 0
M  V30 22 C 1.621263 -0.736320 0.129559 0
M  V30 23 C -1.847679 -3.660467 -0.770289 0
M  V30 24 C -2.505860 -4.545520 -1.629707 0
M  V30 25 F -3.865507 -4.593427 -1.586181 0
M  V30 26 H 0.125771 -5.932616 -3.225951 0
M  V30 27 H 1.342391 -4.410224 -1.753431 0
M  V30 28 H 1.332201 -3.202393 0.315760 0
M  V30 29 H -0.193067 -2.510788 0.992882 0
M  V30 30 H -1.222897 -0.904888 0.124174 0
M  V30 31 H -1.152501 -1.313303 -1.587978 0
M  V30 32 H -0.713293 0.767813 -2.285860 0
M  V30 33 H -1.419069 1.162976 -0.732290 0
M  V30 34 H 0.400168 2.275355 -0.026088 0
M  V30 35 H 1.012305 2.039984 -1.643999 0
M  V30 36 H 2.645070 0.756213 -0.873907 0
M  V30 37 H 3.347101 1.772652 1.069151 0
M  V30 38 H -0.240558 0.774213 1.692793 0
M  V30 39 H -1.472056 1.264787 3.694604 0
M  V30 40 H -1.212121 2.547482 6.250929 0
M  V30 41 H 2.770210 3.775804 5.801495 0
M  V30 42 H 3.187352 2.740271 3.250831 0
M  V30 43 H 1.430275 -0.863403 1.238183 0
M  V30 44 H 2.597463 -1.293649 -0.005038 0
M  V30 45 H -2.355226 -3.011251 -0.072480 0
M  V30 END ATOM
M  V30 BEGIN BOND
M  V30 1 1 1 2
M  V30 2 2 2 3
M  V30 3 1 3 4
M  V30 4 2 4 5
M  V30 5 1 5 6
M  V30 6 1 6 7
M  V30 7 1 7 8
M  V30 8 1 8 9
M  V30 9 1 9 10
M  V30 10 1 10 11
M  V30 11 1 11 12
M  V30 12 1 12 13
M  V30 13 2 13 14
M  V30 14 1 14 15
M  V30 15 2 15 16
M  V30 16 1 16 17
M  V30 17 1 17 18
M  V30 18 2 18 19
M  V30 19 1 19 20
M  V30 20 2 20 21
M  V30 21 1 11 22
M  V30 22 1 5 23
M  V30 23 2 23 24
M  V30 24 1 24 25
M  V30 25 1 24 2
M  V30 26 1 22 7
M  V30 27 1 21 13
M  V30 28 1 20 16
M  V30 29 1 3 26
M  V30 30 1 4 27
M  V30 31 1 6 28
M  V30 32 1 6 29
M  V30 33 1 8 30
M  V30 34 1 8 31
M  V30 35 1 9 32
M  V30 36 1 9 33
M  V30 37 1 10 34
M  V30 38 1 10 35
M  V30 39 1 11 36 CFG=3
M  V30 40 1 12 37
M  V30 41 1 14 38
M  V30 42 1 15 39
M  V30 43 1 17 40
M  V30 44 1 19 41
M  V30 45 1 21 42
M  V30 46 1 22 43
M  V30 47 1 22 44
M  V30 48 1 23 45
M  V30 END BOND
M  V30 END CTAB
M  END
>  <Dataset>  (844) 
ChEMBL_Kinases

>  <Ligand_Instance>  (844) 
nan

>  <PDB_ID>  (844) 
nan

>  <Standardized_SMILES>  (844) 
Fc1ccc(CN2CCC[C@@H](Nc3ccc4[nH]ncc4c3)C2)cc1F

>  <Name>  (844) 
nan

>  <Pocket>  (844) 
nan

>  <ATP_Site>  (844) 
nan

>  <Peripheral>  (844) 
nan

>  <Num_H_Atoms_ProtBoundConf>  (844) 
nan

>  <Num_Resolved_Atoms>  (844) 
nan

>  <Num_Not_Resolved_Atoms>  (844) 
nan

$$$$
CHEMBL3689296
     RDKit          3D

  0  0  0  0  0  0  0  0  0  0999 V3000
M  V30 BEGIN CTAB
M  V30 COUNTS 67 70 0 0 0
M  V30 BEGIN ATOM
M  V30 1 C 2.670123 -3.872537 0.421917 0
M  V30 2 N 1.561381 -4.074201 -0.503630 0
M  V30 3 C 0.373999 -4.203592 0.338900 0
M  V30 4 C 1.701097 -5.354653 -1.176911 0
M  V30 5 C 2.864918 -5.392791 -2.113059 0
M  V30 6 C 2.749604 -4.346448 -3.198341 0
M  V30 7 O 2.693496 -3.038211 -2.659132 0
M  V30 8 C 2.586067 -1.916867 -3.504304 0
M  V30 9 C 2.533011 -2.075512 -4.873031 0
M  V30 10 C 2.427917 -1.011547 -5.743726 0
M  V30 11 N 2.374671 0.238377 -5.234241 0
M  V30 12 C 2.424143 0.430568 -3.898501 0
M  V30 13 C 2.366355 1.728050 -3.426993 0
M  V30 14 C 2.411881 2.008322 -2.058545 0
M  V30 15 C 2.516834 0.918145 -1.222940 0
M  V30 16 C 2.573494 1.059912 0.218750 0
M  V30 17 C 2.601804 1.169799 1.429278 0
M  V30 18 C 2.620500 1.282365 2.895839 0
M  V30 19 N 1.256424 1.496770 3.401119 0
M  V30 20 C 0.480167 0.377081 2.995966 0
M  V30 21 O 1.249144 -0.395785 2.346941 0
M  V30 22 C -0.926439 0.104792 3.241859 0
M  V30 23 C -1.369884 -1.102376 2.687113 0
M  V30 24 C -2.682018 -1.488234 2.838922 0
M  V30 25 C -3.583491 -0.715793 3.527225 0
M  V30 26 N -3.139726 0.424601 4.044367 0
M  V30 27 C -4.074585 1.250249 4.772528 0
M  V30 28 C -4.733373 2.201630 3.843851 0
M  V30 29 C -4.276268 3.472264 3.569839 0
M  V30 30 C -4.970431 4.266166 2.685045 0
M  V30 31 F -4.486495 5.507506 2.445215 0
M  V30 32 C -6.111719 3.833420 2.060489 0
M  V30 33 F -6.774892 4.636534 1.194101 0
M  V30 34 C -6.605482 2.560676 2.308836 0
M  V30 35 F -7.737904 2.092531 1.707285 0
M  V30 36 C -5.883073 1.794663 3.200952 0
M  V30 37 C -1.870387 0.836569 3.919163 0
M  V30 38 O -1.460122 1.897344 4.401024 0
M  V30 39 C 2.577607 -0.406932 -1.667752 0
M  V30 40 C 2.528403 -0.620793 -3.029237 0
M  V30 41 H 3.609365 -3.597890 -0.069904 0
M  V30 42 H 2.363667 -3.031564 1.082984 0
M  V30 43 H 2.725264 -4.778528 1.054536 0
M  V30 44 H 0.220842 -5.280121 0.634076 0
M  V30 45 H 0.507844 -3.670392 1.292965 0
M  V30 46 H -0.550192 -3.886577 -0.151525 0
M  V30 47 H 0.794683 -5.590425 -1.742462 0
M  V30 48 H 1.850580 -6.097680 -0.369547 0
M  V30 49 H 3.849814 -5.286906 -1.583454 0
M  V30 50 H 2.882445 -6.367596 -2.617278 0
M  V30 51 H 1.822100 -4.602865 -3.760258 0
M  V30 52 H 3.571170 -4.491026 -3.926845 0
M  V30 53 H 2.576978 -3.087833 -5.262565 0
M  V30 54 H 2.390760 -1.215253 -6.820497 0
M  V30 55 H 2.283020 2.574995 -4.108281 0
M  V30 56 H 2.372347 2.984598 -1.620908 0
M  V30 57 H 3.020582 0.402058 3.397172 0
M  V30 58 H 3.226168 2.164487 3.148314 0
M  V30 59 H 0.749241 2.245030 3.961714 0
M  V30 60 H -0.716403 -1.770765 2.127455 0
M  V30 61 H -3.011338 -2.416799 2.408039 0
M  V30 62 H -4.605135 -1.035419 3.634742 0
M  V30 63 H -3.489221 1.791874 5.546719 0
M  V30 64 H -4.860573 0.609147 5.247709 0
M  V30 65 H -3.389573 3.816026 4.052497 0
M  V30 66 H -6.299722 0.795150 3.375434 0
M  V30 67 H 2.659296 -1.248006 -1.012237 0
M  V30 END ATOM
M  V30 BEGIN BOND
M  V30 1 1 1 2
M  V30 2 1 2 3
M  V30 3 1 2 4
M  V30 4 1 4 5
M  V30 5 1 5 6
M  V30 6 1 6 7
M  V30 7 1 7 8
M  V30 8 2 8 9
M  V30 9 1 9 10
M  V30 10 2 10 11
M  V30 11 1 11 12
M  V30 12 2 12 13
M  V30 13 1 13 14
M  V30 14 2 14 15
M  V30 15 1 15 16
M  V30 16 3 16 17
M  V30 17 1 17 18
M  V30 18 1 18 19
M  V30 19 1 19 20
M  V30 20 2 20 21
M  V30 21 1 20 22
M  V30 22 2 22 23
M  V30 23 1 23 24
M  V30 24 2 24 25
M  V30 25 1 25 26
M  V30 26 1 26 27
M  V30 27 1 27 28
M  V30 28 2 28 29
M  V30 29 1 29 30
M  V30 30 1 30 31
M  V30 31 2 30 32
M  V30 32 1 32 33
M  V30 33 1 32 34
M  V30 34 1 34 35
M  V30 35 2 34 36
M  V30 36 1 26 37
M  V30 37 2 37 38
M  V30 38 1 15 39
M  V30 39 2 39 40
M  V30 40 1 40 8
M  V30 41 1 40 12
M  V30 42 1 37 22
M  V30 43 1 36 28
M  V30 44 1 1 41
M  V30 45 1 1 42
M  V30 46 1 1 43
M  V30 47 1 3 44
M  V30 48 1 3 45
M  V30 49 1 3 46
M  V30 50 1 4 47
M  V30 51 1 4 48
M  V30 52 1 5 49
M  V30 53 1 5 50
M  V30 54 1 6 51
M  V30 55 1 6 52
M  V30 56 1 9 53
M  V30 57 1 10 54
M  V30 58 1 13 55
M  V30 59 1 14 56
M  V30 60 1 18 57
M  V30 61 1 18 58
M  V30 62 1 19 59
M  V30 63 1 23 60
M  V30 64 1 24 61
M  V30 65 1 25 62
M  V30 66 1 27 63
M  V30 67 1 27 64
M  V30 68 1 29 65
M  V30 69 1 36 66
M  V30 70 1 39 67
M  V30 END BOND
M  V30 END CTAB
M  END
>  <Dataset>  (845) 
ChEMBL_Kinases

>  <Ligand_Instance>  (845) 
nan

>  <PDB_ID>  (845) 
nan

>  <Standardized_SMILES>  (845) 
CN(C)CCCOc1ccnc2ccc(C#CCNC(=O)c3cccn(Cc4cc(F)c(F)c(F)c4)c3=O)cc12

>  <Name>  (845) 
nan

>  <Pocket>  (845) 
nan

>  <ATP_Site>  (845) 
nan

>  <Peripheral>  (845) 
nan

>  <Num_H_Atoms_ProtBoundConf>  (845) 
nan

>  <Num_Resolved_Atoms>  (845) 
nan

>  <Num_Not_Resolved_Atoms>  (845) 
nan

$$$$
CHEMBL3689396
     RDKit          3D

  0  0  0  0  0  0  0  0  0  0999 V3000
M  V30 BEGIN CTAB
M  V30 COUNTS 49 52 0 0 0
M  V30 BEGIN ATOM
M  V30 1 N 3.338291 -5.297969 2.745322 0
M  V30 2 C 2.402796 -4.413589 2.142876 0
M  V30 3 O 1.159953 -4.455584 2.443058 0
M  V30 4 C 2.872548 -3.426127 1.150749 0
M  V30 5 C 4.192549 -3.313253 0.765812 0
M  V30 6 C 4.570090 -2.367734 -0.169774 0
M  V30 7 C 3.619581 -1.537938 -0.716078 0
M  V30 8 C 2.277851 -1.601615 -0.370552 0
M  V30 9 C 1.217279 -0.726347 -0.926193 0
M  V30 10 N 1.063308 0.403643 -0.082283 0
M  V30 11 C 2.209464 1.230463 0.113570 0
M  V30 12 C 1.961333 1.977421 1.403622 0
M  V30 13 C 0.591228 2.433348 1.653792 0
M  V30 14 C -0.508679 1.985044 0.753775 0
M  V30 15 N -1.387950 1.034455 1.401308 0
M  V30 16 C -2.630568 0.535995 0.996792 0
M  V30 17 C -3.314689 0.917508 -0.136994 0
M  V30 18 C -4.531514 0.427157 -0.560411 0
M  V30 19 C -5.127541 -0.552014 0.240390 0
M  V30 20 N -6.268292 -1.252281 0.172282 0
M  V30 21 N -6.353387 -2.071892 1.214716 0
M  V30 22 C -5.269849 -1.945650 2.014836 0
M  V30 23 C -4.487317 -0.970890 1.386661 0
M  V30 24 C -3.272228 -0.430740 1.740153 0
M  V30 25 C -0.000504 1.297197 -0.494625 0
M  V30 26 C 1.961793 -2.568221 0.570775 0
M  V30 27 H 3.577486 -5.937766 1.950302 0
M  V30 28 H 3.359003 -4.905159 3.704859 0
M  V30 29 H 4.934489 -3.986623 1.215739 0
M  V30 30 H 5.622787 -2.289903 -0.465602 0
M  V30 31 H 3.925623 -0.808307 -1.448172 0
M  V30 32 H 0.287887 -1.310276 -0.932936 0
M  V30 33 H 1.559105 -0.451285 -1.946238 0
M  V30 34 H 2.262080 2.000566 -0.691976 0
M  V30 35 H 3.163905 0.697414 0.220166 0
M  V30 36 H 2.721098 2.797366 1.413695 0
M  V30 37 H 2.331590 1.288343 2.220186 0
M  V30 38 H 0.304084 2.191468 2.707847 0
M  V30 39 H 0.602848 3.564396 1.653845 0
M  V30 40 H -1.131223 2.836968 0.422456 0
M  V30 41 H -1.012345 0.671040 2.325113 0
M  V30 42 H -2.921011 1.667879 -0.781466 0
M  V30 43 H -5.035049 0.743572 -1.444738 0
M  V30 44 H -7.002596 -1.175671 -0.591002 0
M  V30 45 H -5.023423 -2.453375 2.928887 0
M  V30 46 H -2.806346 -0.801627 2.664536 0
M  V30 47 H -0.784699 0.802881 -1.050746 0
M  V30 48 H 0.448091 2.079763 -1.139941 0
M  V30 49 H 0.923971 -2.639502 0.857205 0
M  V30 END ATOM
M  V30 BEGIN BOND
M  V30 1 1 1 2
M  V30 2 2 2 3
M  V30 3 1 2 4
M  V30 4 2 4 5
M  V30 5 1 5 6
M  V30 6 2 6 7
M  V30 7 1 7 8
M  V30 8 1 8 9
M  V30 9 1 9 10
M  V30 10 1 10 11
M  V30 11 1 11 12
M  V30 12 1 12 13
M  V30 13 1 13 14
M  V30 14 1 14 15
M  V30 15 1 15 16
M  V30 16 2 16 17
M  V30 17 1 17 18
M  V30 18 2 18 19
M  V30 19 1 19 20
M  V30 20 1 20 21
M  V30 21 2 21 22
M  V30 22 1 22 23
M  V30 23 2 23 24
M  V30 24 1 14 25
M  V30 25 2 8 26
M  V30 26 1 26 4
M  V30 27 1 25 10
M  V30 28 1 24 16
M  V30 29 1 23 19
M  V30 30 1 1 27
M  V30 31 1 1 28
M  V30 32 1 5 29
M  V30 33 1 6 30
M  V30 34 1 7 31
M  V30 35 1 9 32
M  V30 36 1 9 33
M  V30 37 1 11 34
M  V30 38 1 11 35
M  V30 39 1 12 36
M  V30 40 1 12 37
M  V30 41 1 13 38
M  V30 42 1 13 39
M  V30 43 1 14 40
M  V30 44 1 15 41
M  V30 45 1 17 42
M  V30 46 1 18 43
M  V30 47 1 20 44
M  V30 48 1 22 45
M  V30 49 1 24 46
M  V30 50 1 25 47
M  V30 51 1 25 48
M  V30 52 1 26 49
M  V30 END BOND
M  V30 END CTAB
M  END
>  <Dataset>  (846) 
ChEMBL_Kinases

>  <Ligand_Instance>  (846) 
nan

>  <PDB_ID>  (846) 
nan

>  <Standardized_SMILES>  (846) 
NC(=O)c1cccc(CN2CCCC(Nc3ccc4[nH]ncc4c3)C2)c1

>  <Name>  (846) 
nan

>  <Pocket>  (846) 
nan

>  <ATP_Site>  (846) 
nan

>  <Peripheral>  (846) 
nan

>  <Num_H_Atoms_ProtBoundConf>  (846) 
nan

>  <Num_Resolved_Atoms>  (846) 
nan

>  <Num_Not_Resolved_Atoms>  (846) 
nan

$$$$
CHEMBL3689397
     RDKit          3D

  0  0  0  0  0  0  0  0  0  0999 V3000
M  V30 BEGIN CTAB
M  V30 COUNTS 50 53 0 0 0
M  V30 BEGIN ATOM
M  V30 1 N 3.540403 -4.458897 1.997048 0
M  V30 2 S 4.315048 -4.023567 0.529434 0
M  V30 3 O 4.879540 -5.234089 -0.139903 0
M  V30 4 O 5.426889 -3.050642 0.830570 0
M  V30 5 C 3.174412 -3.192600 -0.535045 0
M  V30 6 C 2.369251 -3.849916 -1.465593 0
M  V30 7 C 1.512650 -3.101043 -2.246853 0
M  V30 8 C 1.415739 -1.727590 -2.149352 0
M  V30 9 C 2.199944 -1.038538 -1.235881 0
M  V30 10 C 2.102705 0.415060 -1.128477 0
M  V30 11 N 1.153225 0.931277 -0.217774 0
M  V30 12 C 1.066670 2.331608 -0.112524 0
M  V30 13 C 1.241920 2.833807 1.281271 0
M  V30 14 C 0.114390 2.221073 2.101165 0
M  V30 15 C 0.306778 0.742324 2.115766 0
M  V30 16 N -0.904088 0.044007 2.551016 0
M  V30 17 C -2.150188 0.007738 1.893780 0
M  V30 18 C -2.447349 0.611860 0.694097 0
M  V30 19 C -3.666352 0.584930 0.052768 0
M  V30 20 C -4.680038 -0.111700 0.670796 0
M  V30 21 N -5.959966 -0.360338 0.373724 0
M  V30 22 N -6.510702 -1.090872 1.310616 0
M  V30 23 C -5.613800 -1.360735 2.277130 0
M  V30 24 C -4.450188 -0.735416 1.865430 0
M  V30 25 C -3.208724 -0.670917 2.455517 0
M  V30 26 C 0.732174 0.112940 0.840060 0
M  V30 27 C 3.055395 -1.818542 -0.460415 0
M  V30 28 H 3.414817 -3.677687 2.659154 0
M  V30 29 H 3.979240 -5.320442 2.417414 0
M  V30 30 H 2.461820 -4.926578 -1.524861 0
M  V30 31 H 0.905361 -3.679553 -2.960675 0
M  V30 32 H 0.705031 -1.216860 -2.813531 0
M  V30 33 H 1.916571 0.812165 -2.158133 0
M  V30 34 H 3.124108 0.798129 -0.857357 0
M  V30 35 H 1.818254 2.768725 -0.824398 0
M  V30 36 H 0.061886 2.671413 -0.458093 0
M  V30 37 H 2.173166 2.374929 1.683101 0
M  V30 38 H 1.263354 3.919950 1.350752 0
M  V30 39 H -0.875312 2.589833 1.841016 0
M  V30 40 H 0.313913 2.598656 3.155135 0
M  V30 41 H 1.123244 0.554004 2.879668 0
M  V30 42 H -0.834527 -0.495359 3.463996 0
M  V30 43 H -1.684192 1.161855 0.171930 0
M  V30 44 H -3.834624 1.082969 -0.892571 0
M  V30 45 H -6.470939 -0.026559 -0.484276 0
M  V30 46 H -5.764788 -1.940886 3.182612 0
M  V30 47 H -3.076182 -1.185559 3.409041 0
M  V30 48 H -0.074920 -0.568531 0.418596 0
M  V30 49 H 1.543851 -0.634716 1.085134 0
M  V30 50 H 3.696648 -1.312560 0.277238 0
M  V30 END ATOM
M  V30 BEGIN BOND
M  V30 1 1 1 2
M  V30 2 2 2 3
M  V30 3 2 2 4
M  V30 4 1 2 5
M  V30 5 2 5 6
M  V30 6 1 6 7
M  V30 7 2 7 8
M  V30 8 1 8 9
M  V30 9 1 9 10
M  V30 10 1 10 11
M  V30 11 1 11 12
M  V30 12 1 12 13
M  V30 13 1 13 14
M  V30 14 1 14 15
M  V30 15 1 15 16
M  V30 16 1 16 17
M  V30 17 2 17 18
M  V30 18 1 18 19
M  V30 19 2 19 20
M  V30 20 1 20 21
M  V30 21 1 21 22
M  V30 22 2 22 23
M  V30 23 1 23 24
M  V30 24 2 24 25
M  V30 25 1 15 26
M  V30 26 2 9 27
M  V30 27 1 27 5
M  V30 28 1 26 11
M  V30 29 1 25 17
M  V30 30 1 24 20
M  V30 31 1 1 28
M  V30 32 1 1 29
M  V30 33 1 6 30
M  V30 34 1 7 31
M  V30 35 1 8 32
M  V30 36 1 10 33
M  V30 37 1 10 34
M  V30 38 1 12 35
M  V30 39 1 12 36
M  V30 40 1 13 37
M  V30 41 1 13 38
M  V30 42 1 14 39
M  V30 43 1 14 40
M  V30 44 1 15 41
M  V30 45 1 16 42
M  V30 46 1 18 43
M  V30 47 1 19 44
M  V30 48 1 21 45
M  V30 49 1 23 46
M  V30 50 1 25 47
M  V30 51 1 26 48
M  V30 52 1 26 49
M  V30 53 1 27 50
M  V30 END BOND
M  V30 END CTAB
M  END
>  <Dataset>  (847) 
ChEMBL_Kinases

>  <Ligand_Instance>  (847) 
nan

>  <PDB_ID>  (847) 
nan

>  <Standardized_SMILES>  (847) 
NS(=O)(=O)c1cccc(CN2CCCC(Nc3ccc4[nH]ncc4c3)C2)c1

>  <Name>  (847) 
nan

>  <Pocket>  (847) 
nan

>  <ATP_Site>  (847) 
nan

>  <Peripheral>  (847) 
nan

>  <Num_H_Atoms_ProtBoundConf>  (847) 
nan

>  <Num_Resolved_Atoms>  (847) 
nan

>  <Num_Not_Resolved_Atoms>  (847) 
nan

$$$$
CHEMBL3689398
     RDKit          3D

  0  0  0  0  0  0  0  0  0  0999 V3000
M  V30 BEGIN CTAB
M  V30 COUNTS 65 68 0 0 0
M  V30 BEGIN ATOM
M  V30 1 C 3.392075 -1.313619 1.248684 0
M  V30 2 C 4.492971 -0.475581 1.837084 0
M  V30 3 C 5.055047 -1.211879 3.061538 0
M  V30 4 C 5.646999 -0.388445 0.865462 0
M  V30 5 O 4.086279 0.774055 2.314776 0
M  V30 6 C 3.507992 1.679189 1.454811 0
M  V30 7 O 3.364422 1.339311 0.254188 0
M  V30 8 N 3.074199 2.964277 1.866632 0
M  V30 9 C 2.458304 4.002699 1.075316 0
M  V30 10 C 1.037506 3.638523 0.849612 0
M  V30 11 C 0.143496 4.076884 1.808005 0
M  V30 12 C -1.226451 3.847670 1.781162 0
M  V30 13 C -1.648011 3.112209 0.669440 0
M  V30 14 C -0.800822 2.650516 -0.315686 0
M  V30 15 C -1.393673 1.899045 -1.418432 0
M  V30 16 N -1.499183 0.497273 -1.272794 0
M  V30 17 C -0.318315 -0.261469 -1.109159 0
M  V30 18 C -0.384020 -1.414211 -2.121309 0
M  V30 19 C -1.563163 -2.326194 -1.853293 0
M  V30 20 C -2.821391 -1.517938 -1.627522 0
M  V30 21 N -3.286217 -1.628151 -0.263693 0
M  V30 22 C -3.705540 -2.821836 0.377392 0
M  V30 23 C -4.126580 -2.829210 1.703902 0
M  V30 24 C -4.534787 -3.994996 2.314317 0
M  V30 25 C -4.541870 -5.194730 1.636981 0
M  V30 26 N -4.903709 -6.415346 2.067672 0
M  V30 27 N -4.726835 -7.240860 1.026195 0
M  V30 28 C -4.261125 -6.540257 -0.036826 0
M  V30 29 C -4.130486 -5.213435 0.325626 0
M  V30 30 C -3.725389 -4.037537 -0.268898 0
M  V30 31 C -2.554841 -0.103159 -2.023572 0
M  V30 32 C 0.546013 2.921529 -0.213671 0
M  V30 33 H 3.623365 -2.380758 1.500593 0
M  V30 34 H 2.403003 -1.053687 1.650075 0
M  V30 35 H 3.424377 -1.200260 0.145058 0
M  V30 36 H 6.071233 -0.785505 3.257270 0
M  V30 37 H 5.108145 -2.289976 2.900050 0
M  V30 38 H 4.410657 -0.933771 3.934607 0
M  V30 39 H 5.796312 -1.379018 0.408467 0
M  V30 40 H 5.476645 0.343200 0.052758 0
M  V30 41 H 6.559010 -0.126321 1.422245 0
M  V30 42 H 3.231915 3.172070 2.896415 0
M  V30 43 H 2.570547 4.984761 1.559185 0
M  V30 44 H 3.006817 4.037106 0.103123 0
M  V30 45 H 0.480572 4.652297 2.675515 0
M  V30 46 H -1.880588 4.208959 2.549520 0
M  V30 47 H -2.721382 2.913618 0.615555 0
M  V30 48 H -0.801229 2.099427 -2.358620 0
M  V30 49 H -2.424177 2.277264 -1.682957 0
M  V30 50 H 0.589457 0.316973 -1.382981 0
M  V30 51 H -0.134962 -0.676902 -0.098457 0
M  V30 52 H -0.418530 -0.980141 -3.127345 0
M  V30 53 H 0.533628 -2.022077 -2.011615 0
M  V30 54 H -1.685118 -2.982150 -2.729287 0
M  V30 55 H -1.374039 -2.965533 -0.964736 0
M  V30 56 H -3.615615 -1.898443 -2.327418 0
M  V30 57 H -3.315531 -0.738537 0.303177 0
M  V30 58 H -4.138555 -1.911240 2.276907 0
M  V30 59 H -4.854794 -3.948365 3.353893 0
M  V30 60 H -5.257347 -6.712489 3.011900 0
M  V30 61 H -4.017406 -6.926204 -1.033876 0
M  V30 62 H -3.424098 -4.140644 -1.289650 0
M  V30 63 H -3.490507 0.497851 -1.932813 0
M  V30 64 H -2.309873 -0.115354 -3.124504 0
M  V30 65 H 1.244106 2.581713 -0.961204 0
M  V30 END ATOM
M  V30 BEGIN BOND
M  V30 1 1 1 2
M  V30 2 1 2 3
M  V30 3 1 2 4
M  V30 4 1 2 5
M  V30 5 1 5 6
M  V30 6 2 6 7
M  V30 7 1 6 8
M  V30 8 1 8 9
M  V30 9 1 9 10
M  V30 10 2 10 11
M  V30 11 1 11 12
M  V30 12 2 12 13
M  V30 13 1 13 14
M  V30 14 1 14 15
M  V30 15 1 15 16
M  V30 16 1 16 17
M  V30 17 1 17 18
M  V30 18 1 18 19
M  V30 19 1 19 20
M  V30 20 1 20 21
M  V30 21 1 21 22
M  V30 22 2 22 23
M  V30 23 1 23 24
M  V30 24 2 24 25
M  V30 25 1 25 26
M  V30 26 1 26 27
M  V30 27 2 27 28
M  V30 28 1 28 29
M  V30 29 2 29 30
M  V30 30 1 20 31
M  V30 31 2 14 32
M  V30 32 1 32 10
M  V30 33 1 31 16
M  V30 34 1 30 22
M  V30 35 1 29 25
M  V30 36 1 1 33
M  V30 37 1 1 34
M  V30 38 1 1 35
M  V30 39 1 3 36
M  V30 40 1 3 37
M  V30 41 1 3 38
M  V30 42 1 4 39
M  V30 43 1 4 40
M  V30 44 1 4 41
M  V30 45 1 8 42
M  V30 46 1 9 43
M  V30 47 1 9 44
M  V30 48 1 11 45
M  V30 49 1 12 46
M  V30 50 1 13 47
M  V30 51 1 15 48
M  V30 52 1 15 49
M  V30 53 1 17 50
M  V30 54 1 17 51
M  V30 55 1 18 52
M  V30 56 1 18 53
M  V30 57 1 19 54
M  V30 58 1 19 55
M  V30 59 1 20 56
M  V30 60 1 21 57
M  V30 61 1 23 58
M  V30 62 1 24 59
M  V30 63 1 26 60
M  V30 64 1 28 61
M  V30 65 1 30 62
M  V30 66 1 31 63
M  V30 67 1 31 64
M  V30 68 1 32 65
M  V30 END BOND
M  V30 END CTAB
M  END
>  <Dataset>  (848) 
ChEMBL_Kinases

>  <Ligand_Instance>  (848) 
nan

>  <PDB_ID>  (848) 
nan

>  <Standardized_SMILES>  (848) 
CC(C)(C)OC(=O)NCc1cccc(CN2CCCC(Nc3ccc4[nH]ncc4c3)C2)c1

>  <Name>  (848) 
nan

>  <Pocket>  (848) 
nan

>  <ATP_Site>  (848) 
nan

>  <Peripheral>  (848) 
nan

>  <Num_H_Atoms_ProtBoundConf>  (848) 
nan

>  <Num_Resolved_Atoms>  (848) 
nan

>  <Num_Not_Resolved_Atoms>  (848) 
nan

$$$$
CHEMBL3689399
     RDKit          3D

  0  0  0  0  0  0  0  0  0  0999 V3000
M  V30 BEGIN CTAB
M  V30 COUNTS 56 59 0 0 0
M  V30 BEGIN ATOM
M  V30 1 C -1.443778 -4.318649 3.712437 0
M  V30 2 C -0.404498 -3.743868 2.785404 0
M  V30 3 C 0.810576 -3.534468 3.451406 0
M  V30 4 C 1.858894 -3.009859 2.725253 0
M  V30 5 C 1.773322 -2.683084 1.387996 0
M  V30 6 C 2.820770 -2.123701 0.535703 0
M  V30 7 N 2.907950 -0.715620 0.449123 0
M  V30 8 C 3.169697 -0.059969 1.684236 0
M  V30 9 C 1.957797 0.760140 2.099208 0
M  V30 10 C 1.900880 1.945555 1.158483 0
M  V30 11 C 2.056987 1.430938 -0.245568 0
M  V30 12 N 1.146392 2.155881 -1.099233 0
M  V30 13 C -0.248486 2.267485 -1.046326 0
M  V30 14 C -1.076818 1.674584 -0.118020 0
M  V30 15 C -2.447508 1.781100 -0.060523 0
M  V30 16 C -3.081947 2.549218 -1.011145 0
M  V30 17 N -4.361498 2.851900 -1.233759 0
M  V30 18 N -4.418281 3.645571 -2.304391 0
M  V30 19 C -3.189991 3.860002 -2.777234 0
M  V30 20 C -2.315380 3.171256 -1.969965 0
M  V30 21 C -0.957360 3.017501 -1.961375 0
M  V30 22 C 1.940558 -0.068468 -0.376364 0
M  V30 23 C 0.554217 -2.911380 0.788262 0
M  V30 24 C -0.550881 -3.430728 1.425282 0
M  V30 25 O -1.821953 -3.735202 1.053000 0
M  V30 26 C -2.451673 -3.616618 -0.169968 0
M  V30 27 C -1.870498 -4.402998 -1.302218 0
M  V30 28 O -1.901528 -5.765508 -0.984982 0
M  V30 29 H -1.746933 -3.552516 4.454930 0
M  V30 30 H -0.981078 -5.145791 4.286584 0
M  V30 31 H -2.343218 -4.626688 3.151675 0
M  V30 32 H 0.995593 -3.750536 4.490503 0
M  V30 33 H 2.809275 -2.839962 3.205455 0
M  V30 34 H 3.803574 -2.517917 0.921653 0
M  V30 35 H 2.715589 -2.536958 -0.504882 0
M  V30 36 H 3.499302 -0.677004 2.519352 0
M  V30 37 H 3.961448 0.717794 1.463112 0
M  V30 38 H 1.091356 0.118154 1.960151 0
M  V30 39 H 2.046194 1.072529 3.158246 0
M  V30 40 H 1.004429 2.585389 1.312019 0
M  V30 41 H 2.758418 2.643562 1.424956 0
M  V30 42 H 3.102610 1.756704 -0.558892 0
M  V30 43 H 1.581296 2.697653 -1.904300 0
M  V30 44 H -0.667350 1.058104 0.659446 0
M  V30 45 H -3.050425 1.293250 0.691684 0
M  V30 46 H -5.207099 2.549055 -0.697193 0
M  V30 47 H -2.929719 4.461789 -3.633803 0
M  V30 48 H -0.427679 3.548148 -2.761018 0
M  V30 49 H 0.914302 -0.393092 -0.299144 0
M  V30 50 H 2.254932 -0.289844 -1.440565 0
M  V30 51 H 0.330417 -2.705727 -0.247594 0
M  V30 52 H -3.504880 -4.010580 -0.039979 0
M  V30 53 H -2.600132 -2.565538 -0.506229 0
M  V30 54 H -2.622784 -4.309317 -2.145979 0
M  V30 55 H -0.932286 -4.048239 -1.714860 0
M  V30 56 H -1.587608 -6.329300 -1.717201 0
M  V30 END ATOM
M  V30 BEGIN BOND
M  V30 1 1 1 2
M  V30 2 2 2 3
M  V30 3 1 3 4
M  V30 4 2 4 5
M  V30 5 1 5 6
M  V30 6 1 6 7
M  V30 7 1 7 8
M  V30 8 1 8 9
M  V30 9 1 9 10
M  V30 10 1 10 11
M  V30 11 1 11 12
M  V30 12 1 12 13
M  V30 13 2 13 14
M  V30 14 1 14 15
M  V30 15 2 15 16
M  V30 16 1 16 17
M  V30 17 1 17 18
M  V30 18 2 18 19
M  V30 19 1 19 20
M  V30 20 2 20 21
M  V30 21 1 11 22
M  V30 22 1 5 23
M  V30 23 2 23 24
M  V30 24 1 24 25
M  V30 25 1 25 26
M  V30 26 1 26 27
M  V30 27 1 27 28
M  V30 28 1 24 2
M  V30 29 1 22 7
M  V30 30 1 21 13
M  V30 31 1 20 16
M  V30 32 1 1 29
M  V30 33 1 1 30
M  V30 34 1 1 31
M  V30 35 1 3 32
M  V30 36 1 4 33
M  V30 37 1 6 34
M  V30 38 1 6 35
M  V30 39 1 8 36
M  V30 40 1 8 37
M  V30 41 1 9 38
M  V30 42 1 9 39
M  V30 43 1 10 40
M  V30 44 1 10 41
M  V30 45 1 11 42
M  V30 46 1 12 43
M  V30 47 1 14 44
M  V30 48 1 15 45
M  V30 49 1 17 46
M  V30 50 1 19 47
M  V30 51 1 21 48
M  V30 52 1 22 49
M  V30 53 1 22 50
M  V30 54 1 23 51
M  V30 55 1 26 52
M  V30 56 1 26 53
M  V30 57 1 27 54
M  V30 58 1 27 55
M  V30 59 1 28 56
M  V30 END BOND
M  V30 END CTAB
M  END
>  <Dataset>  (849) 
ChEMBL_Kinases

>  <Ligand_Instance>  (849) 
nan

>  <PDB_ID>  (849) 
nan

>  <Standardized_SMILES>  (849) 
Cc1ccc(CN2CCCC(Nc3ccc4[nH]ncc4c3)C2)cc1OCCO

>  <Name>  (849) 
nan

>  <Pocket>  (849) 
nan

>  <ATP_Site>  (849) 
nan

>  <Peripheral>  (849) 
nan

>  <Num_H_Atoms_ProtBoundConf>  (849) 
nan

>  <Num_Resolved_Atoms>  (849) 
nan

>  <Num_Not_Resolved_Atoms>  (849) 
nan

$$$$
CHEMBL3689400
     RDKit          3D

  0  0  0  0  0  0  0  0  0  0999 V3000
M  V30 BEGIN CTAB
M  V30 COUNTS 49 52 0 0 0
M  V30 BEGIN ATOM
M  V30 1 C 1.825552 -6.130576 2.326900 0
M  V30 2 C 1.560207 -5.034349 1.351955 0
M  V30 3 C 2.620130 -4.613639 0.578815 0
M  V30 4 C 2.360191 -3.602527 -0.315189 0
M  V30 5 C 1.131354 -2.962864 -0.515215 0
M  V30 6 C 1.026874 -1.888405 -1.532893 0
M  V30 7 N 1.342273 -0.643637 -0.925627 0
M  V30 8 C 1.279807 0.483949 -1.830438 0
M  V30 9 C 2.375515 1.419592 -1.298561 0
M  V30 10 C 2.407348 1.406012 0.206215 0
M  V30 11 C 1.101235 0.988774 0.826528 0
M  V30 12 N 0.106563 2.040508 0.780641 0
M  V30 13 C -1.196981 1.973398 1.337329 0
M  V30 14 C -1.700776 0.889583 2.022640 0
M  V30 15 C -2.958876 0.817106 2.557958 0
M  V30 16 C -3.789479 1.918877 2.398301 0
M  V30 17 N -5.048514 2.135252 2.805118 0
M  V30 18 N -5.401067 3.354435 2.401964 0
M  V30 19 C -4.396441 3.934606 1.741375 0
M  V30 20 C -3.335656 3.029980 1.720981 0
M  V30 21 C -2.057434 3.039858 1.205469 0
M  V30 22 C 0.548601 -0.281692 0.218095 0
M  V30 23 C 0.130072 -3.450121 0.302492 0
M  V30 24 C 0.328605 -4.449244 1.205927 0
M  V30 25 O -0.730677 -4.884827 1.993332 0
M  V30 26 H 2.595198 -5.813390 3.068363 0
M  V30 27 H 2.205492 -7.029146 1.798710 0
M  V30 28 H 0.911272 -6.385036 2.899559 0
M  V30 29 H 3.588820 -5.043573 0.664238 0
M  V30 30 H 3.217446 -3.280412 -0.922852 0
M  V30 31 H 0.022614 -1.916357 -2.007120 0
M  V30 32 H 1.829495 -2.088192 -2.289934 0
M  V30 33 H 1.456935 0.230601 -2.876565 0
M  V30 34 H 0.322556 1.041189 -1.781283 0
M  V30 35 H 3.328908 0.973796 -1.652097 0
M  V30 36 H 2.296083 2.417833 -1.746809 0
M  V30 37 H 3.235849 0.791349 0.616927 0
M  V30 38 H 2.604451 2.449567 0.536613 0
M  V30 39 H 1.291026 0.771290 1.896806 0
M  V30 40 H 0.395771 2.907704 0.293385 0
M  V30 41 H -1.093813 0.027111 2.169511 0
M  V30 42 H -3.329970 -0.046449 3.091718 0
M  V30 43 H -5.632144 1.443776 3.347071 0
M  V30 44 H -4.331650 4.906249 1.281827 0
M  V30 45 H -1.742476 3.919099 0.687149 0
M  V30 46 H -0.494570 -0.161353 -0.128050 0
M  V30 47 H 0.581736 -1.130709 0.920931 0
M  V30 48 H -0.842325 -2.969525 0.169084 0
M  V30 49 H -1.352230 -5.612920 1.644306 0
M  V30 END ATOM
M  V30 BEGIN BOND
M  V30 1 1 1 2
M  V30 2 2 2 3
M  V30 3 1 3 4
M  V30 4 2 4 5
M  V30 5 1 5 6
M  V30 6 1 6 7
M  V30 7 1 7 8
M  V30 8 1 8 9
M  V30 9 1 9 10
M  V30 10 1 10 11
M  V30 11 1 11 12
M  V30 12 1 12 13
M  V30 13 2 13 14
M  V30 14 1 14 15
M  V30 15 2 15 16
M  V30 16 1 16 17
M  V30 17 1 17 18
M  V30 18 2 18 19
M  V30 19 1 19 20
M  V30 20 2 20 21
M  V30 21 1 11 22
M  V30 22 1 5 23
M  V30 23 2 23 24
M  V30 24 1 24 25
M  V30 25 1 24 2
M  V30 26 1 22 7
M  V30 27 1 21 13
M  V30 28 1 20 16
M  V30 29 1 1 26
M  V30 30 1 1 27
M  V30 31 1 1 28
M  V30 32 1 3 29
M  V30 33 1 4 30
M  V30 34 1 6 31
M  V30 35 1 6 32
M  V30 36 1 8 33
M  V30 37 1 8 34
M  V30 38 1 9 35
M  V30 39 1 9 36
M  V30 40 1 10 37
M  V30 41 1 10 38
M  V30 42 1 11 39
M  V30 43 1 12 40
M  V30 44 1 14 41
M  V30 45 1 15 42
M  V30 46 1 17 43
M  V30 47 1 19 44
M  V30 48 1 21 45
M  V30 49 1 22 46
M  V30 50 1 22 47
M  V30 51 1 23 48
M  V30 52 1 25 49
M  V30 END BOND
M  V30 END CTAB
M  END
>  <Dataset>  (850) 
ChEMBL_Kinases

>  <Ligand_Instance>  (850) 
nan

>  <PDB_ID>  (850) 
nan

>  <Standardized_SMILES>  (850) 
Cc1ccc(CN2CCCC(Nc3ccc4[nH]ncc4c3)C2)cc1O

>  <Name>  (850) 
nan

>  <Pocket>  (850) 
nan

>  <ATP_Site>  (850) 
nan

>  <Peripheral>  (850) 
nan

>  <Num_H_Atoms_ProtBoundConf>  (850) 
nan

>  <Num_Resolved_Atoms>  (850) 
nan

>  <Num_Not_Resolved_Atoms>  (850) 
nan

$$$$
CHEMBL3689401
     RDKit          3D

  0  0  0  0  0  0  0  0  0  0999 V3000
M  V30 BEGIN CTAB
M  V30 COUNTS 58 61 0 0 0
M  V30 BEGIN ATOM
M  V30 1 C 2.943748 2.847570 4.359522 0
M  V30 2 C 2.429515 1.437981 4.568769 0
M  V30 3 O 2.831583 0.601442 3.502643 0
M  V30 4 C 2.495175 -0.736230 3.444137 0
M  V30 5 O 1.815767 -0.944280 4.488848 0
M  V30 6 C 2.841280 -1.724078 2.404023 0
M  V30 7 O 3.586924 -1.182927 1.338950 0
M  V30 8 C 3.050866 -0.173761 0.559593 0
M  V30 9 C 3.954269 0.225245 -0.431132 0
M  V30 10 C 3.641319 1.231459 -1.344873 0
M  V30 11 C 2.398160 1.860671 -1.275630 0
M  V30 12 C 1.519443 1.456499 -0.294606 0
M  V30 13 C 0.183371 2.095661 -0.179803 0
M  V30 14 N -0.789041 1.405226 -0.975552 0
M  V30 15 C -2.088330 1.990926 -0.880960 0
M  V30 16 C -3.065153 0.897493 -0.432394 0
M  V30 17 C -3.135176 -0.082696 -1.570688 0
M  V30 18 C -1.732562 -0.563680 -1.864308 0
M  V30 19 N -1.615182 -1.953176 -2.131417 0
M  V30 20 C -1.973431 -3.022100 -1.267899 0
M  V30 21 C -2.505453 -2.854463 -0.006118 0
M  V30 22 C -2.859615 -3.878408 0.846955 0
M  V30 23 C -2.680455 -5.183267 0.436209 0
M  V30 24 N -2.905765 -6.395123 0.985022 0
M  V30 25 N -2.544761 -7.371090 0.138681 0
M  V30 26 C -2.068296 -6.786081 -0.999576 0
M  V30 27 C -2.151895 -5.416523 -0.816534 0
M  V30 28 C -1.818622 -4.347845 -1.620458 0
M  V30 29 C -0.736296 -0.017810 -0.857664 0
M  V30 30 C 1.835150 0.461626 0.604818 0
M  V30 31 H 2.315163 3.311598 3.579242 0
M  V30 32 H 4.014611 2.809183 4.078639 0
M  V30 33 H 2.762233 3.393537 5.299691 0
M  V30 34 H 1.319285 1.465393 4.564206 0
M  V30 35 H 2.841549 1.095708 5.530269 0
M  V30 36 H 1.900472 -2.210292 2.028056 0
M  V30 37 H 3.421439 -2.586828 2.841479 0
M  V30 38 H 4.952097 -0.186214 -0.589690 0
M  V30 39 H 4.325514 1.553916 -2.117590 0
M  V30 40 H 2.141068 2.650314 -1.985421 0
M  V30 41 H 0.226482 3.176224 -0.410209 0
M  V30 42 H -0.151928 2.027640 0.874316 0
M  V30 43 H -2.135690 2.845636 -0.170705 0
M  V30 44 H -2.480295 2.361891 -1.850704 0
M  V30 45 H -4.071349 1.303519 -0.234507 0
M  V30 46 H -2.662592 0.500338 0.504609 0
M  V30 47 H -3.578790 0.506233 -2.429901 0
M  V30 48 H -3.861869 -0.905591 -1.425022 0
M  V30 49 H -1.451574 -0.019695 -2.822784 0
M  V30 50 H -1.220729 -2.282966 -3.066828 0
M  V30 51 H -2.676389 -1.887348 0.388539 0
M  V30 52 H -3.272634 -3.716694 1.826499 0
M  V30 53 H -3.305435 -6.561765 1.935994 0
M  V30 54 H -1.697121 -7.306393 -1.875688 0
M  V30 55 H -1.406956 -4.593675 -2.595592 0
M  V30 56 H 0.267581 -0.327208 -1.255677 0
M  V30 57 H -0.823944 -0.422701 0.144314 0
M  V30 58 H 1.197872 0.090127 1.393173 0
M  V30 END ATOM
M  V30 BEGIN BOND
M  V30 1 1 1 2
M  V30 2 1 2 3
M  V30 3 1 3 4
M  V30 4 2 4 5
M  V30 5 1 4 6
M  V30 6 1 6 7
M  V30 7 1 7 8
M  V30 8 2 8 9
M  V30 9 1 9 10
M  V30 10 2 10 11
M  V30 11 1 11 12
M  V30 12 1 12 13
M  V30 13 1 13 14
M  V30 14 1 14 15
M  V30 15 1 15 16
M  V30 16 1 16 17
M  V30 17 1 17 18
M  V30 18 1 18 19
M  V30 19 1 19 20
M  V30 20 2 20 21
M  V30 21 1 21 22
M  V30 22 2 22 23
M  V30 23 1 23 24
M  V30 24 1 24 25
M  V30 25 2 25 26
M  V30 26 1 26 27
M  V30 27 2 27 28
M  V30 28 1 18 29
M  V30 29 2 12 30
M  V30 30 1 30 8
M  V30 31 1 29 14
M  V30 32 1 28 20
M  V30 33 1 27 23
M  V30 34 1 1 31
M  V30 35 1 1 32
M  V30 36 1 1 33
M  V30 37 1 2 34
M  V30 38 1 2 35
M  V30 39 1 6 36
M  V30 40 1 6 37
M  V30 41 1 9 38
M  V30 42 1 10 39
M  V30 43 1 11 40
M  V30 44 1 13 41
M  V30 45 1 13 42
M  V30 46 1 15 43
M  V30 47 1 15 44
M  V30 48 1 16 45
M  V30 49 1 16 46
M  V30 50 1 17 47
M  V30 51 1 17 48
M  V30 52 1 18 49
M  V30 53 1 19 50
M  V30 54 1 21 51
M  V30 55 1 22 52
M  V30 56 1 24 53
M  V30 57 1 26 54
M  V30 58 1 28 55
M  V30 59 1 29 56
M  V30 60 1 29 57
M  V30 61 1 30 58
M  V30 END BOND
M  V30 END CTAB
M  END
>  <Dataset>  (851) 
ChEMBL_Kinases

>  <Ligand_Instance>  (851) 
nan

>  <PDB_ID>  (851) 
nan

>  <Standardized_SMILES>  (851) 
CCOC(=O)COc1cccc(CN2CCCC(Nc3ccc4[nH]ncc4c3)C2)c1

>  <Name>  (851) 
nan

>  <Pocket>  (851) 
nan

>  <ATP_Site>  (851) 
nan

>  <Peripheral>  (851) 
nan

>  <Num_H_Atoms_ProtBoundConf>  (851) 
nan

>  <Num_Resolved_Atoms>  (851) 
nan

>  <Num_Not_Resolved_Atoms>  (851) 
nan

$$$$
CHEMBL3689402
     RDKit          3D

  0  0  0  0  0  0  0  0  0  0999 V3000
M  V30 BEGIN CTAB
M  V30 COUNTS 50 53 0 0 0
M  V30 BEGIN ATOM
M  V30 1 N 0.223895 -4.718213 2.856359 0
M  V30 2 C 0.032767 -5.215817 1.504111 0
M  V30 3 C -0.276029 -4.055388 0.613831 0
M  V30 4 C -1.594464 -3.699119 0.458127 0
M  V30 5 C -1.919164 -2.618061 -0.367124 0
M  V30 6 C -0.847063 -1.987653 -0.969385 0
M  V30 7 C 0.486926 -2.308565 -0.843419 0
M  V30 8 C 1.487669 -1.524226 -1.570179 0
M  V30 9 N 1.922967 -0.404780 -0.814361 0
M  V30 10 C 2.927876 0.391182 -1.478902 0
M  V30 11 C 3.499019 1.450100 -0.563141 0
M  V30 12 C 2.489901 1.846233 0.502261 0
M  V30 13 C 2.086309 0.666184 1.358188 0
M  V30 14 N 0.844646 0.942202 1.986187 0
M  V30 15 C -0.478866 1.235415 1.599568 0
M  V30 16 C -0.937219 1.326377 0.303617 0
M  V30 17 C -2.214823 1.614514 -0.109085 0
M  V30 18 C -3.118752 1.832150 0.899248 0
M  V30 19 N -4.428777 2.133290 0.899221 0
M  V30 20 N -4.862845 2.246135 2.139171 0
M  V30 21 C -3.865449 2.026249 3.013527 0
M  V30 22 C -2.763499 1.764765 2.225746 0
M  V30 23 C -1.459321 1.469542 2.539879 0
M  V30 24 C 2.179270 -0.585146 0.559509 0
M  V30 25 C 0.781507 -3.396238 -0.009632 0
M  V30 26 H 1.094535 -4.144469 2.935402 0
M  V30 27 H 0.176124 -5.465966 3.572601 0
M  V30 28 H 0.970679 -5.718781 1.127250 0
M  V30 29 H -0.756962 -5.981282 1.511391 0
M  V30 30 H -2.390352 -4.235206 0.961015 0
M  V30 31 H -2.933527 -2.285693 -0.533045 0
M  V30 32 H -1.112966 -1.148577 -1.608257 0
M  V30 33 H 2.309973 -2.174322 -1.936628 0
M  V30 34 H 0.992726 -1.118199 -2.498922 0
M  V30 35 H 3.746575 -0.165603 -1.930878 0
M  V30 36 H 2.391888 0.934224 -2.299498 0
M  V30 37 H 3.721437 2.347671 -1.154564 0
M  V30 38 H 4.406780 1.050389 -0.081836 0
M  V30 39 H 3.037951 2.602591 1.131534 0
M  V30 40 H 1.632477 2.382655 0.064393 0
M  V30 41 H 2.896361 0.595652 2.175560 0
M  V30 42 H 0.952946 0.915653 3.052481 0
M  V30 43 H -0.266078 1.161149 -0.523334 0
M  V30 44 H -2.515113 1.672711 -1.144159 0
M  V30 45 H -5.015223 2.259144 0.023800 0
M  V30 46 H -3.922342 2.052133 4.103505 0
M  V30 47 H -1.234051 1.428984 3.617458 0
M  V30 48 H 3.205207 -1.039981 0.722005 0
M  V30 49 H 1.496761 -1.321873 1.037073 0
M  V30 50 H 1.819231 -3.675573 0.111596 0
M  V30 END ATOM
M  V30 BEGIN BOND
M  V30 1 1 1 2
M  V30 2 1 2 3
M  V30 3 2 3 4
M  V30 4 1 4 5
M  V30 5 2 5 6
M  V30 6 1 6 7
M  V30 7 1 7 8
M  V30 8 1 8 9
M  V30 9 1 9 10
M  V30 10 1 10 11
M  V30 11 1 11 12
M  V30 12 1 12 13
M  V30 13 1 13 14
M  V30 14 1 14 15
M  V30 15 2 15 16
M  V30 16 1 16 17
M  V30 17 2 17 18
M  V30 18 1 18 19
M  V30 19 1 19 20
M  V30 20 2 20 21
M  V30 21 1 21 22
M  V30 22 2 22 23
M  V30 23 1 13 24
M  V30 24 2 7 25
M  V30 25 1 25 3
M  V30 26 1 24 9
M  V30 27 1 23 15
M  V30 28 1 22 18
M  V30 29 1 1 26
M  V30 30 1 1 27
M  V30 31 1 2 28
M  V30 32 1 2 29
M  V30 33 1 4 30
M  V30 34 1 5 31
M  V30 35 1 6 32
M  V30 36 1 8 33
M  V30 37 1 8 34
M  V30 38 1 10 35
M  V30 39 1 10 36
M  V30 40 1 11 37
M  V30 41 1 11 38
M  V30 42 1 12 39
M  V30 43 1 12 40
M  V30 44 1 13 41
M  V30 45 1 14 42
M  V30 46 1 16 43
M  V30 47 1 17 44
M  V30 48 1 19 45
M  V30 49 1 21 46
M  V30 50 1 23 47
M  V30 51 1 24 48
M  V30 52 1 24 49
M  V30 53 1 25 50
M  V30 END BOND
M  V30 END CTAB
M  END
>  <Dataset>  (852) 
ChEMBL_Kinases

>  <Ligand_Instance>  (852) 
nan

>  <PDB_ID>  (852) 
nan

>  <Standardized_SMILES>  (852) 
NCc1cccc(CN2CCCC(Nc3ccc4[nH]ncc4c3)C2)c1

>  <Name>  (852) 
nan

>  <Pocket>  (852) 
nan

>  <ATP_Site>  (852) 
nan

>  <Peripheral>  (852) 
nan

>  <Num_H_Atoms_ProtBoundConf>  (852) 
nan

>  <Num_Resolved_Atoms>  (852) 
nan

>  <Num_Not_Resolved_Atoms>  (852) 
nan

$$$$
CHEMBL3689412
     RDKit          3D

  0  0  0  0  0  0  0  0  0  0999 V3000
M  V30 BEGIN CTAB
M  V30 COUNTS 45 48 0 0 0
M  V30 BEGIN ATOM
M  V30 1 F -0.232015 -6.674227 -4.141929 0
M  V30 2 C 0.050597 -5.742005 -3.194754 0
M  V30 3 C 1.372111 -5.372516 -3.028922 0
M  V30 4 C 1.646852 -4.425609 -2.064674 0
M  V30 5 C 0.710318 -3.813540 -1.248335 0
M  V30 6 C 1.169625 -2.821498 -0.267824 0
M  V30 7 N 1.199709 -1.460897 -0.772047 0
M  V30 8 C -0.076548 -0.999608 -1.197577 0
M  V30 9 C -0.243016 0.469558 -1.357680 0
M  V30 10 C 0.520578 1.261293 -0.306028 0
M  V30 11 C 0.817134 0.298543 0.797858 0 CFG=2
M  V30 12 N 1.181411 0.868325 2.049997 0
M  V30 13 C 0.379608 1.651148 2.916764 0
M  V30 14 C -0.939286 1.969452 2.680361 0
M  V30 15 C -1.738776 2.735096 3.502604 0
M  V30 16 C -1.165142 3.221177 4.659000 0
M  V30 17 N -1.594709 3.978820 5.684882 0
M  V30 18 N -0.644661 4.181488 6.584205 0
M  V30 19 C 0.469460 3.548706 6.170593 0
M  V30 20 C 0.151735 2.937943 4.953956 0
M  V30 21 C 0.886367 2.165068 4.081184 0
M  V30 22 C 1.835478 -0.674808 0.261749 0
M  V30 23 C -0.594333 -4.212621 -1.448689 0
M  V30 24 C -0.915765 -5.155540 -2.400594 0
M  V30 25 F -2.218769 -5.521003 -2.565386 0
M  V30 26 H 2.164953 -5.801980 -3.625213 0
M  V30 27 H 2.705424 -4.157853 -1.962014 0
M  V30 28 H 2.189211 -3.067056 0.116338 0
M  V30 29 H 0.517770 -2.809642 0.654592 0
M  V30 30 H -0.923141 -1.406191 -0.595690 0
M  V30 31 H -0.249994 -1.442391 -2.222405 0
M  V30 32 H -1.316185 0.718960 -1.225650 0
M  V30 33 H 0.005463 0.829175 -2.392450 0
M  V30 34 H 0.013943 2.175769 0.022912 0
M  V30 35 H 1.518941 1.496480 -0.785070 0
M  V30 36 H -0.139230 -0.302056 0.928165 0
M  V30 37 H 2.168397 0.674411 2.351338 0
M  V30 38 H -1.435355 1.606610 1.792164 0
M  V30 39 H -2.758506 2.972965 3.305497 0
M  V30 40 H -2.571843 4.375036 5.779865 0
M  V30 41 H 1.421983 3.522445 6.685159 0
M  V30 42 H 1.925075 1.972754 4.366289 0
M  V30 43 H 2.195670 -1.266542 1.121979 0
M  V30 44 H 2.719764 -0.121112 -0.115459 0
M  V30 45 H -1.351470 -3.755532 -0.828913 0
M  V30 END ATOM
M  V30 BEGIN BOND
M  V30 1 1 1 2
M  V30 2 2 2 3
M  V30 3 1 3 4
M  V30 4 2 4 5
M  V30 5 1 5 6
M  V30 6 1 6 7
M  V30 7 1 7 8
M  V30 8 1 8 9
M  V30 9 1 9 10
M  V30 10 1 10 11
M  V30 11 1 11 12
M  V30 12 1 12 13
M  V30 13 2 13 14
M  V30 14 1 14 15
M  V30 15 2 15 16
M  V30 16 1 16 17
M  V30 17 1 17 18
M  V30 18 2 18 19
M  V30 19 1 19 20
M  V30 20 2 20 21
M  V30 21 1 11 22
M  V30 22 1 5 23
M  V30 23 2 23 24
M  V30 24 1 24 25
M  V30 25 1 24 2
M  V30 26 1 22 7
M  V30 27 1 21 13
M  V30 28 1 20 16
M  V30 29 1 3 26
M  V30 30 1 4 27
M  V30 31 1 6 28
M  V30 32 1 6 29
M  V30 33 1 8 30
M  V30 34 1 8 31
M  V30 35 1 9 32
M  V30 36 1 9 33
M  V30 37 1 10 34
M  V30 38 1 10 35
M  V30 39 1 11 36 CFG=1
M  V30 40 1 12 37
M  V30 41 1 14 38
M  V30 42 1 15 39
M  V30 43 1 17 40
M  V30 44 1 19 41
M  V30 45 1 21 42
M  V30 46 1 22 43
M  V30 47 1 22 44
M  V30 48 1 23 45
M  V30 END BOND
M  V30 END CTAB
M  END
>  <Dataset>  (853) 
ChEMBL_Kinases

>  <Ligand_Instance>  (853) 
nan

>  <PDB_ID>  (853) 
nan

>  <Standardized_SMILES>  (853) 
Fc1ccc(CN2CCC[C@H](Nc3ccc4[nH]ncc4c3)C2)cc1F

>  <Name>  (853) 
nan

>  <Pocket>  (853) 
nan

>  <ATP_Site>  (853) 
nan

>  <Peripheral>  (853) 
nan

>  <Num_H_Atoms_ProtBoundConf>  (853) 
nan

>  <Num_Resolved_Atoms>  (853) 
nan

>  <Num_Not_Resolved_Atoms>  (853) 
nan

$$$$
CHEMBL3689404
     RDKit          3D

  0  0  0  0  0  0  0  0  0  0999 V3000
M  V30 BEGIN CTAB
M  V30 COUNTS 48 51 0 0 0
M  V30 BEGIN ATOM
M  V30 1 F 4.333902 -2.945121 3.113855 0
M  V30 2 C 4.429775 -3.204054 1.744845 0
M  V30 3 F 3.460094 -4.130492 1.409123 0
M  V30 4 F 5.667257 -3.785457 1.500715 0
M  V30 5 C 4.281897 -1.976700 0.949038 0
M  V30 6 C 5.407046 -1.196049 0.694058 0
M  V30 7 C 5.239456 -0.060729 -0.048382 0
M  V30 8 C 4.031798 0.345776 -0.550650 0
M  V30 9 C 2.881979 -0.402485 -0.320668 0
M  V30 10 C 1.502051 -0.105885 -0.783015 0
M  V30 11 N 0.815645 0.631771 0.184497 0
M  V30 12 C 1.281664 1.893763 0.594205 0
M  V30 13 C 1.109070 1.928259 2.115643 0
M  V30 14 C 0.152766 0.856141 2.576318 0
M  V30 15 C -1.030901 0.695875 1.651307 0
M  V30 16 N -1.663403 -0.589779 1.964951 0
M  V30 17 C -2.845133 -1.101979 1.359798 0
M  V30 18 C -3.402082 -2.336270 1.677862 0
M  V30 19 C -4.553278 -2.761694 1.051729 0
M  V30 20 C -5.213024 -2.019703 0.097705 0
M  V30 21 N -6.324115 -2.233967 -0.625300 0
M  V30 22 N -6.512308 -1.165969 -1.414405 0
M  V30 23 C -5.523921 -0.286283 -1.187219 0
M  V30 24 C -4.666766 -0.782650 -0.230072 0
M  V30 25 C -3.514503 -0.368044 0.403497 0
M  V30 26 C -0.599963 0.581743 0.187272 0
M  V30 27 C 3.075895 -1.560045 0.440953 0
M  V30 28 H 6.352523 -1.525375 1.094128 0
M  V30 29 H 6.119687 0.539544 -0.241300 0
M  V30 30 H 3.894202 1.227155 -1.132946 0
M  V30 31 H 0.977256 -1.089757 -0.919122 0
M  V30 32 H 1.599055 0.387178 -1.781493 0
M  V30 33 H 2.264021 2.224958 0.281969 0
M  V30 34 H 0.569620 2.689242 0.227925 0
M  V30 35 H 0.856194 2.943230 2.475834 0
M  V30 36 H 2.104617 1.675938 2.535872 0
M  V30 37 H 0.662625 -0.108832 2.720116 0
M  V30 38 H -0.254850 1.177035 3.557390 0
M  V30 39 H -1.804713 1.481104 1.800899 0
M  V30 40 H -1.245010 -1.228607 2.696140 0
M  V30 41 H -2.898363 -2.942897 2.430314 0
M  V30 42 H -4.923080 -3.742525 1.360214 0
M  V30 43 H -6.948728 -3.073850 -0.597287 0
M  V30 44 H -5.392201 0.690794 -1.676002 0
M  V30 45 H -3.202058 0.600884 0.063370 0
M  V30 46 H -1.015316 1.496936 -0.313911 0
M  V30 47 H -1.031310 -0.304266 -0.315830 0
M  V30 48 H 2.238957 -2.205074 0.670781 0
M  V30 END ATOM
M  V30 BEGIN BOND
M  V30 1 1 1 2
M  V30 2 1 2 3
M  V30 3 1 2 4
M  V30 4 1 2 5
M  V30 5 2 5 6
M  V30 6 1 6 7
M  V30 7 2 7 8
M  V30 8 1 8 9
M  V30 9 1 9 10
M  V30 10 1 10 11
M  V30 11 1 11 12
M  V30 12 1 12 13
M  V30 13 1 13 14
M  V30 14 1 14 15
M  V30 15 1 15 16
M  V30 16 1 16 17
M  V30 17 2 17 18
M  V30 18 1 18 19
M  V30 19 2 19 20
M  V30 20 1 20 21
M  V30 21 1 21 22
M  V30 22 2 22 23
M  V30 23 1 23 24
M  V30 24 2 24 25
M  V30 25 1 15 26
M  V30 26 2 9 27
M  V30 27 1 27 5
M  V30 28 1 26 11
M  V30 29 1 25 17
M  V30 30 1 24 20
M  V30 31 1 6 28
M  V30 32 1 7 29
M  V30 33 1 8 30
M  V30 34 1 10 31
M  V30 35 1 10 32
M  V30 36 1 12 33
M  V30 37 1 12 34
M  V30 38 1 13 35
M  V30 39 1 13 36
M  V30 40 1 14 37
M  V30 41 1 14 38
M  V30 42 1 15 39
M  V30 43 1 16 40
M  V30 44 1 18 41
M  V30 45 1 19 42
M  V30 46 1 21 43
M  V30 47 1 23 44
M  V30 48 1 25 45
M  V30 49 1 26 46
M  V30 50 1 26 47
M  V30 51 1 27 48
M  V30 END BOND
M  V30 END CTAB
M  END
>  <Dataset>  (854) 
ChEMBL_Kinases

>  <Ligand_Instance>  (854) 
nan

>  <PDB_ID>  (854) 
nan

>  <Standardized_SMILES>  (854) 
FC(F)(F)c1cccc(CN2CCCC(Nc3ccc4[nH]ncc4c3)C2)c1

>  <Name>  (854) 
nan

>  <Pocket>  (854) 
nan

>  <ATP_Site>  (854) 
nan

>  <Peripheral>  (854) 
nan

>  <Num_H_Atoms_ProtBoundConf>  (854) 
nan

>  <Num_Resolved_Atoms>  (854) 
nan

>  <Num_Not_Resolved_Atoms>  (854) 
nan

$$$$
CHEMBL3689405
     RDKit          3D

  0  0  0  0  0  0  0  0  0  0999 V3000
M  V30 BEGIN CTAB
M  V30 COUNTS 45 48 0 0 0
M  V30 BEGIN ATOM
M  V30 1 F 2.115483 -5.958588 1.811419 0
M  V30 2 C 1.785000 -5.654406 0.492172 0
M  V30 3 F 0.402955 -5.474563 0.423847 0
M  V30 4 F 2.178084 -6.699276 -0.315716 0
M  V30 5 C 2.455229 -4.369306 0.115109 0
M  V30 6 C 3.749055 -4.070198 0.512642 0
M  V30 7 C 4.302396 -2.860122 0.124430 0
M  V30 8 C 3.595837 -1.954720 -0.643976 0
M  V30 9 C 2.296337 -2.264826 -1.038256 0
M  V30 10 C 1.573798 -1.253205 -1.868250 0
M  V30 11 N 0.849307 -0.329077 -1.046151 0
M  V30 12 C 0.134446 0.670281 -1.848773 0
M  V30 13 C -0.198513 1.783180 -0.851236 0
M  V30 14 C 0.668065 1.456939 0.342975 0
M  V30 15 N -0.052564 0.694556 1.338432 0
M  V30 16 C -1.155077 1.206985 2.072995 0
M  V30 17 C -1.644589 2.489236 1.946789 0
M  V30 18 C -2.716093 3.001408 2.643103 0
M  V30 19 C -3.367889 2.191066 3.542649 0
M  V30 20 N -4.424114 2.380828 4.362827 0
M  V30 21 N -4.658657 1.257158 5.039622 0
M  V30 22 C -3.754604 0.315542 4.668228 0
M  V30 23 C -2.927070 0.897026 3.715811 0
M  V30 24 C -1.850367 0.451462 2.986601 0
M  V30 25 C 1.702328 0.546740 -0.278239 0
M  V30 26 C 1.747749 -3.468128 -0.651511 0
M  V30 27 H 4.295899 -4.790217 1.117303 0
M  V30 28 H 5.326070 -2.630235 0.442450 0
M  V30 29 H 4.106790 -1.025987 -0.905136 0
M  V30 30 H 2.280027 -0.754913 -2.587102 0
M  V30 31 H 0.846391 -1.793200 -2.503952 0
M  V30 32 H 0.837132 1.053344 -2.603761 0
M  V30 33 H -0.777717 0.232561 -2.287208 0
M  V30 34 H -1.286144 1.792572 -0.632453 0
M  V30 35 H 0.048047 2.792308 -1.256646 0
M  V30 36 H 1.132206 2.369783 0.779221 0
M  V30 37 H 0.220447 -0.294313 1.561744 0
M  V30 38 H -1.180141 3.186563 1.265389 0
M  V30 39 H -3.064016 4.019491 2.507826 0
M  V30 40 H -4.967857 3.261663 4.452757 0
M  V30 41 H -3.656993 -0.707659 5.019151 0
M  V30 42 H -1.571547 -0.576779 3.185142 0
M  V30 43 H 2.367624 1.172499 -0.919678 0
M  V30 44 H 2.322022 0.006474 0.461497 0
M  V30 45 H 0.744061 -3.672955 -0.973939 0
M  V30 END ATOM
M  V30 BEGIN BOND
M  V30 1 1 1 2
M  V30 2 1 2 3
M  V30 3 1 2 4
M  V30 4 1 2 5
M  V30 5 2 5 6
M  V30 6 1 6 7
M  V30 7 2 7 8
M  V30 8 1 8 9
M  V30 9 1 9 10
M  V30 10 1 10 11
M  V30 11 1 11 12
M  V30 12 1 12 13
M  V30 13 1 13 14
M  V30 14 1 14 15
M  V30 15 1 15 16
M  V30 16 2 16 17
M  V30 17 1 17 18
M  V30 18 2 18 19
M  V30 19 1 19 20
M  V30 20 1 20 21
M  V30 21 2 21 22
M  V30 22 1 22 23
M  V30 23 2 23 24
M  V30 24 1 14 25
M  V30 25 2 9 26
M  V30 26 1 26 5
M  V30 27 1 25 11
M  V30 28 1 24 16
M  V30 29 1 23 19
M  V30 30 1 6 27
M  V30 31 1 7 28
M  V30 32 1 8 29
M  V30 33 1 10 30
M  V30 34 1 10 31
M  V30 35 1 12 32
M  V30 36 1 12 33
M  V30 37 1 13 34
M  V30 38 1 13 35
M  V30 39 1 14 36
M  V30 40 1 15 37
M  V30 41 1 17 38
M  V30 42 1 18 39
M  V30 43 1 20 40
M  V30 44 1 22 41
M  V30 45 1 24 42
M  V30 46 1 25 43
M  V30 47 1 25 44
M  V30 48 1 26 45
M  V30 END BOND
M  V30 END CTAB
M  END
>  <Dataset>  (855) 
ChEMBL_Kinases

>  <Ligand_Instance>  (855) 
nan

>  <PDB_ID>  (855) 
nan

>  <Standardized_SMILES>  (855) 
FC(F)(F)c1cccc(CN2CCC(Nc3ccc4[nH]ncc4c3)C2)c1

>  <Name>  (855) 
nan

>  <Pocket>  (855) 
nan

>  <ATP_Site>  (855) 
nan

>  <Peripheral>  (855) 
nan

>  <Num_H_Atoms_ProtBoundConf>  (855) 
nan

>  <Num_Resolved_Atoms>  (855) 
nan

>  <Num_Not_Resolved_Atoms>  (855) 
nan

$$$$
CHEMBL3689406
     RDKit          3D

  0  0  0  0  0  0  0  0  0  0999 V3000
M  V30 BEGIN CTAB
M  V30 COUNTS 52 55 0 0 0
M  V30 BEGIN ATOM
M  V30 1 C 0.747383 -5.321656 1.221118 0
M  V30 2 C -0.609168 -4.862510 0.803393 0
M  V30 3 O -0.667553 -4.385526 -0.521623 0
M  V30 4 C 0.080479 -3.307784 -0.976824 0
M  V30 5 C -0.138422 -3.013484 -2.322873 0
M  V30 6 C 0.544049 -1.966612 -2.892113 0
M  V30 7 C 1.426811 -1.228276 -2.134887 0
M  V30 8 C 1.660389 -1.499189 -0.803237 0
M  V30 9 C 2.584257 -0.774544 0.104192 0
M  V30 10 N 1.830279 0.283514 0.746280 0
M  V30 11 C 2.650341 1.054103 1.655345 0
M  V30 12 C 2.883600 2.456442 1.180955 0
M  V30 13 C 1.616605 3.183458 0.831172 0
M  V30 14 C 0.478416 2.244684 0.459896 0
M  V30 15 N -0.244958 1.805217 1.633930 0
M  V30 16 C -1.430126 1.033786 1.876236 0
M  V30 17 C -1.898481 0.723844 3.158330 0
M  V30 18 C -3.056260 -0.012154 3.209694 0
M  V30 19 C -3.763863 -0.451044 2.117944 0
M  V30 20 N -4.900643 -1.172552 2.030960 0
M  V30 21 N -5.182833 -1.339127 0.741331 0
M  V30 22 C -4.225047 -0.723277 0.017246 0
M  V30 23 C -3.296001 -0.141354 0.859705 0
M  V30 24 C -2.150887 0.587043 0.775808 0
M  V30 25 C 1.158005 1.072075 -0.228642 0
M  V30 26 C 0.969206 -2.551200 -0.246284 0
M  V30 27 H 1.085194 -4.852401 2.170658 0
M  V30 28 H 1.504393 -5.160553 0.413087 0
M  V30 29 H 0.734244 -6.402340 1.398817 0
M  V30 30 H -0.933131 -4.083640 1.538794 0
M  V30 31 H -1.315031 -5.709818 0.858048 0
M  V30 32 H -0.832222 -3.579031 -2.954075 0
M  V30 33 H 0.436096 -1.663846 -3.937920 0
M  V30 34 H 1.996579 -0.385025 -2.535379 0
M  V30 35 H 3.455183 -0.353316 -0.446510 0
M  V30 36 H 3.000877 -1.488974 0.863949 0
M  V30 37 H 3.656684 0.559764 1.674633 0
M  V30 38 H 2.307903 1.017270 2.708956 0
M  V30 39 H 3.406473 2.996150 1.980643 0
M  V30 40 H 3.591034 2.391786 0.303894 0
M  V30 41 H 1.286566 3.899581 1.633801 0
M  V30 42 H 1.819840 3.803256 -0.065605 0
M  V30 43 H -0.196104 2.734099 -0.265258 0
M  V30 44 H 0.192375 2.122685 2.553047 0
M  V30 45 H -1.332884 1.074763 4.005700 0
M  V30 46 H -3.362876 -0.217155 4.247259 0
M  V30 47 H -5.470897 -1.542983 2.835828 0
M  V30 48 H -4.149594 -0.664656 -1.069366 0
M  V30 49 H -1.893761 0.770029 -0.274713 0
M  V30 50 H 1.833468 1.490979 -1.003570 0
M  V30 51 H 0.384885 0.480514 -0.732298 0
M  V30 52 H 1.093468 -2.827556 0.784216 0
M  V30 END ATOM
M  V30 BEGIN BOND
M  V30 1 1 1 2
M  V30 2 1 2 3
M  V30 3 1 3 4
M  V30 4 2 4 5
M  V30 5 1 5 6
M  V30 6 2 6 7
M  V30 7 1 7 8
M  V30 8 1 8 9
M  V30 9 1 9 10
M  V30 10 1 10 11
M  V30 11 1 11 12
M  V30 12 1 12 13
M  V30 13 1 13 14
M  V30 14 1 14 15
M  V30 15 1 15 16
M  V30 16 2 16 17
M  V30 17 1 17 18
M  V30 18 2 18 19
M  V30 19 1 19 20
M  V30 20 1 20 21
M  V30 21 2 21 22
M  V30 22 1 22 23
M  V30 23 2 23 24
M  V30 24 1 14 25
M  V30 25 2 8 26
M  V30 26 1 26 4
M  V30 27 1 25 10
M  V30 28 1 24 16
M  V30 29 1 23 19
M  V30 30 1 1 27
M  V30 31 1 1 28
M  V30 32 1 1 29
M  V30 33 1 2 30
M  V30 34 1 2 31
M  V30 35 1 5 32
M  V30 36 1 6 33
M  V30 37 1 7 34
M  V30 38 1 9 35
M  V30 39 1 9 36
M  V30 40 1 11 37
M  V30 41 1 11 38
M  V30 42 1 12 39
M  V30 43 1 12 40
M  V30 44 1 13 41
M  V30 45 1 13 42
M  V30 46 1 14 43
M  V30 47 1 15 44
M  V30 48 1 17 45
M  V30 49 1 18 46
M  V30 50 1 20 47
M  V30 51 1 22 48
M  V30 52 1 24 49
M  V30 53 1 25 50
M  V30 54 1 25 51
M  V30 55 1 26 52
M  V30 END BOND
M  V30 END CTAB
M  END
>  <Dataset>  (856) 
ChEMBL_Kinases

>  <Ligand_Instance>  (856) 
nan

>  <PDB_ID>  (856) 
nan

>  <Standardized_SMILES>  (856) 
CCOc1cccc(CN2CCCC(Nc3ccc4[nH]ncc4c3)C2)c1

>  <Name>  (856) 
nan

>  <Pocket>  (856) 
nan

>  <ATP_Site>  (856) 
nan

>  <Peripheral>  (856) 
nan

>  <Num_H_Atoms_ProtBoundConf>  (856) 
nan

>  <Num_Resolved_Atoms>  (856) 
nan

>  <Num_Not_Resolved_Atoms>  (856) 
nan

$$$$
CHEMBL3689407
     RDKit          3D

  0  0  0  0  0  0  0  0  0  0999 V3000
M  V30 BEGIN CTAB
M  V30 COUNTS 48 51 0 0 0
M  V30 BEGIN ATOM
M  V30 1 C -0.188804 -5.094822 1.325126 0
M  V30 2 C 1.074020 -4.318442 1.088865 0
M  V30 3 C 2.235965 -4.534230 1.806724 0
M  V30 4 C 3.357344 -3.763008 1.514667 0
M  V30 5 C 3.293374 -2.802460 0.521268 0
M  V30 6 C 2.121924 -2.579354 -0.208050 0
M  V30 7 C 2.014115 -1.572347 -1.267157 0
M  V30 8 N 1.606838 -0.328284 -0.831594 0
M  V30 9 C 1.463874 0.733199 -1.762578 0
M  V30 10 C 2.228284 1.905849 -1.189556 0
M  V30 11 C 2.075487 2.017916 0.277165 0
M  V30 12 C 0.969453 1.227999 0.913688 0
M  V30 13 N -0.297454 1.915724 0.779320 0
M  V30 14 C -1.532217 1.486792 1.336185 0
M  V30 15 C -1.684641 0.354268 2.105498 0
M  V30 16 C -2.878718 -0.076650 2.647409 0
M  V30 17 C -4.013330 0.670868 2.410838 0
M  V30 18 N -5.307966 0.554810 2.770368 0
M  V30 19 N -5.999538 1.566081 2.265314 0
M  V30 20 C -5.176204 2.378452 1.556957 0
M  V30 21 C -3.906361 1.813354 1.645286 0
M  V30 22 C -2.690419 2.203593 1.124879 0
M  V30 23 C 0.828280 -0.158085 0.340030 0
M  V30 24 C 1.012214 -3.351485 0.089953 0
M  V30 25 H -0.851596 -4.577882 2.045349 0
M  V30 26 H -0.770063 -5.158509 0.369361 0
M  V30 27 H 0.062470 -6.108737 1.680284 0
M  V30 28 H 2.242249 -5.288408 2.567744 0
M  V30 29 H 4.281075 -3.932364 2.083148 0
M  V30 30 H 4.151932 -2.187498 0.273033 0
M  V30 31 H 1.373110 -1.994995 -2.083988 0
M  V30 32 H 3.033528 -1.477803 -1.738370 0
M  V30 33 H 1.759997 0.464825 -2.773462 0
M  V30 34 H 0.382072 1.056999 -1.725360 0
M  V30 35 H 1.871234 2.841164 -1.674966 0
M  V30 36 H 3.312019 1.806996 -1.471698 0
M  V30 37 H 3.023384 1.637282 0.755141 0
M  V30 38 H 2.048488 3.089521 0.555045 0
M  V30 39 H 1.172266 1.120307 1.997605 0
M  V30 40 H -0.306784 2.807303 0.223498 0
M  V30 41 H -0.844045 -0.264043 2.328795 0
M  V30 42 H -2.960529 -0.972640 3.247339 0
M  V30 43 H -5.649009 -0.249065 3.367347 0
M  V30 44 H -5.446908 3.290431 1.024026 0
M  V30 45 H -2.691029 3.113159 0.534231 0
M  V30 46 H 1.081405 -0.928532 1.082147 0
M  V30 47 H -0.223842 -0.311020 0.035613 0
M  V30 48 H 0.087081 -3.193445 -0.467746 0
M  V30 END ATOM
M  V30 BEGIN BOND
M  V30 1 1 1 2
M  V30 2 2 2 3
M  V30 3 1 3 4
M  V30 4 2 4 5
M  V30 5 1 5 6
M  V30 6 1 6 7
M  V30 7 1 7 8
M  V30 8 1 8 9
M  V30 9 1 9 10
M  V30 10 1 10 11
M  V30 11 1 11 12
M  V30 12 1 12 13
M  V30 13 1 13 14
M  V30 14 2 14 15
M  V30 15 1 15 16
M  V30 16 2 16 17
M  V30 17 1 17 18
M  V30 18 1 18 19
M  V30 19 2 19 20
M  V30 20 1 20 21
M  V30 21 2 21 22
M  V30 22 1 12 23
M  V30 23 2 6 24
M  V30 24 1 24 2
M  V30 25 1 23 8
M  V30 26 1 22 14
M  V30 27 1 21 17
M  V30 28 1 1 25
M  V30 29 1 1 26
M  V30 30 1 1 27
M  V30 31 1 3 28
M  V30 32 1 4 29
M  V30 33 1 5 30
M  V30 34 1 7 31
M  V30 35 1 7 32
M  V30 36 1 9 33
M  V30 37 1 9 34
M  V30 38 1 10 35
M  V30 39 1 10 36
M  V30 40 1 11 37
M  V30 41 1 11 38
M  V30 42 1 12 39
M  V30 43 1 13 40
M  V30 44 1 15 41
M  V30 45 1 16 42
M  V30 46 1 18 43
M  V30 47 1 20 44
M  V30 48 1 22 45
M  V30 49 1 23 46
M  V30 50 1 23 47
M  V30 51 1 24 48
M  V30 END BOND
M  V30 END CTAB
M  END
>  <Dataset>  (857) 
ChEMBL_Kinases

>  <Ligand_Instance>  (857) 
nan

>  <PDB_ID>  (857) 
nan

>  <Standardized_SMILES>  (857) 
Cc1cccc(CN2CCCC(Nc3ccc4[nH]ncc4c3)C2)c1

>  <Name>  (857) 
nan

>  <Pocket>  (857) 
nan

>  <ATP_Site>  (857) 
nan

>  <Peripheral>  (857) 
nan

>  <Num_H_Atoms_ProtBoundConf>  (857) 
nan

>  <Num_Resolved_Atoms>  (857) 
nan

>  <Num_Not_Resolved_Atoms>  (857) 
nan

$$$$
CHEMBL3689408
     RDKit          3D

  0  0  0  0  0  0  0  0  0  0999 V3000
M  V30 BEGIN CTAB
M  V30 COUNTS 46 49 0 0 0
M  V30 BEGIN ATOM
M  V30 1 O -0.986493 -6.387821 -1.304090 0
M  V30 2 C -1.159719 -5.356811 -0.379626 0
M  V30 3 C -0.114313 -4.505794 -0.174038 0
M  V30 4 C -0.283054 -3.470961 0.751440 0
M  V30 5 C 0.771782 -2.497929 1.052226 0
M  V30 6 N 0.727663 -1.325391 0.199904 0
M  V30 7 C 0.885547 -1.759254 -1.158170 0
M  V30 8 C 0.996852 -0.594463 -2.122023 0
M  V30 9 C 2.096295 0.326012 -1.706372 0
M  V30 10 C 1.976498 0.757947 -0.252816 0
M  V30 11 N 0.771272 1.508198 -0.057292 0
M  V30 12 C 0.260168 2.275884 1.044389 0
M  V30 13 C -0.980620 2.904755 1.048437 0
M  V30 14 C -1.341500 3.623352 2.157694 0
M  V30 15 C -0.562987 3.767545 3.269608 0
M  V30 16 N -0.732154 4.422513 4.448034 0
M  V30 17 N 0.337406 4.243433 5.195145 0
M  V30 18 C 1.196388 3.481881 4.517050 0
M  V30 19 C 0.669786 3.150075 3.280218 0
M  V30 20 C 1.053674 2.419162 2.169023 0
M  V30 21 C 1.869674 -0.490951 0.607952 0
M  V30 22 C -1.513926 -3.388051 1.396647 0
M  V30 23 C -2.553764 -4.262096 1.169612 0
M  V30 24 C -2.373389 -5.282944 0.250111 0
M  V30 25 I -3.958713 -6.615353 -0.095940 0
M  V30 26 H -0.636034 -7.273563 -0.928663 0
M  V30 27 H 0.834801 -4.583508 -0.682829 0
M  V30 28 H 1.774249 -2.975104 0.938718 0
M  V30 29 H 0.695502 -2.221933 2.123506 0
M  V30 30 H 0.022562 -2.362979 -1.454849 0
M  V30 31 H 1.816531 -2.360788 -1.235035 0
M  V30 32 H 1.206516 -1.022604 -3.105872 0
M  V30 33 H 0.031691 -0.056667 -2.147769 0
M  V30 34 H 1.990839 1.271692 -2.304715 0
M  V30 35 H 3.090098 -0.119758 -1.884164 0
M  V30 36 H 2.904877 1.266858 0.025058 0
M  V30 37 H 0.099545 1.522738 -0.860923 0
M  V30 38 H -1.603469 2.790954 0.162106 0
M  V30 39 H -2.319753 4.086366 2.093025 0
M  V30 40 H -1.578119 4.976260 4.709703 0
M  V30 41 H 2.173766 3.150346 4.852468 0
M  V30 42 H 2.043748 2.003595 2.317728 0
M  V30 43 H 2.749207 -1.137483 0.494373 0
M  V30 44 H 1.691024 -0.203582 1.650032 0
M  V30 45 H -1.675119 -2.595469 2.120440 0
M  V30 46 H -3.476539 -4.144779 1.698440 0
M  V30 END ATOM
M  V30 BEGIN BOND
M  V30 1 1 1 2
M  V30 2 2 2 3
M  V30 3 1 3 4
M  V30 4 1 4 5
M  V30 5 1 5 6
M  V30 6 1 6 7
M  V30 7 1 7 8
M  V30 8 1 8 9
M  V30 9 1 9 10
M  V30 10 1 10 11
M  V30 11 1 11 12
M  V30 12 2 12 13
M  V30 13 1 13 14
M  V30 14 2 14 15
M  V30 15 1 15 16
M  V30 16 1 16 17
M  V30 17 2 17 18
M  V30 18 1 18 19
M  V30 19 2 19 20
M  V30 20 1 10 21
M  V30 21 2 4 22
M  V30 22 1 22 23
M  V30 23 2 23 24
M  V30 24 1 24 25
M  V30 25 1 24 2
M  V30 26 1 21 6
M  V30 27 1 20 12
M  V30 28 1 19 15
M  V30 29 1 1 26
M  V30 30 1 3 27
M  V30 31 1 5 28
M  V30 32 1 5 29
M  V30 33 1 7 30
M  V30 34 1 7 31
M  V30 35 1 8 32
M  V30 36 1 8 33
M  V30 37 1 9 34
M  V30 38 1 9 35
M  V30 39 1 10 36
M  V30 40 1 11 37
M  V30 41 1 13 38
M  V30 42 1 14 39
M  V30 43 1 16 40
M  V30 44 1 18 41
M  V30 45 1 20 42
M  V30 46 1 21 43
M  V30 47 1 21 44
M  V30 48 1 22 45
M  V30 49 1 23 46
M  V30 END BOND
M  V30 END CTAB
M  END
>  <Dataset>  (858) 
ChEMBL_Kinases

>  <Ligand_Instance>  (858) 
nan

>  <PDB_ID>  (858) 
nan

>  <Standardized_SMILES>  (858) 
Oc1cc(CN2CCCC(Nc3ccc4[nH]ncc4c3)C2)ccc1I

>  <Name>  (858) 
nan

>  <Pocket>  (858) 
nan

>  <ATP_Site>  (858) 
nan

>  <Peripheral>  (858) 
nan

>  <Num_H_Atoms_ProtBoundConf>  (858) 
nan

>  <Num_Resolved_Atoms>  (858) 
nan

>  <Num_Not_Resolved_Atoms>  (858) 
nan

$$$$
CHEMBL3689409
     RDKit          3D

  0  0  0  0  0  0  0  0  0  0999 V3000
M  V30 BEGIN CTAB
M  V30 COUNTS 56 60 0 0 0
M  V30 BEGIN ATOM
M  V30 1 Cl 1.587806 -5.453662 3.649756 0
M  V30 2 C 1.989401 -4.373967 2.330011 0
M  V30 3 C 2.478268 -4.845096 1.115302 0
M  V30 4 C 2.794286 -3.986662 0.074864 0
M  V30 5 C 2.632924 -2.630678 0.212368 0
M  V30 6 O 2.920605 -1.675259 -0.772949 0
M  V30 7 C 2.715294 -0.325326 -0.515647 0
M  V30 8 C 3.857958 0.252129 0.026400 0
M  V30 9 C 3.852098 1.611554 0.356031 0
M  V30 10 C 2.701820 2.307089 0.121912 0
M  V30 11 C 1.551547 1.762154 -0.414870 0
M  V30 12 C 0.288218 2.452498 -0.689891 0
M  V30 13 N -0.670598 2.471045 0.348872 0
M  V30 14 C -0.337077 3.066373 1.576616 0
M  V30 15 C -0.112206 2.025813 2.642529 0
M  V30 16 C -1.167076 0.992845 2.713357 0
M  V30 17 C -1.944458 0.674018 1.507529 0
M  V30 18 N -1.722085 -0.741271 1.172790 0
M  V30 19 C -2.381617 -1.462599 0.169423 0
M  V30 20 C -3.375444 -0.968939 -0.650151 0
M  V30 21 C -4.016320 -1.679321 -1.643864 0
M  V30 22 C -3.666703 -2.990790 -1.869539 0
M  V30 23 N -4.056190 -3.955465 -2.714177 0
M  V30 24 N -3.370657 -5.059745 -2.493532 0
M  V30 25 C -2.508186 -4.842444 -1.490099 0
M  V30 26 C -2.678254 -3.526339 -1.074012 0
M  V30 27 C -2.067578 -2.779406 -0.095717 0
M  V30 28 C -1.721859 1.532744 0.301823 0
M  V30 29 C 1.591848 0.417912 -0.728707 0
M  V30 30 C 2.141265 -2.201907 1.443899 0
M  V30 31 C 1.819967 -3.028405 2.491564 0
M  V30 32 H 2.607640 -5.915142 1.001281 0
M  V30 33 H 3.175132 -4.345696 -0.873195 0
M  V30 34 H 4.805975 -0.252981 0.235977 0
M  V30 35 H 4.698114 2.111459 0.775018 0
M  V30 36 H 2.656794 3.359166 0.362785 0
M  V30 37 H -0.196714 2.027381 -1.592632 0
M  V30 38 H 0.487219 3.527551 -0.974880 0
M  V30 39 H -1.158927 3.727435 1.951492 0
M  V30 40 H 0.548726 3.687115 1.461934 0
M  V30 41 H 0.878343 1.562408 2.455473 0
M  V30 42 H 0.001516 2.604706 3.597954 0
M  V30 43 H -0.745523 0.043517 3.161888 0
M  V30 44 H -1.875361 1.329823 3.533014 0
M  V30 45 H -3.038494 0.704197 1.741116 0
M  V30 46 H -0.997713 -1.284445 1.732403 0
M  V30 47 H -3.712841 0.035598 -0.537872 0
M  V30 48 H -4.791223 -1.243096 -2.260103 0
M  V30 49 H -4.816523 -3.752302 -3.420440 0
M  V30 50 H -1.804398 -5.541424 -1.067172 0
M  V30 51 H -1.301401 -3.287378 0.479012 0
M  V30 52 H -1.499407 0.861655 -0.582930 0
M  V30 53 H -2.642646 2.085464 0.014429 0
M  V30 54 H 0.768589 -0.160947 -1.158970 0
M  V30 55 H 2.008730 -1.138656 1.567936 0
M  V30 56 H 1.440900 -2.590166 3.417439 0
M  V30 END ATOM
M  V30 BEGIN BOND
M  V30 1 1 1 2
M  V30 2 2 2 3
M  V30 3 1 3 4
M  V30 4 2 4 5
M  V30 5 1 5 6
M  V30 6 1 6 7
M  V30 7 2 7 8
M  V30 8 1 8 9
M  V30 9 2 9 10
M  V30 10 1 10 11
M  V30 11 1 11 12
M  V30 12 1 12 13
M  V30 13 1 13 14
M  V30 14 1 14 15
M  V30 15 1 15 16
M  V30 16 1 16 17
M  V30 17 1 17 18
M  V30 18 1 18 19
M  V30 19 2 19 20
M  V30 20 1 20 21
M  V30 21 2 21 22
M  V30 22 1 22 23
M  V30 23 1 23 24
M  V30 24 2 24 25
M  V30 25 1 25 26
M  V30 26 2 26 27
M  V30 27 1 17 28
M  V30 28 2 11 29
M  V30 29 1 5 30
M  V30 30 2 30 31
M  V30 31 1 31 2
M  V30 32 1 29 7
M  V30 33 1 28 13
M  V30 34 1 27 19
M  V30 35 1 26 22
M  V30 36 1 3 32
M  V30 37 1 4 33
M  V30 38 1 8 34
M  V30 39 1 9 35
M  V30 40 1 10 36
M  V30 41 1 12 37
M  V30 42 1 12 38
M  V30 43 1 14 39
M  V30 44 1 14 40
M  V30 45 1 15 41
M  V30 46 1 15 42
M  V30 47 1 16 43
M  V30 48 1 16 44
M  V30 49 1 17 45
M  V30 50 1 18 46
M  V30 51 1 20 47
M  V30 52 1 21 48
M  V30 53 1 23 49
M  V30 54 1 25 50
M  V30 55 1 27 51
M  V30 56 1 28 52
M  V30 57 1 28 53
M  V30 58 1 29 54
M  V30 59 1 30 55
M  V30 60 1 31 56
M  V30 END BOND
M  V30 END CTAB
M  END
>  <Dataset>  (859) 
ChEMBL_Kinases

>  <Ligand_Instance>  (859) 
nan

>  <PDB_ID>  (859) 
nan

>  <Standardized_SMILES>  (859) 
Clc1ccc(Oc2cccc(CN3CCCC(Nc4ccc5[nH]ncc5c4)C3)c2)cc1

>  <Name>  (859) 
nan

>  <Pocket>  (859) 
nan

>  <ATP_Site>  (859) 
nan

>  <Peripheral>  (859) 
nan

>  <Num_H_Atoms_ProtBoundConf>  (859) 
nan

>  <Num_Resolved_Atoms>  (859) 
nan

>  <Num_Not_Resolved_Atoms>  (859) 
nan

$$$$
CHEMBL3689410
     RDKit          3D

  0  0  0  0  0  0  0  0  0  0999 V3000
M  V30 BEGIN CTAB
M  V30 COUNTS 59 63 0 0 0
M  V30 BEGIN ATOM
M  V30 1 F -0.039400 1.357474 6.262382 0
M  V30 2 C 0.642994 0.166444 6.239194 0
M  V30 3 F 1.089523 -0.161263 7.513009 0
M  V30 4 F -0.219770 -0.785937 5.760499 0
M  V30 5 C 1.818328 0.253471 5.362816 0
M  V30 6 C 2.850317 -0.664895 5.417180 0
M  V30 7 C 3.927078 -0.523438 4.563883 0
M  V30 8 C 3.936074 0.531114 3.684769 0
M  V30 9 C 2.936902 1.475690 3.586129 0
M  V30 10 O 2.984592 2.529195 2.681486 0
M  V30 11 C 2.443754 2.345269 1.418380 0
M  V30 12 C 2.453940 3.359016 0.454464 0
M  V30 13 C 1.905709 3.142913 -0.797383 0
M  V30 14 C 1.341039 1.911192 -1.100203 0
M  V30 15 C 1.300698 0.865027 -0.185143 0
M  V30 16 C 0.717864 -0.447407 -0.461093 0
M  V30 17 N -0.655704 -0.608124 -0.167545 0
M  V30 18 C -1.016432 -0.400218 1.193641 0
M  V30 19 C -2.459099 -0.580174 1.471482 0
M  V30 20 C -3.410827 -0.299710 0.370341 0
M  V30 21 C -2.862643 -0.806480 -0.976558 0
M  V30 22 N -2.474483 -2.171312 -0.773482 0
M  V30 23 C -1.988859 -3.130249 -1.732593 0
M  V30 24 C -1.608217 -4.442269 -1.429549 0
M  V30 25 C -1.170341 -5.264853 -2.437872 0
M  V30 26 C -1.077748 -4.878842 -3.757880 0
M  V30 27 N -0.682926 -5.519917 -4.865137 0
M  V30 28 N -0.787002 -4.686097 -5.887555 0
M  V30 29 C -1.249646 -3.508545 -5.432684 0
M  V30 30 C -1.450290 -3.589807 -4.065045 0
M  V30 31 C -1.895241 -2.745684 -3.057251 0
M  V30 32 C -1.558818 0.002342 -1.111659 0
M  V30 33 C 1.866220 1.160813 1.035033 0
M  V30 34 C 1.879541 1.302438 4.452615 0
M  V30 35 H 2.828798 -1.491453 6.116159 0
M  V30 36 H 4.713060 -1.260501 4.636289 0
M  V30 37 H 4.800338 0.585980 3.048521 0
M  V30 38 H 2.895806 4.325425 0.689165 0
M  V30 39 H 1.897519 3.915662 -1.574446 0
M  V30 40 H 0.902129 1.720401 -2.084902 0
M  V30 41 H 1.273924 -1.202607 0.169015 0
M  V30 42 H 0.923655 -0.759304 -1.500606 0
M  V30 43 H -0.461177 -1.189785 1.782522 0
M  V30 44 H -0.625487 0.554352 1.603586 0
M  V30 45 H -2.724527 0.137061 2.305010 0
M  V30 46 H -2.674097 -1.585220 1.940880 0
M  V30 47 H -3.639164 0.764993 0.320011 0
M  V30 48 H -4.338072 -0.918460 0.544460 0
M  V30 49 H -3.562026 -0.626754 -1.786778 0
M  V30 50 H -2.520667 -2.618825 0.192433 0
M  V30 51 H -1.684728 -4.732054 -0.395816 0
M  V30 52 H -0.894460 -6.275906 -2.099556 0
M  V30 53 H -0.347486 -6.516293 -4.913498 0
M  V30 54 H -1.444762 -2.618671 -6.018145 0
M  V30 55 H -2.153077 -1.782401 -3.448692 0
M  V30 56 H -1.738600 1.061805 -0.818811 0
M  V30 57 H -1.172150 -0.099131 -2.117771 0
M  V30 58 H 1.860850 0.378368 1.786325 0
M  V30 59 H 1.066142 2.031205 4.405521 0
M  V30 END ATOM
M  V30 BEGIN BOND
M  V30 1 1 1 2
M  V30 2 1 2 3
M  V30 3 1 2 4
M  V30 4 1 2 5
M  V30 5 2 5 6
M  V30 6 1 6 7
M  V30 7 2 7 8
M  V30 8 1 8 9
M  V30 9 1 9 10
M  V30 10 1 10 11
M  V30 11 2 11 12
M  V30 12 1 12 13
M  V30 13 2 13 14
M  V30 14 1 14 15
M  V30 15 1 15 16
M  V30 16 1 16 17
M  V30 17 1 17 18
M  V30 18 1 18 19
M  V30 19 1 19 20
M  V30 20 1 20 21
M  V30 21 1 21 22
M  V30 22 1 22 23
M  V30 23 2 23 24
M  V30 24 1 24 25
M  V30 25 2 25 26
M  V30 26 1 26 27
M  V30 27 1 27 28
M  V30 28 2 28 29
M  V30 29 1 29 30
M  V30 30 2 30 31
M  V30 31 1 21 32
M  V30 32 2 15 33
M  V30 33 2 9 34
M  V30 34 1 34 5
M  V30 35 1 33 11
M  V30 36 1 32 17
M  V30 37 1 31 23
M  V30 38 1 30 26
M  V30 39 1 6 35
M  V30 40 1 7 36
M  V30 41 1 8 37
M  V30 42 1 12 38
M  V30 43 1 13 39
M  V30 44 1 14 40
M  V30 45 1 16 41
M  V30 46 1 16 42
M  V30 47 1 18 43
M  V30 48 1 18 44
M  V30 49 1 19 45
M  V30 50 1 19 46
M  V30 51 1 20 47
M  V30 52 1 20 48
M  V30 53 1 21 49
M  V30 54 1 22 50
M  V30 55 1 24 51
M  V30 56 1 25 52
M  V30 57 1 27 53
M  V30 58 1 29 54
M  V30 59 1 31 55
M  V30 60 1 32 56
M  V30 61 1 32 57
M  V30 62 1 33 58
M  V30 63 1 34 59
M  V30 END BOND
M  V30 END CTAB
M  END
>  <Dataset>  (860) 
ChEMBL_Kinases

>  <Ligand_Instance>  (860) 
nan

>  <PDB_ID>  (860) 
nan

>  <Standardized_SMILES>  (860) 
FC(F)(F)c1cccc(Oc2cccc(CN3CCCC(Nc4ccc5[nH]ncc5c4)C3)c2)c1

>  <Name>  (860) 
nan

>  <Pocket>  (860) 
nan

>  <ATP_Site>  (860) 
nan

>  <Peripheral>  (860) 
nan

>  <Num_H_Atoms_ProtBoundConf>  (860) 
nan

>  <Num_Resolved_Atoms>  (860) 
nan

>  <Num_Not_Resolved_Atoms>  (860) 
nan

$$$$
CHEMBL3689411
     RDKit          3D

  0  0  0  0  0  0  0  0  0  0999 V3000
M  V30 BEGIN CTAB
M  V30 COUNTS 45 48 0 0 0
M  V30 BEGIN ATOM
M  V30 1 Br -1.444094 -6.277423 -1.456594 0
M  V30 2 C 0.181843 -5.456828 -0.901576 0
M  V30 3 C 1.354929 -6.191708 -0.976411 0
M  V30 4 C 2.533155 -5.577132 -0.567219 0
M  V30 5 C 2.540575 -4.279106 -0.101288 0
M  V30 6 Br 4.193294 -3.475993 0.450954 0
M  V30 7 C 1.389356 -3.523926 -0.015595 0
M  V30 8 C 1.393287 -2.125564 0.486139 0
M  V30 9 N 1.900565 -1.193647 -0.462879 0
M  V30 10 C 1.136657 -1.169174 -1.663206 0
M  V30 11 C 0.659885 0.212479 -2.040623 0
M  V30 12 C 0.191735 1.029293 -0.856646 0
M  V30 13 C 1.143205 1.039814 0.295408 0
M  V30 14 N 0.546861 0.827069 1.582336 0
M  V30 15 C -0.415308 1.629425 2.225282 0
M  V30 16 C -0.944376 2.789238 1.703053 0
M  V30 17 C -1.887670 3.589301 2.312512 0
M  V30 18 C -2.350695 3.206657 3.553599 0
M  V30 19 N -3.240295 3.735446 4.403226 0
M  V30 20 N -3.326811 2.959669 5.491684 0
M  V30 21 C -2.472361 1.905720 5.339274 0
M  V30 22 C -1.851507 2.053696 4.117664 0
M  V30 23 C -0.909141 1.288557 3.467707 0
M  V30 24 C 2.272809 0.087078 0.021629 0
M  V30 25 C 0.224431 -4.160632 -0.430582 0
M  V30 26 H 1.411728 -7.205554 -1.330310 0
M  V30 27 H 3.486108 -6.110734 -0.605550 0
M  V30 28 H 2.004477 -2.034076 1.409981 0
M  V30 29 H 0.323172 -1.862972 0.661647 0
M  V30 30 H 1.845303 -1.478105 -2.486925 0
M  V30 31 H 0.341226 -1.930932 -1.691290 0
M  V30 32 H -0.215215 0.084147 -2.710416 0
M  V30 33 H 1.439475 0.734164 -2.628022 0
M  V30 34 H -0.848470 0.727889 -0.599454 0
M  V30 35 H 0.111190 2.081941 -1.260014 0
M  V30 36 H 1.646369 2.054214 0.376464 0
M  V30 37 H 0.876173 -0.035364 2.100471 0
M  V30 38 H -0.618683 3.136391 0.739708 0
M  V30 39 H -2.262091 4.494915 1.838336 0
M  V30 40 H -3.756098 4.629550 4.181907 0
M  V30 41 H -2.331413 1.102689 6.079468 0
M  V30 42 H -0.560092 0.385191 3.979621 0
M  V30 43 H 2.963323 0.003057 0.882697 0
M  V30 44 H 2.873880 0.571891 -0.799264 0
M  V30 45 H -0.721856 -3.643615 -0.396756 0
M  V30 END ATOM
M  V30 BEGIN BOND
M  V30 1 1 1 2
M  V30 2 2 2 3
M  V30 3 1 3 4
M  V30 4 2 4 5
M  V30 5 1 5 6
M  V30 6 1 5 7
M  V30 7 1 7 8
M  V30 8 1 8 9
M  V30 9 1 9 10
M  V30 10 1 10 11
M  V30 11 1 11 12
M  V30 12 1 12 13
M  V30 13 1 13 14
M  V30 14 1 14 15
M  V30 15 2 15 16
M  V30 16 1 16 17
M  V30 17 2 17 18
M  V30 18 1 18 19
M  V30 19 1 19 20
M  V30 20 2 20 21
M  V30 21 1 21 22
M  V30 22 2 22 23
M  V30 23 1 13 24
M  V30 24 2 7 25
M  V30 25 1 25 2
M  V30 26 1 24 9
M  V30 27 1 23 15
M  V30 28 1 22 18
M  V30 29 1 3 26
M  V30 30 1 4 27
M  V30 31 1 8 28
M  V30 32 1 8 29
M  V30 33 1 10 30
M  V30 34 1 10 31
M  V30 35 1 11 32
M  V30 36 1 11 33
M  V30 37 1 12 34
M  V30 38 1 12 35
M  V30 39 1 13 36
M  V30 40 1 14 37
M  V30 41 1 16 38
M  V30 42 1 17 39
M  V30 43 1 19 40
M  V30 44 1 21 41
M  V30 45 1 23 42
M  V30 46 1 24 43
M  V30 47 1 24 44
M  V30 48 1 25 45
M  V30 END BOND
M  V30 END CTAB
M  END
>  <Dataset>  (861) 
ChEMBL_Kinases

>  <Ligand_Instance>  (861) 
nan

>  <PDB_ID>  (861) 
nan

>  <Standardized_SMILES>  (861) 
Brc1ccc(Br)c(CN2CCCC(Nc3ccc4[nH]ncc4c3)C2)c1

>  <Name>  (861) 
nan

>  <Pocket>  (861) 
nan

>  <ATP_Site>  (861) 
nan

>  <Peripheral>  (861) 
nan

>  <Num_H_Atoms_ProtBoundConf>  (861) 
nan

>  <Num_Resolved_Atoms>  (861) 
nan

>  <Num_Not_Resolved_Atoms>  (861) 
nan

$$$$
CHEMBL3689403
     RDKit          3D

  0  0  0  0  0  0  0  0  0  0999 V3000
M  V30 BEGIN CTAB
M  V30 COUNTS 42 45 0 0 0
M  V30 BEGIN ATOM
M  V30 1 Cl 0.010783 -8.336430 0.256644 0
M  V30 2 C 0.503381 -6.692204 0.036423 0
M  V30 3 C 0.936862 -6.192877 -1.187707 0
M  V30 4 C 1.327557 -4.880001 -1.352806 0
M  V30 5 C 1.308647 -3.984601 -0.302111 0
M  V30 6 C 1.718486 -2.590958 -0.457407 0
M  V30 7 N 0.632986 -1.707835 -0.824692 0
M  V30 8 C -0.427239 -1.681919 0.129834 0
M  V30 9 C -1.208550 -0.447221 -0.215518 0
M  V30 10 C -0.189389 0.445413 -0.877960 0
M  V30 11 N -0.147872 1.784840 -0.400638 0
M  V30 12 C 0.053663 2.313652 0.874783 0
M  V30 13 C 0.254702 1.589294 2.029756 0
M  V30 14 C 0.460532 2.091283 3.296666 0
M  V30 15 C 0.466201 3.462649 3.424892 0
M  V30 16 N 0.631783 4.285533 4.473052 0
M  V30 17 N 0.550171 5.548489 4.071404 0
M  V30 18 C 0.327729 5.590279 2.742362 0
M  V30 19 C 0.273343 4.269457 2.325701 0
M  V30 20 C 0.075009 3.684338 1.097477 0
M  V30 21 C 1.127349 -0.317912 -0.752760 0
M  V30 22 C 0.884969 -4.439025 0.930877 0
M  V30 23 C 0.495388 -5.763229 1.079121 0
M  V30 24 Cl -0.049914 -6.383767 2.627271 0
M  V30 25 H 0.967605 -6.863909 -2.042674 0
M  V30 26 H 1.656773 -4.526312 -2.310274 0
M  V30 27 H 2.475059 -2.509625 -1.271599 0
M  V30 28 H 2.169993 -2.246126 0.486973 0
M  V30 29 H -1.134723 -2.538097 0.022014 0
M  V30 30 H 0.025649 -1.666486 1.149329 0
M  V30 31 H -2.011411 -0.720120 -0.937412 0
M  V30 32 H -1.675298 0.028567 0.670023 0
M  V30 33 H -0.370354 0.463207 -2.001620 0
M  V30 34 H -0.298477 2.530053 -1.152493 0
M  V30 35 H 0.256184 0.524918 1.991739 0
M  V30 36 H 0.611554 1.490094 4.159569 0
M  V30 37 H 0.800654 3.983876 5.463432 0
M  V30 38 H 0.210899 6.451342 2.102129 0
M  V30 39 H -0.070231 4.371892 0.275323 0
M  V30 40 H 1.623460 -0.203898 0.209078 0
M  V30 41 H 1.783173 -0.176628 -1.629867 0
M  V30 42 H 0.827803 -3.832542 1.823382 0
M  V30 END ATOM
M  V30 BEGIN BOND
M  V30 1 1 1 2
M  V30 2 2 2 3
M  V30 3 1 3 4
M  V30 4 2 4 5
M  V30 5 1 5 6
M  V30 6 1 6 7
M  V30 7 1 7 8
M  V30 8 1 8 9
M  V30 9 1 9 10
M  V30 10 1 10 11
M  V30 11 1 11 12
M  V30 12 2 12 13
M  V30 13 1 13 14
M  V30 14 2 14 15
M  V30 15 1 15 16
M  V30 16 1 16 17
M  V30 17 2 17 18
M  V30 18 1 18 19
M  V30 19 2 19 20
M  V30 20 1 10 21
M  V30 21 1 5 22
M  V30 22 2 22 23
M  V30 23 1 23 24
M  V30 24 1 23 2
M  V30 25 1 21 7
M  V30 26 1 20 12
M  V30 27 1 19 15
M  V30 28 1 3 25
M  V30 29 1 4 26
M  V30 30 1 6 27
M  V30 31 1 6 28
M  V30 32 1 8 29
M  V30 33 1 8 30
M  V30 34 1 9 31
M  V30 35 1 9 32
M  V30 36 1 10 33
M  V30 37 1 11 34
M  V30 38 1 13 35
M  V30 39 1 14 36
M  V30 40 1 16 37
M  V30 41 1 18 38
M  V30 42 1 20 39
M  V30 43 1 21 40
M  V30 44 1 21 41
M  V30 45 1 22 42
M  V30 END BOND
M  V30 END CTAB
M  END
>  <Dataset>  (862) 
ChEMBL_Kinases

>  <Ligand_Instance>  (862) 
nan

>  <PDB_ID>  (862) 
nan

>  <Standardized_SMILES>  (862) 
Clc1ccc(CN2CCC(Nc3ccc4[nH]ncc4c3)C2)cc1Cl

>  <Name>  (862) 
nan

>  <Pocket>  (862) 
nan

>  <ATP_Site>  (862) 
nan

>  <Peripheral>  (862) 
nan

>  <Num_H_Atoms_ProtBoundConf>  (862) 
nan

>  <Num_Resolved_Atoms>  (862) 
nan

>  <Num_Not_Resolved_Atoms>  (862) 
nan

$$$$
CHEMBL3689460
     RDKit          3D

  0  0  0  0  0  0  0  0  0  0999 V3000
M  V30 BEGIN CTAB
M  V30 COUNTS 55 58 0 0 0
M  V30 BEGIN ATOM
M  V30 1 C -4.435827 -3.588619 -3.443512 0
M  V30 2 C -4.865737 -2.555693 -2.479951 0
M  V30 3 O -4.309561 -2.792949 -1.379017 0
M  V30 4 N -5.751755 -1.475641 -2.732678 0
M  V30 5 C -6.126041 -0.498011 -1.729057 0
M  V30 6 C -5.005059 0.460958 -1.547063 0
M  V30 7 C -5.113088 1.543303 -2.429533 0
M  V30 8 C -4.141526 2.548971 -2.395497 0
M  V30 9 C -3.075391 2.499646 -1.509998 0
M  V30 10 C -3.002023 1.407195 -0.647896 0
M  V30 11 C -1.922144 1.241425 0.335334 0
M  V30 12 N -0.780333 0.533097 -0.142889 0
M  V30 13 C -1.051982 -0.801672 -0.579107 0
M  V30 14 C 0.120149 -1.570521 -1.037357 0
M  V30 15 C 1.347153 -0.827115 -1.415077 0
M  V30 16 C 1.390478 0.622513 -1.036226 0
M  V30 17 N 1.923110 0.878842 0.285278 0
M  V30 18 C 3.250691 0.677514 0.716156 0
M  V30 19 C 4.285782 0.229642 -0.074155 0
M  V30 20 C 5.579427 0.021835 0.346779 0
M  V30 21 C 5.894273 0.273513 1.657162 0
M  V30 22 N 6.983286 0.206962 2.444282 0
M  V30 23 N 6.733300 0.579010 3.688978 0
M  V30 24 C 5.429647 0.917830 3.782067 0
M  V30 25 C 4.893704 0.727416 2.503301 0
M  V30 26 C 3.617014 0.916053 2.022816 0
M  V30 27 C -0.008691 1.186249 -1.151397 0
M  V30 28 C -3.942058 0.422815 -0.672371 0
M  V30 29 H -4.753769 -4.606833 -3.083403 0
M  V30 30 H -4.881196 -3.364079 -4.419735 0
M  V30 31 H -3.341848 -3.627694 -3.565299 0
M  V30 32 H -6.089052 -1.491489 -3.738191 0
M  V30 33 H -7.074108 -0.009293 -1.948280 0
M  V30 34 H -6.239239 -1.106209 -0.779967 0
M  V30 35 H -5.888421 1.722259 -3.178435 0
M  V30 36 H -4.183169 3.412614 -3.063904 0
M  V30 37 H -2.317521 3.267305 -1.470938 0
M  V30 38 H -2.272001 0.714699 1.253994 0
M  V30 39 H -1.538638 2.243585 0.687306 0
M  V30 40 H -1.821761 -0.807362 -1.404500 0
M  V30 41 H -1.581667 -1.307917 0.263657 0
M  V30 42 H -0.191645 -2.291197 -1.849621 0
M  V30 43 H 0.402079 -2.263404 -0.187695 0
M  V30 44 H 2.242916 -1.397016 -1.127326 0
M  V30 45 H 1.375887 -0.833965 -2.547357 0
M  V30 46 H 2.016803 1.207929 -1.758545 0
M  V30 47 H 1.247847 1.255971 1.003111 0
M  V30 48 H 4.110181 0.020725 -1.118345 0
M  V30 49 H 6.364002 -0.332323 -0.310051 0
M  V30 50 H 7.936349 -0.106350 2.112517 0
M  V30 51 H 4.863568 1.269927 4.638905 0
M  V30 52 H 2.851379 1.275143 2.716589 0
M  V30 53 H -0.033766 2.292754 -1.099889 0
M  V30 54 H -0.373558 0.876727 -2.169051 0
M  V30 55 H -3.947312 -0.430196 -0.045879 0
M  V30 END ATOM
M  V30 BEGIN BOND
M  V30 1 1 1 2
M  V30 2 2 2 3
M  V30 3 1 2 4
M  V30 4 1 4 5
M  V30 5 1 5 6
M  V30 6 2 6 7
M  V30 7 1 7 8
M  V30 8 2 8 9
M  V30 9 1 9 10
M  V30 10 1 10 11
M  V30 11 1 11 12
M  V30 12 1 12 13
M  V30 13 1 13 14
M  V30 14 1 14 15
M  V30 15 1 15 16
M  V30 16 1 16 17
M  V30 17 1 17 18
M  V30 18 2 18 19
M  V30 19 1 19 20
M  V30 20 2 20 21
M  V30 21 1 21 22
M  V30 22 1 22 23
M  V30 23 2 23 24
M  V30 24 1 24 25
M  V30 25 2 25 26
M  V30 26 1 16 27
M  V30 27 2 10 28
M  V30 28 1 28 6
M  V30 29 1 27 12
M  V30 30 1 26 18
M  V30 31 1 25 21
M  V30 32 1 1 29
M  V30 33 1 1 30
M  V30 34 1 1 31
M  V30 35 1 4 32
M  V30 36 1 5 33
M  V30 37 1 5 34
M  V30 38 1 7 35
M  V30 39 1 8 36
M  V30 40 1 9 37
M  V30 41 1 11 38
M  V30 42 1 11 39
M  V30 43 1 13 40
M  V30 44 1 13 41
M  V30 45 1 14 42
M  V30 46 1 14 43
M  V30 47 1 15 44
M  V30 48 1 15 45
M  V30 49 1 16 46
M  V30 50 1 17 47
M  V30 51 1 19 48
M  V30 52 1 20 49
M  V30 53 1 22 50
M  V30 54 1 24 51
M  V30 55 1 26 52
M  V30 56 1 27 53
M  V30 57 1 27 54
M  V30 58 1 28 55
M  V30 END BOND
M  V30 END CTAB
M  END
>  <Dataset>  (863) 
ChEMBL_Kinases

>  <Ligand_Instance>  (863) 
nan

>  <PDB_ID>  (863) 
nan

>  <Standardized_SMILES>  (863) 
CC(=O)NCc1cccc(CN2CCCC(Nc3ccc4[nH]ncc4c3)C2)c1

>  <Name>  (863) 
nan

>  <Pocket>  (863) 
nan

>  <ATP_Site>  (863) 
nan

>  <Peripheral>  (863) 
nan

>  <Num_H_Atoms_ProtBoundConf>  (863) 
nan

>  <Num_Resolved_Atoms>  (863) 
nan

>  <Num_Not_Resolved_Atoms>  (863) 
nan

$$$$
CHEMBL3689459
     RDKit          3D

  0  0  0  0  0  0  0  0  0  0999 V3000
M  V30 BEGIN CTAB
M  V30 COUNTS 56 59 0 0 0
M  V30 BEGIN ATOM
M  V30 1 C -2.534070 -2.798812 1.041720 0
M  V30 2 N -1.316655 -3.591592 1.058279 0
M  V30 3 C -0.126156 -3.035358 1.552318 0
M  V30 4 C 0.131830 -3.188126 2.897976 0
M  V30 5 C 1.288385 -2.662605 3.445284 0
M  V30 6 C 2.166069 -1.986763 2.605131 0
M  V30 7 C 1.956835 -1.802670 1.240964 0
M  V30 8 C 2.940557 -1.073607 0.428168 0
M  V30 9 N 2.761056 0.320658 0.316018 0
M  V30 10 C 2.796617 1.035034 1.573641 0
M  V30 11 C 3.270027 2.431199 1.148830 0
M  V30 12 C 2.220002 3.036988 0.305848 0
M  V30 13 C 1.238682 2.152882 -0.358814 0
M  V30 14 N -0.073559 2.368270 0.273462 0
M  V30 15 C -1.353875 1.829347 -0.061873 0
M  V30 16 C -2.527658 2.098792 0.644211 0
M  V30 17 C -3.691463 1.519495 0.203068 0
M  V30 18 C -3.809130 0.685752 -0.886669 0
M  V30 19 N -4.821261 0.026179 -1.480171 0
M  V30 20 N -4.380043 -0.642883 -2.511190 0
M  V30 21 C -3.058180 -0.419642 -2.596500 0
M  V30 22 C -2.630132 0.423387 -1.584957 0
M  V30 23 C -1.448781 0.996516 -1.157443 0
M  V30 24 C 1.549298 0.699548 -0.371664 0
M  V30 25 C 0.778120 -2.359311 0.778572 0
M  V30 26 S -1.249685 -5.203026 0.496528 0
M  V30 27 C -0.140420 -5.406797 -0.867678 0
M  V30 28 O -0.837479 -6.181524 1.559507 0
M  V30 29 O -2.617178 -5.635116 0.014176 0
M  V30 30 H -2.500182 -1.998159 1.821886 0
M  V30 31 H -2.613510 -2.346233 0.031835 0
M  V30 32 H -3.423810 -3.448261 1.284830 0
M  V30 33 H -0.558177 -3.715942 3.542585 0
M  V30 34 H 1.459739 -2.796232 4.484834 0
M  V30 35 H 3.038702 -1.612285 3.117854 0
M  V30 36 H 3.983798 -1.254440 0.814027 0
M  V30 37 H 2.944471 -1.514270 -0.584449 0
M  V30 38 H 1.796531 1.181338 2.028598 0
M  V30 39 H 3.507601 0.597720 2.308076 0
M  V30 40 H 4.178827 2.232238 0.524149 0
M  V30 41 H 3.484211 3.057198 2.015920 0
M  V30 42 H 1.693076 3.825029 0.922488 0
M  V30 43 H 2.759029 3.672194 -0.460876 0
M  V30 44 H 1.082152 2.499665 -1.401750 0
M  V30 45 H -0.134258 3.018157 1.116738 0
M  V30 46 H -2.447556 2.745781 1.493121 0
M  V30 47 H -4.561970 1.772087 0.797895 0
M  V30 48 H -5.798156 0.048826 -1.164147 0
M  V30 49 H -2.391000 -0.829973 -3.344718 0
M  V30 50 H -0.636053 0.699103 -1.806026 0
M  V30 51 H 0.703273 0.124654 0.067181 0
M  V30 52 H 1.679073 0.316046 -1.405251 0
M  V30 53 H 0.560810 -2.247790 -0.277127 0
M  V30 54 H -0.267127 -4.638584 -1.647267 0
M  V30 55 H 0.927819 -5.420912 -0.555616 0
M  V30 56 H -0.325564 -6.409034 -1.308687 0
M  V30 END ATOM
M  V30 BEGIN BOND
M  V30 1 1 1 2
M  V30 2 1 2 3
M  V30 3 2 3 4
M  V30 4 1 4 5
M  V30 5 2 5 6
M  V30 6 1 6 7
M  V30 7 1 7 8
M  V30 8 1 8 9
M  V30 9 1 9 10
M  V30 10 1 10 11
M  V30 11 1 11 12
M  V30 12 1 12 13
M  V30 13 1 13 14
M  V30 14 1 14 15
M  V30 15 2 15 16
M  V30 16 1 16 17
M  V30 17 2 17 18
M  V30 18 1 18 19
M  V30 19 1 19 20
M  V30 20 2 20 21
M  V30 21 1 21 22
M  V30 22 2 22 23
M  V30 23 1 13 24
M  V30 24 2 7 25
M  V30 25 1 2 26
M  V30 26 1 26 27
M  V30 27 2 26 28
M  V30 28 2 26 29
M  V30 29 1 25 3
M  V30 30 1 24 9
M  V30 31 1 23 15
M  V30 32 1 22 18
M  V30 33 1 1 30
M  V30 34 1 1 31
M  V30 35 1 1 32
M  V30 36 1 4 33
M  V30 37 1 5 34
M  V30 38 1 6 35
M  V30 39 1 8 36
M  V30 40 1 8 37
M  V30 41 1 10 38
M  V30 42 1 10 39
M  V30 43 1 11 40
M  V30 44 1 11 41
M  V30 45 1 12 42
M  V30 46 1 12 43
M  V30 47 1 13 44
M  V30 48 1 14 45
M  V30 49 1 16 46
M  V30 50 1 17 47
M  V30 51 1 19 48
M  V30 52 1 21 49
M  V30 53 1 23 50
M  V30 54 1 24 51
M  V30 55 1 24 52
M  V30 56 1 25 53
M  V30 57 1 27 54
M  V30 58 1 27 55
M  V30 59 1 27 56
M  V30 END BOND
M  V30 END CTAB
M  END
>  <Dataset>  (864) 
ChEMBL_Kinases

>  <Ligand_Instance>  (864) 
nan

>  <PDB_ID>  (864) 
nan

>  <Standardized_SMILES>  (864) 
CN(c1cccc(CN2CCCC(Nc3ccc4[nH]ncc4c3)C2)c1)S(C)(=O)=O

>  <Name>  (864) 
nan

>  <Pocket>  (864) 
nan

>  <ATP_Site>  (864) 
nan

>  <Peripheral>  (864) 
nan

>  <Num_H_Atoms_ProtBoundConf>  (864) 
nan

>  <Num_Resolved_Atoms>  (864) 
nan

>  <Num_Not_Resolved_Atoms>  (864) 
nan

$$$$
CHEMBL3689458
     RDKit          3D

  0  0  0  0  0  0  0  0  0  0999 V3000
M  V30 BEGIN CTAB
M  V30 COUNTS 56 59 0 0 0
M  V30 BEGIN ATOM
M  V30 1 C 0.296694 -4.622791 2.705666 0
M  V30 2 C 1.283673 -3.756746 1.932873 0
M  V30 3 S 2.604790 -3.201057 2.944586 0
M  V30 4 O 3.331869 -4.406592 3.491345 0
M  V30 5 O 2.068502 -2.457871 4.150646 0
M  V30 6 N 3.714200 -2.238233 2.063723 0
M  V30 7 C 3.627138 -1.022753 1.372835 0
M  V30 8 C 4.578299 -0.016085 1.595510 0
M  V30 9 C 4.615551 1.224947 1.006666 0
M  V30 10 C 3.599581 1.473736 0.110214 0
M  V30 11 C 2.603798 0.560974 -0.193357 0
M  V30 12 C 1.522635 0.848803 -1.158745 0
M  V30 13 N 0.366858 1.440584 -0.526618 0
M  V30 14 C 0.639139 2.682420 0.128529 0
M  V30 15 C -0.594488 3.047768 0.948734 0
M  V30 16 C -1.684514 2.004753 0.810504 0
M  V30 17 C -2.015259 1.841513 -0.650655 0
M  V30 18 N -3.062867 0.906701 -0.912666 0
M  V30 19 C -3.123582 -0.497192 -0.749588 0
M  V30 20 C -2.094467 -1.295168 -0.304525 0
M  V30 21 C -2.138768 -2.660131 -0.129713 0
M  V30 22 C -3.323521 -3.288023 -0.428127 0
M  V30 23 N -3.752275 -4.561559 -0.391116 0
M  V30 24 N -5.007459 -4.644479 -0.788056 0
M  V30 25 C -5.471432 -3.417381 -1.109117 0
M  V30 26 C -4.397091 -2.554185 -0.879175 0
M  V30 27 C -4.279837 -1.193370 -1.029502 0
M  V30 28 C -0.745873 1.510717 -1.425776 0
M  V30 29 C 2.671501 -0.650302 0.460468 0
M  V30 30 H 0.115265 -4.281885 3.723512 0
M  V30 31 H -0.646392 -4.615522 2.125724 0
M  V30 32 H 0.637832 -5.679164 2.703995 0
M  V30 33 H 1.695197 -4.391847 1.127424 0
M  V30 34 H 0.696634 -2.913622 1.508091 0
M  V30 35 H 4.716772 -2.585299 1.978043 0
M  V30 36 H 5.379150 -0.241699 2.316698 0
M  V30 37 H 5.397150 1.912969 1.258949 0
M  V30 38 H 3.574637 2.434400 -0.386492 0
M  V30 39 H 1.953755 1.523893 -1.941448 0
M  V30 40 H 1.179233 -0.083880 -1.661681 0
M  V30 41 H 1.502001 2.544521 0.817417 0
M  V30 42 H 0.895726 3.499958 -0.573240 0
M  V30 43 H -0.325258 3.147175 2.005866 0
M  V30 44 H -1.005861 3.988245 0.539401 0
M  V30 45 H -2.568651 2.435787 1.338883 0
M  V30 46 H -1.450750 1.040346 1.244717 0
M  V30 47 H -2.307407 2.852482 -1.007194 0
M  V30 48 H -3.959921 1.337061 -1.299186 0
M  V30 49 H -1.142757 -0.860335 -0.064933 0
M  V30 50 H -1.303110 -3.237001 0.222122 0
M  V30 51 H -3.154883 -5.357759 -0.086339 0
M  V30 52 H -6.448854 -3.141110 -1.465477 0
M  V30 53 H -5.175129 -0.665497 -1.393994 0
M  V30 54 H -0.842388 0.548888 -1.974180 0
M  V30 55 H -0.525279 2.274738 -2.198675 0
M  V30 56 H 1.903997 -1.350704 0.219277 0
M  V30 END ATOM
M  V30 BEGIN BOND
M  V30 1 1 1 2
M  V30 2 1 2 3
M  V30 3 2 3 4
M  V30 4 2 3 5
M  V30 5 1 3 6
M  V30 6 1 6 7
M  V30 7 2 7 8
M  V30 8 1 8 9
M  V30 9 2 9 10
M  V30 10 1 10 11
M  V30 11 1 11 12
M  V30 12 1 12 13
M  V30 13 1 13 14
M  V30 14 1 14 15
M  V30 15 1 15 16
M  V30 16 1 16 17
M  V30 17 1 17 18
M  V30 18 1 18 19
M  V30 19 2 19 20
M  V30 20 1 20 21
M  V30 21 2 21 22
M  V30 22 1 22 23
M  V30 23 1 23 24
M  V30 24 2 24 25
M  V30 25 1 25 26
M  V30 26 2 26 27
M  V30 27 1 17 28
M  V30 28 2 11 29
M  V30 29 1 29 7
M  V30 30 1 28 13
M  V30 31 1 27 19
M  V30 32 1 26 22
M  V30 33 1 1 30
M  V30 34 1 1 31
M  V30 35 1 1 32
M  V30 36 1 2 33
M  V30 37 1 2 34
M  V30 38 1 6 35
M  V30 39 1 8 36
M  V30 40 1 9 37
M  V30 41 1 10 38
M  V30 42 1 12 39
M  V30 43 1 12 40
M  V30 44 1 14 41
M  V30 45 1 14 42
M  V30 46 1 15 43
M  V30 47 1 15 44
M  V30 48 1 16 45
M  V30 49 1 16 46
M  V30 50 1 17 47
M  V30 51 1 18 48
M  V30 52 1 20 49
M  V30 53 1 21 50
M  V30 54 1 23 51
M  V30 55 1 25 52
M  V30 56 1 27 53
M  V30 57 1 28 54
M  V30 58 1 28 55
M  V30 59 1 29 56
M  V30 END BOND
M  V30 END CTAB
M  END
>  <Dataset>  (865) 
ChEMBL_Kinases

>  <Ligand_Instance>  (865) 
nan

>  <PDB_ID>  (865) 
nan

>  <Standardized_SMILES>  (865) 
CCS(=O)(=O)Nc1cccc(CN2CCCC(Nc3ccc4[nH]ncc4c3)C2)c1

>  <Name>  (865) 
nan

>  <Pocket>  (865) 
nan

>  <ATP_Site>  (865) 
nan

>  <Peripheral>  (865) 
nan

>  <Num_H_Atoms_ProtBoundConf>  (865) 
nan

>  <Num_Resolved_Atoms>  (865) 
nan

>  <Num_Not_Resolved_Atoms>  (865) 
nan

$$$$
CHEMBL3689457
     RDKit          3D

  0  0  0  0  0  0  0  0  0  0999 V3000
M  V30 BEGIN CTAB
M  V30 COUNTS 55 59 0 0 0
M  V30 BEGIN ATOM
M  V30 1 O 4.457284 -5.116512 2.962666 0
M  V30 2 C 3.341019 -4.703793 2.504685 0
M  V30 3 O 2.367690 -4.656048 3.495694 0
M  V30 4 C 3.114045 -4.319376 1.073035 0
M  V30 5 N 3.419082 -2.894735 0.982032 0
M  V30 6 C 4.638844 -2.381287 0.701234 0
M  V30 7 C 4.525096 -1.005899 0.704600 0
M  V30 8 C 3.210688 -0.700865 0.993422 0
M  V30 9 C 2.528763 0.492705 1.126628 0
M  V30 10 C 1.162728 0.576598 1.430519 0
M  V30 11 C 0.628599 1.955978 1.531362 0
M  V30 12 N 0.153513 2.516844 0.320128 0
M  V30 13 C -0.333281 3.847943 0.433845 0
M  V30 14 C -1.667542 3.960184 1.103355 0
M  V30 15 C -2.496372 2.737739 1.052330 0
M  V30 16 C -2.182296 1.761222 -0.045321 0
M  V30 17 N -2.679391 0.459476 0.351552 0
M  V30 18 C -2.652666 -0.723166 -0.422335 0
M  V30 19 C -2.166178 -0.830063 -1.688019 0
M  V30 20 C -2.134343 -1.976882 -2.438651 0
M  V30 21 C -2.632290 -3.151216 -1.895845 0
M  V30 22 N -2.734296 -4.396820 -2.373634 0
M  V30 23 N -3.292521 -5.132140 -1.424692 0
M  V30 24 C -3.551934 -4.389828 -0.348464 0
M  V30 25 C -3.132778 -3.098177 -0.627630 0
M  V30 26 C -3.137671 -1.915311 0.077764 0
M  V30 27 C -0.748459 1.714768 -0.429030 0
M  V30 28 C 0.506975 -0.625282 1.596453 0
M  V30 29 C 1.195711 -1.813994 1.461585 0
M  V30 30 C 2.538920 -1.894784 1.162677 0
M  V30 31 H 2.509236 -4.171493 4.387431 0
M  V30 32 H 2.053062 -4.516406 0.845865 0
M  V30 33 H 3.817017 -4.862683 0.427843 0
M  V30 34 H 5.575862 -2.887875 0.499966 0
M  V30 35 H 5.316577 -0.278793 0.516084 0
M  V30 36 H 3.131692 1.388752 0.977514 0
M  V30 37 H -0.191307 2.021655 2.296982 0
M  V30 38 H 1.421365 2.634794 1.942553 0
M  V30 39 H -0.343515 4.303153 -0.596206 0
M  V30 40 H 0.446452 4.450205 0.981023 0
M  V30 41 H -2.205382 4.864010 0.759161 0
M  V30 42 H -1.450513 4.170500 2.191513 0
M  V30 43 H -3.561628 3.070638 0.867750 0
M  V30 44 H -2.561806 2.210725 2.033663 0
M  V30 45 H -2.782805 2.022804 -0.964581 0
M  V30 46 H -3.113151 0.356071 1.318945 0
M  V30 47 H -1.766433 0.023838 -2.188349 0
M  V30 48 H -1.736736 -2.020347 -3.446960 0
M  V30 49 H -2.416310 -4.692581 -3.332964 0
M  V30 50 H -4.004869 -4.704743 0.586605 0
M  V30 51 H -3.560279 -1.997037 1.074464 0
M  V30 52 H -0.375699 0.654778 -0.350473 0
M  V30 53 H -0.611193 1.976801 -1.521983 0
M  V30 54 H -0.533081 -0.523275 1.829313 0
M  V30 55 H 0.641588 -2.731706 1.600144 0
M  V30 END ATOM
M  V30 BEGIN BOND
M  V30 1 2 1 2
M  V30 2 1 2 3
M  V30 3 1 2 4
M  V30 4 1 4 5
M  V30 5 1 5 6
M  V30 6 2 6 7
M  V30 7 1 7 8
M  V30 8 2 8 9
M  V30 9 1 9 10
M  V30 10 1 10 11
M  V30 11 1 11 12
M  V30 12 1 12 13
M  V30 13 1 13 14
M  V30 14 1 14 15
M  V30 15 1 15 16
M  V30 16 1 16 17
M  V30 17 1 17 18
M  V30 18 2 18 19
M  V30 19 1 19 20
M  V30 20 2 20 21
M  V30 21 1 21 22
M  V30 22 1 22 23
M  V30 23 2 23 24
M  V30 24 1 24 25
M  V30 25 2 25 26
M  V30 26 1 16 27
M  V30 27 2 10 28
M  V30 28 1 28 29
M  V30 29 2 29 30
M  V30 30 1 30 5
M  V30 31 1 30 8
M  V30 32 1 27 12
M  V30 33 1 26 18
M  V30 34 1 25 21
M  V30 35 1 3 31
M  V30 36 1 4 32
M  V30 37 1 4 33
M  V30 38 1 6 34
M  V30 39 1 7 35
M  V30 40 1 9 36
M  V30 41 1 11 37
M  V30 42 1 11 38
M  V30 43 1 13 39
M  V30 44 1 13 40
M  V30 45 1 14 41
M  V30 46 1 14 42
M  V30 47 1 15 43
M  V30 48 1 15 44
M  V30 49 1 16 45
M  V30 50 1 17 46
M  V30 51 1 19 47
M  V30 52 1 20 48
M  V30 53 1 22 49
M  V30 54 1 24 50
M  V30 55 1 26 51
M  V30 56 1 27 52
M  V30 57 1 27 53
M  V30 58 1 28 54
M  V30 59 1 29 55
M  V30 END BOND
M  V30 END CTAB
M  END
>  <Dataset>  (866) 
ChEMBL_Kinases

>  <Ligand_Instance>  (866) 
nan

>  <PDB_ID>  (866) 
nan

>  <Standardized_SMILES>  (866) 
O=C(O)Cn1ccc2cc(CN3CCCC(Nc4ccc5[nH]ncc5c4)C3)ccc21

>  <Name>  (866) 
nan

>  <Pocket>  (866) 
nan

>  <ATP_Site>  (866) 
nan

>  <Peripheral>  (866) 
nan

>  <Num_H_Atoms_ProtBoundConf>  (866) 
nan

>  <Num_Resolved_Atoms>  (866) 
nan

>  <Num_Not_Resolved_Atoms>  (866) 
nan

$$$$
CHEMBL3689456
     RDKit          3D

  0  0  0  0  0  0  0  0  0  0999 V3000
M  V30 BEGIN CTAB
M  V30 COUNTS 56 59 0 0 0
M  V30 BEGIN ATOM
M  V30 1 C 0.618136 -3.254132 4.976672 0
M  V30 2 C 2.110462 -3.517655 4.806737 0 CFG=1
M  V30 3 O 2.239655 -4.702115 4.086625 0
M  V30 4 C 2.761616 -2.351214 4.057217 0
M  V30 5 O 2.152517 -2.172912 2.801299 0
M  V30 6 C 2.582465 -1.168429 1.945107 0
M  V30 7 C 3.617898 -0.359421 2.365455 0
M  V30 8 C 4.045850 0.635788 1.520350 0
M  V30 9 C 3.438889 0.791007 0.303492 0
M  V30 10 C 2.403338 0.012563 -0.164163 0
M  V30 11 C 1.740776 0.173482 -1.479174 0
M  V30 12 N 0.642096 1.075965 -1.331256 0
M  V30 13 C 0.962766 2.386572 -0.877023 0
M  V30 14 C -0.309707 3.124330 -0.572949 0
M  V30 15 C -1.533740 2.209381 -0.571967 0
M  V30 16 C -1.631237 1.645237 -1.966633 0 CFG=2
M  V30 17 N -2.738997 0.767005 -2.179462 0
M  V30 18 C -2.997940 -0.504603 -1.630404 0
M  V30 19 C -2.189158 -1.196223 -0.769474 0
M  V30 20 C -2.445142 -2.426413 -0.229020 0
M  V30 21 C -3.627415 -3.042257 -0.575344 0
M  V30 22 N -4.196139 -4.215061 -0.250182 0
M  V30 23 N -5.363350 -4.343508 -0.861233 0
M  V30 24 C -5.583313 -3.248607 -1.604273 0
M  V30 25 C -4.497558 -2.414786 -1.436633 0
M  V30 26 C -4.168935 -1.181610 -1.936053 0
M  V30 27 C -0.312201 1.023566 -2.388479 0
M  V30 28 C 2.000504 -0.979574 0.716664 0
M  V30 29 H 0.465841 -2.600671 5.865687 0
M  V30 30 H 0.124760 -4.220549 5.089271 0
M  V30 31 H 0.270336 -2.760444 4.042166 0
M  V30 32 H 2.519751 -3.590124 5.829082 0
M  V30 33 H 2.768941 -4.559185 3.257163 0
M  V30 34 H 3.833843 -2.560899 3.964158 0
M  V30 35 H 2.646536 -1.457420 4.699145 0
M  V30 36 H 4.115388 -0.457291 3.317607 0
M  V30 37 H 4.861724 1.318979 1.781027 0
M  V30 38 H 3.783685 1.587633 -0.369376 0
M  V30 39 H 2.469162 0.479325 -2.258301 0
M  V30 40 H 1.356961 -0.806858 -1.766996 0
M  V30 41 H 1.609592 2.962163 -1.565506 0
M  V30 42 H 1.514624 2.313992 0.090324 0
M  V30 43 H -0.309587 3.591108 0.443126 0
M  V30 44 H -0.523031 3.898342 -1.341477 0
M  V30 45 H -2.405283 2.888232 -0.427273 0
M  V30 46 H -1.496407 1.443767 0.198754 0
M  V30 47 H -1.740420 2.544667 -2.639872 0
M  V30 48 H -3.487613 1.118396 -2.853656 0
M  V30 49 H -1.255494 -0.779610 -0.467750 0
M  V30 50 H -1.801186 -2.945419 0.439018 0
M  V30 51 H -3.824229 -4.956936 0.383699 0
M  V30 52 H -6.461991 -3.047550 -2.231340 0
M  V30 53 H -4.897600 -0.740684 -2.609899 0
M  V30 54 H -0.520916 -0.043224 -2.622340 0
M  V30 55 H 0.076411 1.456224 -3.349919 0
M  V30 56 H 1.207567 -1.648206 0.470430 0
M  V30 END ATOM
M  V30 BEGIN BOND
M  V30 1 1 1 2
M  V30 2 1 2 3
M  V30 3 1 2 4
M  V30 4 1 4 5
M  V30 5 1 5 6
M  V30 6 2 6 7
M  V30 7 1 7 8
M  V30 8 2 8 9
M  V30 9 1 9 10
M  V30 10 1 10 11
M  V30 11 1 11 12
M  V30 12 1 12 13
M  V30 13 1 13 14
M  V30 14 1 14 15
M  V30 15 1 15 16
M  V30 16 1 16 17
M  V30 17 1 17 18
M  V30 18 2 18 19
M  V30 19 1 19 20
M  V30 20 2 20 21
M  V30 21 1 21 22
M  V30 22 1 22 23
M  V30 23 2 23 24
M  V30 24 1 24 25
M  V30 25 2 25 26
M  V30 26 1 16 27
M  V30 27 2 10 28
M  V30 28 1 28 6
M  V30 29 1 27 12
M  V30 30 1 26 18
M  V30 31 1 25 21
M  V30 32 1 1 29
M  V30 33 1 1 30
M  V30 34 1 1 31
M  V30 35 1 2 32 CFG=1
M  V30 36 1 3 33
M  V30 37 1 4 34
M  V30 38 1 4 35
M  V30 39 1 7 36
M  V30 40 1 8 37
M  V30 41 1 9 38
M  V30 42 1 11 39
M  V30 43 1 11 40
M  V30 44 1 13 41
M  V30 45 1 13 42
M  V30 46 1 14 43
M  V30 47 1 14 44
M  V30 48 1 15 45
M  V30 49 1 15 46
M  V30 50 1 16 47 CFG=3
M  V30 51 1 17 48
M  V30 52 1 19 49
M  V30 53 1 20 50
M  V30 54 1 22 51
M  V30 55 1 24 52
M  V30 56 1 26 53
M  V30 57 1 27 54
M  V30 58 1 27 55
M  V30 59 1 28 56
M  V30 END BOND
M  V30 END CTAB
M  END
>  <Dataset>  (867) 
ChEMBL_Kinases

>  <Ligand_Instance>  (867) 
nan

>  <PDB_ID>  (867) 
nan

>  <Standardized_SMILES>  (867) 
C[C@@H](O)COc1cccc(CN2CCC[C@H](Nc3ccc4[nH]ncc4c3)C2)c1

>  <Name>  (867) 
nan

>  <Pocket>  (867) 
nan

>  <ATP_Site>  (867) 
nan

>  <Peripheral>  (867) 
nan

>  <Num_H_Atoms_ProtBoundConf>  (867) 
nan

>  <Num_Resolved_Atoms>  (867) 
nan

>  <Num_Not_Resolved_Atoms>  (867) 
nan

$$$$
CHEMBL3689455
     RDKit          3D

  0  0  0  0  0  0  0  0  0  0999 V3000
M  V30 BEGIN CTAB
M  V30 COUNTS 54 57 0 0 0
M  V30 BEGIN ATOM
M  V30 1 O 2.475217 -3.716511 3.478718 0
M  V30 2 C 1.280146 -3.391854 2.823388 0
M  V30 3 O 0.332450 -4.304178 3.350420 0
M  V30 4 C 1.337936 -3.648734 1.360915 0
M  V30 5 O 2.294900 -2.975963 0.630075 0
M  V30 6 C 2.466951 -1.625242 0.450567 0
M  V30 7 C 3.589278 -1.446142 -0.370976 0
M  V30 8 C 4.031547 -0.170280 -0.743118 0
M  V30 9 C 3.353384 0.944295 -0.295758 0
M  V30 10 C 2.251953 0.745626 0.511158 0
M  V30 11 C 1.525488 1.929075 1.006880 0
M  V30 12 N 0.495085 2.429051 0.175311 0
M  V30 13 C -0.147740 3.593446 0.701763 0
M  V30 14 C -0.969983 3.298244 1.932807 0
M  V30 15 C -1.574882 1.948897 1.934873 0
M  V30 16 C -1.675808 1.296677 0.583193 0 CFG=2
M  V30 17 N -1.874940 -0.122254 0.785294 0
M  V30 18 C -2.124913 -1.125410 -0.187963 0
M  V30 19 C -2.239879 -0.908782 -1.537864 0
M  V30 20 C -2.477950 -1.872629 -2.476595 0
M  V30 21 C -2.620560 -3.179592 -2.077619 0
M  V30 22 N -2.854969 -4.315012 -2.755863 0
M  V30 23 N -2.895553 -5.272095 -1.871005 0
M  V30 24 C -2.696126 -4.813725 -0.625012 0
M  V30 25 C -2.514226 -3.451345 -0.733038 0
M  V30 26 C -2.273640 -2.438278 0.163191 0
M  V30 27 C -0.481574 1.503389 -0.280130 0
M  V30 28 C 1.807523 -0.496673 0.883136 0
M  V30 29 H 2.228876 -3.695908 4.450670 0
M  V30 30 H 0.989559 -2.403472 3.154037 0
M  V30 31 H -0.342367 -3.852409 3.908286 0
M  V30 32 H 1.536797 -4.746236 1.232759 0
M  V30 33 H 0.326537 -3.416354 0.947580 0
M  V30 34 H 4.250688 -2.202012 -0.820541 0
M  V30 35 H 4.885452 0.035106 -1.370993 0
M  V30 36 H 3.643427 1.957294 -0.546669 0
M  V30 37 H 1.123480 1.694000 2.016598 0
M  V30 38 H 2.310160 2.715647 1.208234 0
M  V30 39 H -0.860675 4.006966 -0.049371 0
M  V30 40 H 0.573317 4.424348 0.921759 0
M  V30 41 H -0.271141 3.375620 2.800719 0
M  V30 42 H -1.704304 4.117692 2.091605 0
M  V30 43 H -1.130971 1.275377 2.693019 0
M  V30 44 H -2.643902 2.074378 2.279786 0
M  V30 45 H -2.593374 1.639558 0.028552 0
M  V30 46 H -1.833529 -0.489686 1.780433 0
M  V30 47 H -2.147816 0.079472 -1.934336 0
M  V30 48 H -2.562052 -1.664561 -3.531045 0
M  V30 49 H -2.979370 -4.402237 -3.795019 0
M  V30 50 H -2.676172 -5.366988 0.289265 0
M  V30 51 H -2.208994 -2.765618 1.194398 0
M  V30 52 H -0.006612 0.513652 -0.551867 0
M  V30 53 H -0.809910 1.892359 -1.296748 0
M  V30 54 H 0.974742 -0.733446 1.490838 0
M  V30 END ATOM
M  V30 BEGIN BOND
M  V30 1 1 1 2
M  V30 2 1 2 3
M  V30 3 1 2 4
M  V30 4 1 4 5
M  V30 5 1 5 6
M  V30 6 2 6 7
M  V30 7 1 7 8
M  V30 8 2 8 9
M  V30 9 1 9 10
M  V30 10 1 10 11
M  V30 11 1 11 12
M  V30 12 1 12 13
M  V30 13 1 13 14
M  V30 14 1 14 15
M  V30 15 1 15 16
M  V30 16 1 16 17
M  V30 17 1 17 18
M  V30 18 2 18 19
M  V30 19 1 19 20
M  V30 20 2 20 21
M  V30 21 1 21 22
M  V30 22 1 22 23
M  V30 23 2 23 24
M  V30 24 1 24 25
M  V30 25 2 25 26
M  V30 26 1 16 27
M  V30 27 2 10 28
M  V30 28 1 28 6
M  V30 29 1 27 12
M  V30 30 1 26 18
M  V30 31 1 25 21
M  V30 32 1 1 29
M  V30 33 1 2 30
M  V30 34 1 3 31
M  V30 35 1 4 32
M  V30 36 1 4 33
M  V30 37 1 7 34
M  V30 38 1 8 35
M  V30 39 1 9 36
M  V30 40 1 11 37
M  V30 41 1 11 38
M  V30 42 1 13 39
M  V30 43 1 13 40
M  V30 44 1 14 41
M  V30 45 1 14 42
M  V30 46 1 15 43
M  V30 47 1 15 44
M  V30 48 1 16 45 CFG=3
M  V30 49 1 17 46
M  V30 50 1 19 47
M  V30 51 1 20 48
M  V30 52 1 22 49
M  V30 53 1 24 50
M  V30 54 1 26 51
M  V30 55 1 27 52
M  V30 56 1 27 53
M  V30 57 1 28 54
M  V30 END BOND
M  V30 END CTAB
M  END
>  <Dataset>  (868) 
ChEMBL_Kinases

>  <Ligand_Instance>  (868) 
nan

>  <PDB_ID>  (868) 
nan

>  <Standardized_SMILES>  (868) 
OC(O)COc1cccc(CN2CCC[C@H](Nc3ccc4[nH]ncc4c3)C2)c1

>  <Name>  (868) 
nan

>  <Pocket>  (868) 
nan

>  <ATP_Site>  (868) 
nan

>  <Peripheral>  (868) 
nan

>  <Num_H_Atoms_ProtBoundConf>  (868) 
nan

>  <Num_Resolved_Atoms>  (868) 
nan

>  <Num_Not_Resolved_Atoms>  (868) 
nan

$$$$
CHEMBL3689454
     RDKit          3D

  0  0  0  0  0  0  0  0  0  0999 V3000
M  V30 BEGIN CTAB
M  V30 COUNTS 56 59 0 0 0
M  V30 BEGIN ATOM
M  V30 1 C 0.521287 -2.604897 5.111341 0
M  V30 2 C 1.990631 -2.390219 5.358425 0 CFG=1
M  V30 3 O 2.672278 -3.552704 4.951936 0
M  V30 4 C 2.507162 -1.207268 4.534850 0
M  V30 5 O 2.285647 -1.419745 3.160493 0
M  V30 6 C 2.698080 -0.431269 2.247721 0
M  V30 7 C 3.312320 0.727369 2.729921 0
M  V30 8 C 3.684520 1.643731 1.759635 0
M  V30 9 C 3.489353 1.478633 0.410794 0
M  V30 10 C 2.879057 0.325446 -0.056096 0
M  V30 11 C 2.617869 0.030786 -1.466278 0
M  V30 12 N 1.373408 0.472090 -1.986913 0
M  V30 13 C 1.116698 1.871389 -1.947687 0
M  V30 14 C -0.333659 2.126577 -2.300687 0
M  V30 15 C -1.262794 1.547656 -1.252178 0
M  V30 16 C -0.717241 0.255228 -0.741705 0 CFG=1
M  V30 17 N -1.676249 -0.681361 -0.258977 0
M  V30 18 C -2.758105 -1.331374 -0.898909 0
M  V30 19 C -3.123715 -1.179307 -2.218406 0
M  V30 20 C -4.172395 -1.801399 -2.859569 0
M  V30 21 C -4.930936 -2.662506 -2.101782 0
M  V30 22 N -6.001887 -3.422322 -2.386406 0
M  V30 23 N -6.368665 -4.081202 -1.299259 0
M  V30 24 C -5.554233 -3.779357 -0.262637 0
M  V30 25 C -4.642376 -2.879142 -0.773336 0
M  V30 26 C -3.575443 -2.211843 -0.223405 0
M  V30 27 C 0.239200 -0.355209 -1.742370 0
M  V30 28 C 2.491076 -0.620092 0.898629 0
M  V30 29 H -0.072729 -2.527970 6.064819 0
M  V30 30 H 0.323351 -3.614207 4.676081 0
M  V30 31 H 0.103637 -1.832480 4.442416 0
M  V30 32 H 2.166481 -2.248808 6.423939 0
M  V30 33 H 3.644828 -3.393075 4.970344 0
M  V30 34 H 3.579562 -1.080181 4.739757 0
M  V30 35 H 1.969299 -0.306680 4.914242 0
M  V30 36 H 3.457385 0.842347 3.782057 0
M  V30 37 H 4.161351 2.544300 2.129858 0
M  V30 38 H 3.798849 2.226145 -0.312009 0
M  V30 39 H 3.415307 0.465496 -2.139084 0
M  V30 40 H 2.706995 -1.072641 -1.649701 0
M  V30 41 H 1.722281 2.366236 -2.734709 0
M  V30 42 H 1.351876 2.357784 -0.995521 0
M  V30 43 H -0.489786 3.230221 -2.278927 0
M  V30 44 H -0.582146 1.786381 -3.313757 0
M  V30 45 H -2.284110 1.468356 -1.652975 0
M  V30 46 H -1.356004 2.253207 -0.378668 0
M  V30 47 H -0.046271 0.537647 0.133583 0
M  V30 48 H -1.580175 -0.955992 0.764634 0
M  V30 49 H -2.567765 -0.520147 -2.860836 0
M  V30 50 H -4.414423 -1.648796 -3.887999 0
M  V30 51 H -6.499474 -3.505100 -3.322776 0
M  V30 52 H -5.589343 -4.152921 0.764468 0
M  V30 53 H -3.396314 -2.426060 0.838214 0
M  V30 54 H 0.557760 -1.336644 -1.295493 0
M  V30 55 H -0.232446 -0.598606 -2.687936 0
M  V30 56 H 2.014642 -1.531365 0.601679 0
M  V30 END ATOM
M  V30 BEGIN BOND
M  V30 1 1 1 2
M  V30 2 1 2 3
M  V30 3 1 2 4
M  V30 4 1 4 5
M  V30 5 1 5 6
M  V30 6 2 6 7
M  V30 7 1 7 8
M  V30 8 2 8 9
M  V30 9 1 9 10
M  V30 10 1 10 11
M  V30 11 1 11 12
M  V30 12 1 12 13
M  V30 13 1 13 14
M  V30 14 1 14 15
M  V30 15 1 15 16
M  V30 16 1 16 17
M  V30 17 1 17 18
M  V30 18 2 18 19
M  V30 19 1 19 20
M  V30 20 2 20 21
M  V30 21 1 21 22
M  V30 22 1 22 23
M  V30 23 2 23 24
M  V30 24 1 24 25
M  V30 25 2 25 26
M  V30 26 1 16 27
M  V30 27 2 10 28
M  V30 28 1 28 6
M  V30 29 1 27 12
M  V30 30 1 26 18
M  V30 31 1 25 21
M  V30 32 1 1 29
M  V30 33 1 1 30
M  V30 34 1 1 31
M  V30 35 1 2 32 CFG=1
M  V30 36 1 3 33
M  V30 37 1 4 34
M  V30 38 1 4 35
M  V30 39 1 7 36
M  V30 40 1 8 37
M  V30 41 1 9 38
M  V30 42 1 11 39
M  V30 43 1 11 40
M  V30 44 1 13 41
M  V30 45 1 13 42
M  V30 46 1 14 43
M  V30 47 1 14 44
M  V30 48 1 15 45
M  V30 49 1 15 46
M  V30 50 1 16 47 CFG=1
M  V30 51 1 17 48
M  V30 52 1 19 49
M  V30 53 1 20 50
M  V30 54 1 22 51
M  V30 55 1 24 52
M  V30 56 1 26 53
M  V30 57 1 27 54
M  V30 58 1 27 55
M  V30 59 1 28 56
M  V30 END BOND
M  V30 END CTAB
M  END
>  <Dataset>  (869) 
ChEMBL_Kinases

>  <Ligand_Instance>  (869) 
nan

>  <PDB_ID>  (869) 
nan

>  <Standardized_SMILES>  (869) 
C[C@@H](O)COc1cccc(CN2CCC[C@@H](Nc3ccc4[nH]ncc4c3)C2)c1

>  <Name>  (869) 
nan

>  <Pocket>  (869) 
nan

>  <ATP_Site>  (869) 
nan

>  <Peripheral>  (869) 
nan

>  <Num_H_Atoms_ProtBoundConf>  (869) 
nan

>  <Num_Resolved_Atoms>  (869) 
nan

>  <Num_Not_Resolved_Atoms>  (869) 
nan

$$$$
CHEMBL3689453
     RDKit          3D

  0  0  0  0  0  0  0  0  0  0999 V3000
M  V30 BEGIN CTAB
M  V30 COUNTS 57 60 0 0 0
M  V30 BEGIN ATOM
M  V30 1 O -2.282956 -7.809846 -3.025186 0
M  V30 2 C -2.328948 -7.873039 -1.633661 0
M  V30 3 C -3.587694 -7.152500 -1.166779 0 CFG=1
M  V30 4 O -3.725615 -7.158364 0.187610 0
M  V30 5 C -3.656075 -5.841308 -1.866614 0
M  V30 6 O -2.746275 -4.876616 -1.561850 0
M  V30 7 C -2.406354 -4.153837 -0.473329 0
M  V30 8 C -2.801969 -4.018613 0.834901 0
M  V30 9 C -2.250462 -3.168929 1.761280 0
M  V30 10 C -1.205679 -2.382342 1.333553 0
M  V30 11 C -0.723852 -2.431964 0.042643 0
M  V30 12 C 0.407632 -1.528400 -0.281083 0
M  V30 13 N -0.005332 -0.234960 -0.779408 0
M  V30 14 C -0.797391 0.420188 0.205403 0
M  V30 15 C -1.173103 1.781161 -0.397494 0
M  V30 16 C 0.073097 2.645747 -0.174161 0
M  V30 17 C 1.296071 1.858312 -0.467926 0 CFG=1
M  V30 18 N 1.991919 1.618712 0.806458 0
M  V30 19 C 2.518020 2.628393 1.675247 0
M  V30 20 C 3.163851 2.343725 2.883591 0
M  V30 21 C 3.639722 3.373997 3.650667 0
M  V30 22 C 3.524003 4.703472 3.307050 0
M  V30 23 N 3.898939 5.869912 3.876232 0
M  V30 24 N 3.543177 6.896170 3.124108 0
M  V30 25 C 2.927068 6.373211 2.050252 0
M  V30 26 C 2.886157 5.008568 2.111156 0
M  V30 27 C 2.409777 3.970320 1.343852 0
M  V30 28 C 1.117087 0.549527 -1.139561 0
M  V30 29 C -1.334230 -3.323618 -0.852326 0
M  V30 30 H -1.402480 -8.004897 -3.391644 0
M  V30 31 H -2.419002 -8.934651 -1.335957 0
M  V30 32 H -1.446303 -7.369523 -1.177833 0
M  V30 33 H -4.455176 -7.763523 -1.566884 0
M  V30 34 H -2.851709 -6.940909 0.599030 0
M  V30 35 H -3.517638 -6.086468 -2.972152 0
M  V30 36 H -4.729361 -5.451171 -1.861274 0
M  V30 37 H -3.630276 -4.665741 1.061420 0
M  V30 38 H -2.700697 -3.208305 2.740127 0
M  V30 39 H -0.779436 -1.718319 2.069036 0
M  V30 40 H 1.046343 -2.041993 -1.061462 0
M  V30 41 H 1.119196 -1.452128 0.592838 0
M  V30 42 H -0.247524 0.642637 1.139001 0
M  V30 43 H -1.707271 -0.132501 0.508980 0
M  V30 44 H -1.290361 1.704237 -1.500230 0
M  V30 45 H -2.048112 2.166181 0.131336 0
M  V30 46 H 0.031792 3.556501 -0.796921 0
M  V30 47 H 0.016827 2.958802 0.908441 0
M  V30 48 H 1.999465 2.537463 -1.021542 0
M  V30 49 H 2.146786 0.632410 1.161798 0
M  V30 50 H 3.244789 1.292839 3.135968 0
M  V30 51 H 4.126860 3.083326 4.569648 0
M  V30 52 H 4.401791 5.863492 4.795750 0
M  V30 53 H 2.514719 6.955150 1.238908 0
M  V30 54 H 1.934707 4.308350 0.437214 0
M  V30 55 H 2.049237 -0.061317 -1.007120 0
M  V30 56 H 1.111025 0.760308 -2.251840 0
M  V30 57 H -0.826761 -3.231078 -1.828168 0
M  V30 END ATOM
M  V30 BEGIN BOND
M  V30 1 1 1 2
M  V30 2 1 2 3
M  V30 3 1 3 4
M  V30 4 1 3 5
M  V30 5 1 5 6
M  V30 6 1 6 7
M  V30 7 2 7 8
M  V30 8 1 8 9
M  V30 9 2 9 10
M  V30 10 1 10 11
M  V30 11 1 11 12
M  V30 12 1 12 13
M  V30 13 1 13 14
M  V30 14 1 14 15
M  V30 15 1 15 16
M  V30 16 1 16 17
M  V30 17 1 17 18
M  V30 18 1 18 19
M  V30 19 2 19 20
M  V30 20 1 20 21
M  V30 21 2 21 22
M  V30 22 1 22 23
M  V30 23 1 23 24
M  V30 24 2 24 25
M  V30 25 1 25 26
M  V30 26 2 26 27
M  V30 27 1 17 28
M  V30 28 2 11 29
M  V30 29 1 29 7
M  V30 30 1 28 13
M  V30 31 1 27 19
M  V30 32 1 26 22
M  V30 33 1 1 30
M  V30 34 1 2 31
M  V30 35 1 2 32
M  V30 36 1 3 33 CFG=3
M  V30 37 1 4 34
M  V30 38 1 5 35
M  V30 39 1 5 36
M  V30 40 1 8 37
M  V30 41 1 9 38
M  V30 42 1 10 39
M  V30 43 1 12 40
M  V30 44 1 12 41
M  V30 45 1 14 42
M  V30 46 1 14 43
M  V30 47 1 15 44
M  V30 48 1 15 45
M  V30 49 1 16 46
M  V30 50 1 16 47
M  V30 51 1 17 48 CFG=3
M  V30 52 1 18 49
M  V30 53 1 20 50
M  V30 54 1 21 51
M  V30 55 1 23 52
M  V30 56 1 25 53
M  V30 57 1 27 54
M  V30 58 1 28 55
M  V30 59 1 28 56
M  V30 60 1 29 57
M  V30 END BOND
M  V30 END CTAB
M  END
>  <Dataset>  (870) 
ChEMBL_Kinases

>  <Ligand_Instance>  (870) 
nan

>  <PDB_ID>  (870) 
nan

>  <Standardized_SMILES>  (870) 
OC[C@@H](O)COc1cccc(CN2CCC[C@@H](Nc3ccc4[nH]ncc4c3)C2)c1

>  <Name>  (870) 
nan

>  <Pocket>  (870) 
nan

>  <ATP_Site>  (870) 
nan

>  <Peripheral>  (870) 
nan

>  <Num_H_Atoms_ProtBoundConf>  (870) 
nan

>  <Num_Resolved_Atoms>  (870) 
nan

>  <Num_Not_Resolved_Atoms>  (870) 
nan

$$$$
CHEMBL3689452
     RDKit          3D

  0  0  0  0  0  0  0  0  0  0999 V3000
M  V30 BEGIN CTAB
M  V30 COUNTS 56 60 0 0 0
M  V30 BEGIN ATOM
M  V30 1 O 0.518843 -3.213719 3.789445 0
M  V30 2 C 1.597559 -3.854575 4.395394 0
M  V30 3 C 2.780938 -3.907680 3.462288 0
M  V30 4 N 3.213943 -2.578087 3.079443 0
M  V30 5 C 4.125578 -1.836217 3.732561 0
M  V30 6 C 4.252270 -0.633963 3.043796 0
M  V30 7 C 3.407508 -0.630772 1.948780 0
M  V30 8 C 3.125738 0.273395 0.943040 0
M  V30 9 C 2.184646 -0.091685 -0.015417 0
M  V30 10 C 1.838500 0.853587 -1.133597 0
M  V30 11 N 0.756450 1.641199 -0.654067 0
M  V30 12 C 0.935056 2.410879 0.473961 0
M  V30 13 C -0.209616 3.376802 0.655436 0
M  V30 14 C -1.441436 2.517603 0.784976 0
M  V30 15 C -1.723288 1.730862 -0.478844 0
M  V30 16 N -2.490091 0.542980 -0.156984 0
M  V30 17 C -3.006628 -0.376053 -1.079563 0
M  V30 18 C -2.882963 -0.277609 -2.429024 0
M  V30 19 C -3.385095 -1.185104 -3.349855 0
M  V30 20 C -4.071136 -2.287756 -2.884366 0
M  V30 21 N -4.685319 -3.352546 -3.443929 0
M  V30 22 N -5.197799 -4.128466 -2.497046 0
M  V30 23 C -4.943169 -3.609154 -1.286912 0
M  V30 24 C -4.223999 -2.433490 -1.525203 0
M  V30 25 C -3.699317 -1.493501 -0.664204 0
M  V30 26 C -0.487983 1.371378 -1.230791 0
M  V30 27 C 1.563181 -1.326021 0.056078 0
M  V30 28 C 1.841924 -2.236932 1.062690 0
M  V30 29 C 2.776306 -1.877949 2.016789 0
M  V30 30 H 0.107995 -3.816234 3.121600 0
M  V30 31 H 1.281176 -4.907782 4.560889 0
M  V30 32 H 1.805200 -3.384686 5.362840 0
M  V30 33 H 3.617194 -4.482362 3.861127 0
M  V30 34 H 2.416157 -4.476330 2.558189 0
M  V30 35 H 4.672443 -2.099554 4.626721 0
M  V30 36 H 4.896957 0.212506 3.277411 0
M  V30 37 H 3.629497 1.236631 0.911550 0
M  V30 38 H 2.700816 1.424532 -1.487085 0
M  V30 39 H 1.478543 0.220622 -1.971279 0
M  V30 40 H 1.922513 2.916168 0.439975 0
M  V30 41 H 0.950530 1.770209 1.388306 0
M  V30 42 H -0.107678 3.935545 1.602881 0
M  V30 43 H -0.300350 3.998936 -0.234616 0
M  V30 44 H -2.281548 3.175720 1.071003 0
M  V30 45 H -1.258233 1.788084 1.600614 0
M  V30 46 H -2.392612 2.372824 -1.090346 0
M  V30 47 H -2.677810 0.351099 0.873720 0
M  V30 48 H -2.373724 0.543236 -2.882197 0
M  V30 49 H -3.270853 -1.080809 -4.423815 0
M  V30 50 H -4.724900 -3.500202 -4.472707 0
M  V30 51 H -5.237944 -4.022336 -0.326141 0
M  V30 52 H -3.857398 -1.670478 0.411184 0
M  V30 53 H -0.503651 0.262626 -1.445600 0
M  V30 54 H -0.499096 1.861177 -2.227208 0
M  V30 55 H 0.827277 -1.628089 -0.681632 0
M  V30 56 H 1.332401 -3.194326 1.082588 0
M  V30 END ATOM
M  V30 BEGIN BOND
M  V30 1 1 1 2
M  V30 2 1 2 3
M  V30 3 1 3 4
M  V30 4 1 4 5
M  V30 5 2 5 6
M  V30 6 1 6 7
M  V30 7 2 7 8
M  V30 8 1 8 9
M  V30 9 1 9 10
M  V30 10 1 10 11
M  V30 11 1 11 12
M  V30 12 1 12 13
M  V30 13 1 13 14
M  V30 14 1 14 15
M  V30 15 1 15 16
M  V30 16 1 16 17
M  V30 17 2 17 18
M  V30 18 1 18 19
M  V30 19 2 19 20
M  V30 20 1 20 21
M  V30 21 1 21 22
M  V30 22 2 22 23
M  V30 23 1 23 24
M  V30 24 2 24 25
M  V30 25 1 15 26
M  V30 26 2 9 27
M  V30 27 1 27 28
M  V30 28 2 28 29
M  V30 29 1 29 4
M  V30 30 1 29 7
M  V30 31 1 26 11
M  V30 32 1 25 17
M  V30 33 1 24 20
M  V30 34 1 1 30
M  V30 35 1 2 31
M  V30 36 1 2 32
M  V30 37 1 3 33
M  V30 38 1 3 34
M  V30 39 1 5 35
M  V30 40 1 6 36
M  V30 41 1 8 37
M  V30 42 1 10 38
M  V30 43 1 10 39
M  V30 44 1 12 40
M  V30 45 1 12 41
M  V30 46 1 13 42
M  V30 47 1 13 43
M  V30 48 1 14 44
M  V30 49 1 14 45
M  V30 50 1 15 46
M  V30 51 1 16 47
M  V30 52 1 18 48
M  V30 53 1 19 49
M  V30 54 1 21 50
M  V30 55 1 23 51
M  V30 56 1 25 52
M  V30 57 1 26 53
M  V30 58 1 26 54
M  V30 59 1 27 55
M  V30 60 1 28 56
M  V30 END BOND
M  V30 END CTAB
M  END
>  <Dataset>  (871) 
ChEMBL_Kinases

>  <Ligand_Instance>  (871) 
nan

>  <PDB_ID>  (871) 
nan

>  <Standardized_SMILES>  (871) 
OCCn1ccc2cc(CN3CCCC(Nc4ccc5[nH]ncc5c4)C3)ccc21

>  <Name>  (871) 
nan

>  <Pocket>  (871) 
nan

>  <ATP_Site>  (871) 
nan

>  <Peripheral>  (871) 
nan

>  <Num_H_Atoms_ProtBoundConf>  (871) 
nan

>  <Num_Resolved_Atoms>  (871) 
nan

>  <Num_Not_Resolved_Atoms>  (871) 
nan

$$$$
CHEMBL3689451
     RDKit          3D

  0  0  0  0  0  0  0  0  0  0999 V3000
M  V30 BEGIN CTAB
M  V30 COUNTS 57 60 0 0 0
M  V30 BEGIN ATOM
M  V30 1 O 6.953655 -2.523433 1.977010 0
M  V30 2 C 5.592036 -2.734777 1.903904 0
M  V30 3 C 4.901442 -2.359722 3.205873 0 CFG=2
M  V30 4 O 5.443909 -3.162320 4.232349 0
M  V30 5 C 3.427368 -2.623117 3.089992 0
M  V30 6 O 2.837168 -1.864322 2.098231 0
M  V30 7 C 2.739389 -0.517817 2.025693 0
M  V30 8 C 3.093424 0.584746 2.767058 0
M  V30 9 C 2.841269 1.884466 2.397882 0
M  V30 10 C 2.189578 2.120439 1.207360 0
M  V30 11 C 1.788703 1.072381 0.385028 0
M  V30 12 C 1.111547 1.477007 -0.841479 0
M  V30 13 N -0.269953 1.632310 -0.832536 0
M  V30 14 C -0.892573 2.569283 0.010664 0
M  V30 15 C -2.320865 2.273734 0.359723 0
M  V30 16 C -2.610203 0.821336 0.587640 0
M  V30 17 C -1.641515 -0.107794 -0.051022 0 CFG=1
M  V30 18 N -2.251243 -1.371611 -0.334753 0
M  V30 19 C -3.336073 -1.833952 -1.112065 0
M  V30 20 C -4.163326 -1.058704 -1.881573 0
M  V30 21 C -5.224767 -1.487113 -2.643838 0
M  V30 22 C -5.470030 -2.836869 -2.622318 0
M  V30 23 N -6.394022 -3.593246 -3.224961 0
M  V30 24 N -6.214611 -4.846483 -2.886357 0
M  V30 25 C -5.167972 -4.962885 -2.049748 0
M  V30 26 C -4.688953 -3.687430 -1.877141 0
M  V30 27 C -3.649687 -3.163270 -1.147247 0
M  V30 28 C -1.105921 0.567886 -1.298290 0
M  V30 29 C 2.075671 -0.233453 0.817558 0
M  V30 30 H 7.138054 -1.592323 2.266829 0
M  V30 31 H 5.389927 -3.793626 1.651609 0
M  V30 32 H 5.212113 -2.038500 1.119193 0
M  V30 33 H 5.186833 -1.322631 3.415350 0
M  V30 34 H 4.702931 -3.510751 4.793037 0
M  V30 35 H 2.956184 -2.408002 4.094134 0
M  V30 36 H 3.316839 -3.726380 2.889007 0
M  V30 37 H 3.581233 0.292486 3.681185 0
M  V30 38 H 3.193188 2.617617 3.106396 0
M  V30 39 H 2.043944 3.178112 1.014806 0
M  V30 40 H 1.365593 0.693029 -1.615078 0
M  V30 41 H 1.615001 2.398749 -1.254708 0
M  V30 42 H -0.854817 3.569606 -0.470731 0
M  V30 43 H -0.294977 2.668867 0.949233 0
M  V30 44 H -3.017402 2.633719 -0.426339 0
M  V30 45 H -2.579754 2.829464 1.283316 0
M  V30 46 H -2.577674 0.621663 1.703214 0
M  V30 47 H -3.638472 0.550573 0.303743 0
M  V30 48 H -0.811206 -0.267359 0.685484 0
M  V30 49 H -1.744374 -2.158915 0.180298 0
M  V30 50 H -4.020553 0.008265 -1.939219 0
M  V30 51 H -5.846573 -0.832778 -3.233369 0
M  V30 52 H -7.134170 -3.232877 -3.860819 0
M  V30 53 H -4.777403 -5.883547 -1.598553 0
M  V30 54 H -3.074571 -3.903472 -0.580667 0
M  V30 55 H -1.969412 1.058007 -1.788572 0
M  V30 56 H -0.577063 -0.084012 -1.982388 0
M  V30 57 H 1.685152 -0.914007 0.042061 0
M  V30 END ATOM
M  V30 BEGIN BOND
M  V30 1 1 1 2
M  V30 2 1 2 3
M  V30 3 1 3 4
M  V30 4 1 3 5
M  V30 5 1 5 6
M  V30 6 1 6 7
M  V30 7 2 7 8
M  V30 8 1 8 9
M  V30 9 2 9 10
M  V30 10 1 10 11
M  V30 11 1 11 12
M  V30 12 1 12 13
M  V30 13 1 13 14
M  V30 14 1 14 15
M  V30 15 1 15 16
M  V30 16 1 16 17
M  V30 17 1 17 18
M  V30 18 1 18 19
M  V30 19 2 19 20
M  V30 20 1 20 21
M  V30 21 2 21 22
M  V30 22 1 22 23
M  V30 23 1 23 24
M  V30 24 2 24 25
M  V30 25 1 25 26
M  V30 26 2 26 27
M  V30 27 1 17 28
M  V30 28 2 11 29
M  V30 29 1 29 7
M  V30 30 1 28 13
M  V30 31 1 27 19
M  V30 32 1 26 22
M  V30 33 1 1 30
M  V30 34 1 2 31
M  V30 35 1 2 32
M  V30 36 1 3 33 CFG=1
M  V30 37 1 4 34
M  V30 38 1 5 35
M  V30 39 1 5 36
M  V30 40 1 8 37
M  V30 41 1 9 38
M  V30 42 1 10 39
M  V30 43 1 12 40
M  V30 44 1 12 41
M  V30 45 1 14 42
M  V30 46 1 14 43
M  V30 47 1 15 44
M  V30 48 1 15 45
M  V30 49 1 16 46
M  V30 50 1 16 47
M  V30 51 1 17 48 CFG=1
M  V30 52 1 18 49
M  V30 53 1 20 50
M  V30 54 1 21 51
M  V30 55 1 23 52
M  V30 56 1 25 53
M  V30 57 1 27 54
M  V30 58 1 28 55
M  V30 59 1 28 56
M  V30 60 1 29 57
M  V30 END BOND
M  V30 END CTAB
M  END
>  <Dataset>  (872) 
ChEMBL_Kinases

>  <Ligand_Instance>  (872) 
nan

>  <PDB_ID>  (872) 
nan

>  <Standardized_SMILES>  (872) 
OC[C@H](O)COc1cccc(CN2CCC[C@@H](Nc3ccc4[nH]ncc4c3)C2)c1

>  <Name>  (872) 
nan

>  <Pocket>  (872) 
nan

>  <ATP_Site>  (872) 
nan

>  <Peripheral>  (872) 
nan

>  <Num_H_Atoms_ProtBoundConf>  (872) 
nan

>  <Num_Resolved_Atoms>  (872) 
nan

>  <Num_Not_Resolved_Atoms>  (872) 
nan

$$$$
CHEMBL3689450
     RDKit          3D

  0  0  0  0  0  0  0  0  0  0999 V3000
M  V30 BEGIN CTAB
M  V30 COUNTS 67 71 0 0 0
M  V30 BEGIN ATOM
M  V30 1 C 2.763840 0.750769 5.737504 0
M  V30 2 C 2.300871 -0.016708 4.544456 0
M  V30 3 C 0.929400 -0.581223 4.856855 0
M  V30 4 C 3.236428 -1.187463 4.328977 0
M  V30 5 O 2.156140 0.766149 3.384985 0
M  V30 6 C 3.205010 1.470641 2.802880 0
M  V30 7 O 4.317853 1.362232 3.390983 0
M  V30 8 C 3.325886 2.326904 1.643970 0
M  V30 9 N 2.173601 2.567282 0.852633 0
M  V30 10 C 1.266438 3.556910 0.993397 0
M  V30 11 C 0.280409 3.459263 0.024846 0
M  V30 12 C 0.605142 2.354840 -0.742675 0
M  V30 13 C -0.013960 1.784533 -1.837569 0
M  V30 14 C 0.504329 0.660171 -2.452292 0
M  V30 15 C -0.025804 -0.066301 -3.616645 0
M  V30 16 N -0.933926 -1.121977 -3.329964 0
M  V30 17 C -1.411223 -1.812846 -4.513664 0
M  V30 18 C -1.877243 -3.168652 -3.962009 0
M  V30 19 C -3.072455 -2.939711 -3.119084 0
M  V30 20 C -3.209368 -1.611140 -2.469383 0
M  V30 21 N -3.673658 -1.706390 -1.084910 0
M  V30 22 C -2.944148 -2.317021 -0.057750 0
M  V30 23 C -1.690996 -2.883197 -0.210242 0
M  V30 24 C -0.965641 -3.491867 0.786492 0
M  V30 25 C -1.487824 -3.567419 2.053904 0
M  V30 26 N -1.082240 -4.069162 3.234252 0
M  V30 27 N -2.010939 -3.857787 4.152247 0
M  V30 28 C -3.062958 -3.210903 3.618626 0
M  V30 29 C -2.735216 -3.020440 2.270962 0
M  V30 30 C -3.416607 -2.422566 1.233436 0
M  V30 31 C -2.051629 -0.684573 -2.565435 0
M  V30 32 C 1.682890 0.176938 -1.867969 0
M  V30 33 C 2.329286 0.719375 -0.775566 0
M  V30 34 C 1.766793 1.841181 -0.202529 0
M  V30 35 H 2.067440 1.568345 5.978547 0
M  V30 36 H 3.824260 1.080016 5.682244 0
M  V30 37 H 2.726968 0.058346 6.606072 0
M  V30 38 H 0.415449 0.207821 5.465701 0
M  V30 39 H 1.027192 -1.448209 5.517186 0
M  V30 40 H 0.333772 -0.794845 3.948602 0
M  V30 41 H 3.035173 -1.976898 5.071121 0
M  V30 42 H 4.280101 -0.836343 4.562948 0
M  V30 43 H 3.158010 -1.619152 3.322840 0
M  V30 44 H 4.157163 2.024475 0.947543 0
M  V30 45 H 3.673211 3.338325 2.010475 0
M  V30 46 H 1.248504 4.347511 1.733337 0
M  V30 47 H -0.581520 4.085544 -0.141475 0
M  V30 48 H -0.921336 2.168153 -2.278034 0
M  V30 49 H 0.841932 -0.528463 -4.164774 0
M  V30 50 H -0.427062 0.683452 -4.340700 0
M  V30 51 H -2.266110 -1.334688 -4.999483 0
M  V30 52 H -0.555283 -1.983694 -5.177120 0
M  V30 53 H -0.982986 -3.565309 -3.434600 0
M  V30 54 H -2.123364 -3.861065 -4.782907 0
M  V30 55 H -3.084968 -3.728059 -2.309619 0
M  V30 56 H -3.978240 -3.196927 -3.726124 0
M  V30 57 H -4.055739 -1.091752 -3.014675 0
M  V30 58 H -4.614532 -1.303358 -0.789615 0
M  V30 59 H -1.203361 -2.866706 -1.159571 0
M  V30 60 H 0.009777 -3.921045 0.623032 0
M  V30 61 H -0.156154 -4.545733 3.344539 0
M  V30 62 H -3.984192 -2.891483 4.105350 0
M  V30 63 H -4.390002 -2.016940 1.484675 0
M  V30 64 H -2.363613 0.354838 -2.872120 0
M  V30 65 H -1.655766 -0.539946 -1.516617 0
M  V30 66 H 2.151992 -0.710141 -2.299412 0
M  V30 67 H 3.225560 0.283873 -0.396312 0
M  V30 END ATOM
M  V30 BEGIN BOND
M  V30 1 1 1 2
M  V30 2 1 2 3
M  V30 3 1 2 4
M  V30 4 1 2 5
M  V30 5 1 5 6
M  V30 6 2 6 7
M  V30 7 1 6 8
M  V30 8 1 8 9
M  V30 9 1 9 10
M  V30 10 2 10 11
M  V30 11 1 11 12
M  V30 12 2 12 13
M  V30 13 1 13 14
M  V30 14 1 14 15
M  V30 15 1 15 16
M  V30 16 1 16 17
M  V30 17 1 17 18
M  V30 18 1 18 19
M  V30 19 1 19 20
M  V30 20 1 20 21
M  V30 21 1 21 22
M  V30 22 2 22 23
M  V30 23 1 23 24
M  V30 24 2 24 25
M  V30 25 1 25 26
M  V30 26 1 26 27
M  V30 27 2 27 28
M  V30 28 1 28 29
M  V30 29 2 29 30
M  V30 30 1 20 31
M  V30 31 2 14 32
M  V30 32 1 32 33
M  V30 33 2 33 34
M  V30 34 1 34 9
M  V30 35 1 34 12
M  V30 36 1 31 16
M  V30 37 1 30 22
M  V30 38 1 29 25
M  V30 39 1 1 35
M  V30 40 1 1 36
M  V30 41 1 1 37
M  V30 42 1 3 38
M  V30 43 1 3 39
M  V30 44 1 3 40
M  V30 45 1 4 41
M  V30 46 1 4 42
M  V30 47 1 4 43
M  V30 48 1 8 44
M  V30 49 1 8 45
M  V30 50 1 10 46
M  V30 51 1 11 47
M  V30 52 1 13 48
M  V30 53 1 15 49
M  V30 54 1 15 50
M  V30 55 1 17 51
M  V30 56 1 17 52
M  V30 57 1 18 53
M  V30 58 1 18 54
M  V30 59 1 19 55
M  V30 60 1 19 56
M  V30 61 1 20 57
M  V30 62 1 21 58
M  V30 63 1 23 59
M  V30 64 1 24 60
M  V30 65 1 26 61
M  V30 66 1 28 62
M  V30 67 1 30 63
M  V30 68 1 31 64
M  V30 69 1 31 65
M  V30 70 1 32 66
M  V30 71 1 33 67
M  V30 END BOND
M  V30 END CTAB
M  END
>  <Dataset>  (873) 
ChEMBL_Kinases

>  <Ligand_Instance>  (873) 
nan

>  <PDB_ID>  (873) 
nan

>  <Standardized_SMILES>  (873) 
CC(C)(C)OC(=O)Cn1ccc2cc(CN3CCCC(Nc4ccc5[nH]ncc5c4)C3)ccc21

>  <Name>  (873) 
nan

>  <Pocket>  (873) 
nan

>  <ATP_Site>  (873) 
nan

>  <Peripheral>  (873) 
nan

>  <Num_H_Atoms_ProtBoundConf>  (873) 
nan

>  <Num_Resolved_Atoms>  (873) 
nan

>  <Num_Not_Resolved_Atoms>  (873) 
nan

$$$$
CHEMBL3689449
     RDKit          3D

  0  0  0  0  0  0  0  0  0  0999 V3000
M  V30 BEGIN CTAB
M  V30 COUNTS 59 62 0 0 0
M  V30 BEGIN ATOM
M  V30 1 C -1.345320 -1.680886 4.634040 0
M  V30 2 C -0.013308 -2.252374 4.259258 0
M  V30 3 O -0.169730 -3.492007 4.475993 0
M  V30 4 N 1.200381 -1.646090 3.768751 0
M  V30 5 C 2.091486 -2.753861 3.613698 0
M  V30 6 C 3.422626 -2.278609 3.083996 0
M  V30 7 O 3.348636 -1.694426 1.902244 0
M  V30 8 C 2.953923 -0.775990 1.063859 0
M  V30 9 C 3.501639 -1.104000 -0.196380 0
M  V30 10 C 3.280223 -0.324230 -1.340362 0
M  V30 11 C 2.497818 0.790104 -1.189914 0
M  V30 12 C 1.927180 1.180955 -0.002389 0
M  V30 13 C 1.063292 2.357654 0.269873 0
M  V30 14 N -0.300093 1.950767 0.121402 0
M  V30 15 C -1.232640 2.998482 0.405822 0
M  V30 16 C -2.653167 2.530729 0.207880 0
M  V30 17 C -2.825306 2.134590 -1.233613 0
M  V30 18 C -1.900789 0.993189 -1.519893 0
M  V30 19 N -2.359827 -0.180496 -0.823146 0
M  V30 20 C -1.974521 -1.565495 -0.903524 0
M  V30 21 C -2.507768 -2.565429 -0.089811 0
M  V30 22 C -2.088919 -3.857017 -0.262563 0
M  V30 23 C -1.165498 -4.251701 -1.194238 0
M  V30 24 N -0.644019 -5.459588 -1.498864 0
M  V30 25 N 0.222588 -5.272267 -2.498647 0
M  V30 26 C 0.250984 -3.965285 -2.823955 0
M  V30 27 C -0.624071 -3.272366 -2.012789 0
M  V30 28 C -1.044973 -1.970015 -1.840548 0
M  V30 29 C -0.477296 1.303146 -1.136780 0
M  V30 30 C 2.191358 0.367620 1.065009 0
M  V30 31 H -1.330286 -0.568382 4.446681 0
M  V30 32 H -2.150950 -2.089255 3.995569 0
M  V30 33 H -1.496468 -1.810452 5.716440 0
M  V30 34 H 0.900045 -0.650681 3.743596 0
M  V30 35 H 2.230550 -3.328161 4.557947 0
M  V30 36 H 1.687942 -3.447372 2.819465 0
M  V30 37 H 4.073470 -3.226524 3.053258 0
M  V30 38 H 3.875433 -1.664156 3.922313 0
M  V30 39 H 4.146140 -1.956090 -0.488492 0
M  V30 40 H 3.655308 -0.499814 -2.328787 0
M  V30 41 H 2.290922 1.437506 -2.028787 0
M  V30 42 H 1.322043 3.166128 -0.456203 0
M  V30 43 H 1.274126 2.773170 1.289651 0
M  V30 44 H -1.088539 3.931465 -0.159508 0
M  V30 45 H -1.123131 3.253034 1.481879 0
M  V30 46 H -2.815944 1.679099 0.879462 0
M  V30 47 H -3.346479 3.362674 0.440885 0
M  V30 48 H -2.645267 3.010476 -1.892356 0
M  V30 49 H -3.866524 1.771308 -1.423778 0
M  V30 50 H -1.911558 0.845154 -2.630067 0
M  V30 51 H -3.123236 -0.056145 -0.108874 0
M  V30 52 H -3.237788 -2.272901 0.651092 0
M  V30 53 H -2.559419 -4.567362 0.416831 0
M  V30 54 H -0.877052 -6.366356 -1.037420 0
M  V30 55 H 0.853999 -3.492123 -3.596739 0
M  V30 56 H -0.552010 -1.319699 -2.551689 0
M  V30 57 H 0.077372 0.351924 -1.076835 0
M  V30 58 H -0.030514 1.894844 -1.960290 0
M  V30 59 H 1.811793 0.578650 2.029896 0
M  V30 END ATOM
M  V30 BEGIN BOND
M  V30 1 1 1 2
M  V30 2 2 2 3
M  V30 3 1 2 4
M  V30 4 1 4 5
M  V30 5 1 5 6
M  V30 6 1 6 7
M  V30 7 1 7 8
M  V30 8 2 8 9
M  V30 9 1 9 10
M  V30 10 2 10 11
M  V30 11 1 11 12
M  V30 12 1 12 13
M  V30 13 1 13 14
M  V30 14 1 14 15
M  V30 15 1 15 16
M  V30 16 1 16 17
M  V30 17 1 17 18
M  V30 18 1 18 19
M  V30 19 1 19 20
M  V30 20 2 20 21
M  V30 21 1 21 22
M  V30 22 2 22 23
M  V30 23 1 23 24
M  V30 24 1 24 25
M  V30 25 2 25 26
M  V30 26 1 26 27
M  V30 27 2 27 28
M  V30 28 1 18 29
M  V30 29 2 12 30
M  V30 30 1 30 8
M  V30 31 1 29 14
M  V30 32 1 28 20
M  V30 33 1 27 23
M  V30 34 1 1 31
M  V30 35 1 1 32
M  V30 36 1 1 33
M  V30 37 1 4 34
M  V30 38 1 5 35
M  V30 39 1 5 36
M  V30 40 1 6 37
M  V30 41 1 6 38
M  V30 42 1 9 39
M  V30 43 1 10 40
M  V30 44 1 11 41
M  V30 45 1 13 42
M  V30 46 1 13 43
M  V30 47 1 15 44
M  V30 48 1 15 45
M  V30 49 1 16 46
M  V30 50 1 16 47
M  V30 51 1 17 48
M  V30 52 1 17 49
M  V30 53 1 18 50
M  V30 54 1 19 51
M  V30 55 1 21 52
M  V30 56 1 22 53
M  V30 57 1 24 54
M  V30 58 1 26 55
M  V30 59 1 28 56
M  V30 60 1 29 57
M  V30 61 1 29 58
M  V30 62 1 30 59
M  V30 END BOND
M  V30 END CTAB
M  END
>  <Dataset>  (874) 
ChEMBL_Kinases

>  <Ligand_Instance>  (874) 
nan

>  <PDB_ID>  (874) 
nan

>  <Standardized_SMILES>  (874) 
CC(=O)NCCOc1cccc(CN2CCCC(Nc3ccc4[nH]ncc4c3)C2)c1

>  <Name>  (874) 
nan

>  <Pocket>  (874) 
nan

>  <ATP_Site>  (874) 
nan

>  <Peripheral>  (874) 
nan

>  <Num_H_Atoms_ProtBoundConf>  (874) 
nan

>  <Num_Resolved_Atoms>  (874) 
nan

>  <Num_Not_Resolved_Atoms>  (874) 
nan

$$$$
CHEMBL3689448
     RDKit          3D

  0  0  0  0  0  0  0  0  0  0999 V3000
M  V30 BEGIN CTAB
M  V30 COUNTS 56 60 0 0 0
M  V30 BEGIN ATOM
M  V30 1 O 0.339536 -2.554218 2.404879 0
M  V30 2 C 0.872896 -3.841862 2.546866 0
M  V30 3 C 1.928818 -4.058606 1.480726 0
M  V30 4 N 2.965349 -3.043067 1.679136 0
M  V30 5 C 4.052411 -3.204761 2.464420 0
M  V30 6 C 4.825752 -2.047794 2.424561 0
M  V30 7 C 4.178655 -1.168777 1.588786 0
M  V30 8 C 4.435361 0.130449 1.144900 0
M  V30 9 C 3.573505 0.761642 0.285640 0
M  V30 10 C 2.428343 0.168651 -0.182280 0
M  V30 11 C 1.427256 0.756361 -1.108277 0
M  V30 12 N 0.373710 1.438000 -0.409907 0
M  V30 13 C 0.786467 2.524089 0.419899 0
M  V30 14 C -0.372642 2.875535 1.342937 0
M  V30 15 C -1.524086 1.880202 1.140782 0
M  V30 16 C -1.946656 2.010323 -0.303736 0 CFG=2
M  V30 17 N -3.097763 1.218167 -0.641235 0
M  V30 18 C -3.259057 -0.179893 -0.684426 0
M  V30 19 C -2.278264 -1.107770 -0.423631 0
M  V30 20 C -2.441283 -2.472910 -0.457870 0
M  V30 21 C -3.699852 -2.934103 -0.782981 0
M  V30 22 N -4.209722 -4.171231 -0.908444 0
M  V30 23 N -5.504109 -4.105389 -1.246128 0
M  V30 24 C -5.861475 -2.809922 -1.346994 0
M  V30 25 C -4.734525 -2.066778 -1.057774 0
M  V30 26 C -4.485927 -0.719102 -1.000977 0
M  V30 27 C -0.767475 1.719566 -1.220790 0
M  V30 28 C 2.214831 -1.128310 0.288629 0
M  V30 29 C 3.046221 -1.811815 1.152555 0
M  V30 30 H 0.652218 -1.935863 3.106475 0
M  V30 31 H 1.336943 -3.870426 3.542907 0
M  V30 32 H 0.092227 -4.619533 2.510197 0
M  V30 33 H 2.329494 -5.077374 1.537508 0
M  V30 34 H 1.470885 -3.926349 0.488510 0
M  V30 35 H 4.309432 -4.091532 3.049365 0
M  V30 36 H 5.751609 -1.836272 2.929077 0
M  V30 37 H 5.330771 0.621063 1.498188 0
M  V30 38 H 3.763833 1.772965 -0.068705 0
M  V30 39 H 1.942273 1.401826 -1.847545 0
M  V30 40 H 0.967095 -0.077512 -1.670694 0
M  V30 41 H 1.055571 3.451938 -0.127452 0
M  V30 42 H 1.679696 2.208204 1.014894 0
M  V30 43 H -0.002135 2.822957 2.380442 0
M  V30 44 H -0.742179 3.915128 1.175572 0
M  V30 45 H -2.354780 2.295130 1.754417 0
M  V30 46 H -1.203677 0.892437 1.443902 0
M  V30 47 H -2.150650 3.110933 -0.445410 0
M  V30 48 H -3.955936 1.795763 -0.896477 0
M  V30 49 H -1.296375 -0.788044 -0.177578 0
M  V30 50 H -1.648229 -3.162388 -0.247088 0
M  V30 51 H -3.617184 -5.027953 -0.748926 0
M  V30 52 H -6.839142 -2.439479 -1.603972 0
M  V30 53 H -5.328098 -0.076327 -1.224284 0
M  V30 54 H -0.953979 0.851301 -1.886205 0
M  V30 55 H -0.559342 2.571693 -1.905921 0
M  V30 56 H 1.326890 -1.644828 -0.047622 0
M  V30 END ATOM
M  V30 BEGIN BOND
M  V30 1 1 1 2
M  V30 2 1 2 3
M  V30 3 1 3 4
M  V30 4 1 4 5
M  V30 5 2 5 6
M  V30 6 1 6 7
M  V30 7 2 7 8
M  V30 8 1 8 9
M  V30 9 2 9 10
M  V30 10 1 10 11
M  V30 11 1 11 12
M  V30 12 1 12 13
M  V30 13 1 13 14
M  V30 14 1 14 15
M  V30 15 1 15 16
M  V30 16 1 16 17
M  V30 17 1 17 18
M  V30 18 2 18 19
M  V30 19 1 19 20
M  V30 20 2 20 21
M  V30 21 1 21 22
M  V30 22 1 22 23
M  V30 23 2 23 24
M  V30 24 1 24 25
M  V30 25 2 25 26
M  V30 26 1 16 27
M  V30 27 1 10 28
M  V30 28 2 28 29
M  V30 29 1 29 4
M  V30 30 1 29 7
M  V30 31 1 27 12
M  V30 32 1 26 18
M  V30 33 1 25 21
M  V30 34 1 1 30
M  V30 35 1 2 31
M  V30 36 1 2 32
M  V30 37 1 3 33
M  V30 38 1 3 34
M  V30 39 1 5 35
M  V30 40 1 6 36
M  V30 41 1 8 37
M  V30 42 1 9 38
M  V30 43 1 11 39
M  V30 44 1 11 40
M  V30 45 1 13 41
M  V30 46 1 13 42
M  V30 47 1 14 43
M  V30 48 1 14 44
M  V30 49 1 15 45
M  V30 50 1 15 46
M  V30 51 1 16 47 CFG=1
M  V30 52 1 17 48
M  V30 53 1 19 49
M  V30 54 1 20 50
M  V30 55 1 22 51
M  V30 56 1 24 52
M  V30 57 1 26 53
M  V30 58 1 27 54
M  V30 59 1 27 55
M  V30 60 1 28 56
M  V30 END BOND
M  V30 END CTAB
M  END
>  <Dataset>  (875) 
ChEMBL_Kinases

>  <Ligand_Instance>  (875) 
nan

>  <PDB_ID>  (875) 
nan

>  <Standardized_SMILES>  (875) 
OCCn1ccc2ccc(CN3CCC[C@H](Nc4ccc5[nH]ncc5c4)C3)cc21

>  <Name>  (875) 
nan

>  <Pocket>  (875) 
nan

>  <ATP_Site>  (875) 
nan

>  <Peripheral>  (875) 
nan

>  <Num_H_Atoms_ProtBoundConf>  (875) 
nan

>  <Num_Resolved_Atoms>  (875) 
nan

>  <Num_Not_Resolved_Atoms>  (875) 
nan

$$$$
CHEMBL3689447
     RDKit          3D

  0  0  0  0  0  0  0  0  0  0999 V3000
M  V30 BEGIN CTAB
M  V30 COUNTS 56 60 0 0 0
M  V30 BEGIN ATOM
M  V30 1 O 2.987763 -3.000642 5.347554 0
M  V30 2 C 3.661989 -2.082192 4.542404 0
M  V30 3 C 4.245336 -2.683756 3.300128 0
M  V30 4 N 4.942782 -1.763612 2.448026 0
M  V30 5 C 6.234011 -1.405591 2.444219 0
M  V30 6 C 6.487240 -0.482053 1.445153 0
M  V30 7 C 5.277119 -0.273777 0.812550 0
M  V30 8 C 4.886077 0.524016 -0.246853 0
M  V30 9 C 3.566720 0.505880 -0.649826 0
M  V30 10 C 2.577156 -0.280654 -0.047365 0
M  V30 11 C 1.215555 -0.206779 -0.576331 0
M  V30 12 N 0.403387 0.806714 0.009277 0
M  V30 13 C 0.179230 0.721431 1.412005 0
M  V30 14 C -1.229173 1.122276 1.803865 0
M  V30 15 C -2.262312 0.323660 1.035141 0
M  V30 16 C -1.881816 0.235813 -0.400965 0 CFG=1
M  V30 17 N -2.972680 0.320460 -1.334653 0
M  V30 18 C -4.071563 -0.552684 -1.508862 0
M  V30 19 C -4.290004 -1.702062 -0.784646 0
M  V30 20 C -5.353884 -2.563785 -0.934494 0
M  V30 21 C -6.286852 -2.226571 -1.914608 0
M  V30 22 N -7.422132 -2.815453 -2.331177 0
M  V30 23 N -7.953597 -2.086126 -3.307195 0
M  V30 24 C -7.186491 -1.004121 -3.557250 0
M  V30 25 C -6.120553 -1.085807 -2.672838 0
M  V30 26 C -5.028066 -0.274485 -2.461714 0
M  V30 27 C -0.759080 1.184181 -0.746101 0
M  V30 28 C 3.035598 -1.051304 1.001656 0
M  V30 29 C 4.341406 -1.069398 1.442659 0
M  V30 30 H 2.044057 -3.110094 5.026031 0
M  V30 31 H 4.518078 -1.718555 5.184418 0
M  V30 32 H 3.011875 -1.230621 4.375773 0
M  V30 33 H 4.928808 -3.519792 3.553716 0
M  V30 34 H 3.395630 -3.165093 2.734563 0
M  V30 35 H 6.952111 -1.800231 3.136355 0
M  V30 36 H 7.428960 -0.016306 1.203496 0
M  V30 37 H 5.610893 1.156546 -0.753629 0
M  V30 38 H 3.310556 1.156053 -1.493135 0
M  V30 39 H 1.284282 0.036024 -1.672678 0
M  V30 40 H 0.703676 -1.214301 -0.577070 0
M  V30 41 H 0.378447 -0.294949 1.805105 0
M  V30 42 H 0.870218 1.415842 1.936013 0
M  V30 43 H -1.347890 0.881392 2.880305 0
M  V30 44 H -1.358020 2.200384 1.682142 0
M  V30 45 H -3.265099 0.824971 1.182467 0
M  V30 46 H -2.314560 -0.693742 1.471780 0
M  V30 47 H -1.440362 -0.793748 -0.574715 0
M  V30 48 H -2.925133 1.164310 -1.970192 0
M  V30 49 H -3.594253 -1.992111 -0.028915 0
M  V30 50 H -5.472559 -3.455099 -0.334355 0
M  V30 51 H -7.748401 -3.708445 -1.888989 0
M  V30 52 H -7.368544 -0.226572 -4.301032 0
M  V30 53 H -4.944624 0.594746 -3.072103 0
M  V30 54 H -0.511412 1.000076 -1.829283 0
M  V30 55 H -1.047412 2.243843 -0.613916 0
M  V30 56 H 2.301015 -1.673971 1.490938 0
M  V30 END ATOM
M  V30 BEGIN BOND
M  V30 1 1 1 2
M  V30 2 1 2 3
M  V30 3 1 3 4
M  V30 4 1 4 5
M  V30 5 2 5 6
M  V30 6 1 6 7
M  V30 7 2 7 8
M  V30 8 1 8 9
M  V30 9 2 9 10
M  V30 10 1 10 11
M  V30 11 1 11 12
M  V30 12 1 12 13
M  V30 13 1 13 14
M  V30 14 1 14 15
M  V30 15 1 15 16
M  V30 16 1 16 17
M  V30 17 1 17 18
M  V30 18 2 18 19
M  V30 19 1 19 20
M  V30 20 2 20 21
M  V30 21 1 21 22
M  V30 22 1 22 23
M  V30 23 2 23 24
M  V30 24 1 24 25
M  V30 25 2 25 26
M  V30 26 1 16 27
M  V30 27 1 10 28
M  V30 28 2 28 29
M  V30 29 1 29 4
M  V30 30 1 29 7
M  V30 31 1 27 12
M  V30 32 1 26 18
M  V30 33 1 25 21
M  V30 34 1 1 30
M  V30 35 1 2 31
M  V30 36 1 2 32
M  V30 37 1 3 33
M  V30 38 1 3 34
M  V30 39 1 5 35
M  V30 40 1 6 36
M  V30 41 1 8 37
M  V30 42 1 9 38
M  V30 43 1 11 39
M  V30 44 1 11 40
M  V30 45 1 13 41
M  V30 46 1 13 42
M  V30 47 1 14 43
M  V30 48 1 14 44
M  V30 49 1 15 45
M  V30 50 1 15 46
M  V30 51 1 16 47 CFG=1
M  V30 52 1 17 48
M  V30 53 1 19 49
M  V30 54 1 20 50
M  V30 55 1 22 51
M  V30 56 1 24 52
M  V30 57 1 26 53
M  V30 58 1 27 54
M  V30 59 1 27 55
M  V30 60 1 28 56
M  V30 END BOND
M  V30 END CTAB
M  END
>  <Dataset>  (876) 
ChEMBL_Kinases

>  <Ligand_Instance>  (876) 
nan

>  <PDB_ID>  (876) 
nan

>  <Standardized_SMILES>  (876) 
OCCn1ccc2ccc(CN3CCC[C@@H](Nc4ccc5[nH]ncc5c4)C3)cc21

>  <Name>  (876) 
nan

>  <Pocket>  (876) 
nan

>  <ATP_Site>  (876) 
nan

>  <Peripheral>  (876) 
nan

>  <Num_H_Atoms_ProtBoundConf>  (876) 
nan

>  <Num_Resolved_Atoms>  (876) 
nan

>  <Num_Not_Resolved_Atoms>  (876) 
nan

$$$$
CHEMBL3689446
     RDKit          3D

  0  0  0  0  0  0  0  0  0  0999 V3000
M  V30 BEGIN CTAB
M  V30 COUNTS 56 60 0 0 0
M  V30 BEGIN ATOM
M  V30 1 N 0.415425 -2.198508 3.215221 0
M  V30 2 C 1.604230 -2.731573 3.774613 0
M  V30 3 O 1.539705 -2.873344 5.027919 0
M  V30 4 C 2.762236 -3.064626 2.920034 0
M  V30 5 N 3.611179 -1.882655 2.824966 0
M  V30 6 C 4.614205 -1.565976 3.631047 0
M  V30 7 C 5.196833 -0.364608 3.230937 0
M  V30 8 C 4.480128 0.032169 2.123366 0
M  V30 9 C 4.550936 1.118652 1.272713 0
M  V30 10 C 3.661011 1.252188 0.204460 0
M  V30 11 C 2.688767 0.336783 -0.057195 0
M  V30 12 C 1.689028 0.348986 -1.126097 0
M  V30 13 N 0.463647 0.959819 -0.754324 0
M  V30 14 C 0.460229 2.294386 -0.355185 0
M  V30 15 C -0.597054 2.736681 0.596385 0
M  V30 16 C -1.777023 1.854879 0.760952 0
M  V30 17 C -1.891207 0.814964 -0.347352 0 CFG=2
M  V30 18 N -2.961553 -0.087472 -0.057196 0
M  V30 19 C -3.450299 -1.110248 -0.904526 0
M  V30 20 C -2.967039 -1.358094 -2.170530 0
M  V30 21 C -3.424381 -2.357682 -3.008360 0
M  V30 22 C -4.440389 -3.175859 -2.557243 0
M  V30 23 N -5.106539 -4.217876 -3.095567 0
M  V30 24 N -6.017127 -4.675136 -2.235836 0
M  V30 25 C -5.956225 -3.927559 -1.110511 0
M  V30 26 C -4.962099 -2.972847 -1.297903 0
M  V30 27 C -4.460908 -1.959540 -0.514436 0
M  V30 28 C -0.544450 0.098257 -0.270311 0
M  V30 29 C 2.643014 -0.752605 0.822295 0
M  V30 30 C 3.501637 -0.922372 1.887854 0
M  V30 31 H -0.185717 -1.358302 3.229976 0
M  V30 32 H 0.033708 -2.913649 2.572811 0
M  V30 33 H 3.327135 -3.934261 3.297408 0
M  V30 34 H 2.355740 -3.349993 1.921135 0
M  V30 35 H 4.948990 -2.135072 4.476735 0
M  V30 36 H 6.015243 0.156011 3.665129 0
M  V30 37 H 5.299342 1.884905 1.421388 0
M  V30 38 H 3.720403 2.095677 -0.458719 0
M  V30 39 H 1.522935 -0.702111 -1.460453 0
M  V30 40 H 2.175495 0.858700 -2.003494 0
M  V30 41 H 1.450605 2.584913 0.050718 0
M  V30 42 H 0.333585 2.925083 -1.278183 0
M  V30 43 H -0.147671 2.874333 1.624058 0
M  V30 44 H -0.971075 3.769856 0.354415 0
M  V30 45 H -1.749080 1.288753 1.732732 0
M  V30 46 H -2.731128 2.415417 0.753450 0
M  V30 47 H -1.958159 1.330785 -1.310377 0
M  V30 48 H -3.447596 0.002346 0.876804 0
M  V30 49 H -2.189743 -0.764719 -2.590266 0
M  V30 50 H -3.036464 -2.539094 -3.995576 0
M  V30 51 H -4.901309 -4.584034 -4.065175 0
M  V30 52 H -6.551104 -4.032311 -0.227478 0
M  V30 53 H -4.919156 -1.864591 0.454697 0
M  V30 54 H -0.383714 -0.118642 0.806939 0
M  V30 55 H -0.612870 -0.813753 -0.844291 0
M  V30 56 H 1.899194 -1.531294 0.688272 0
M  V30 END ATOM
M  V30 BEGIN BOND
M  V30 1 1 1 2
M  V30 2 2 2 3
M  V30 3 1 2 4
M  V30 4 1 4 5
M  V30 5 1 5 6
M  V30 6 2 6 7
M  V30 7 1 7 8
M  V30 8 2 8 9
M  V30 9 1 9 10
M  V30 10 2 10 11
M  V30 11 1 11 12
M  V30 12 1 12 13
M  V30 13 1 13 14
M  V30 14 1 14 15
M  V30 15 1 15 16
M  V30 16 1 16 17
M  V30 17 1 17 18
M  V30 18 1 18 19
M  V30 19 2 19 20
M  V30 20 1 20 21
M  V30 21 2 21 22
M  V30 22 1 22 23
M  V30 23 1 23 24
M  V30 24 2 24 25
M  V30 25 1 25 26
M  V30 26 2 26 27
M  V30 27 1 17 28
M  V30 28 1 11 29
M  V30 29 2 29 30
M  V30 30 1 30 5
M  V30 31 1 30 8
M  V30 32 1 28 13
M  V30 33 1 27 19
M  V30 34 1 26 22
M  V30 35 1 1 31
M  V30 36 1 1 32
M  V30 37 1 4 33
M  V30 38 1 4 34
M  V30 39 1 6 35
M  V30 40 1 7 36
M  V30 41 1 9 37
M  V30 42 1 10 38
M  V30 43 1 12 39
M  V30 44 1 12 40
M  V30 45 1 14 41
M  V30 46 1 14 42
M  V30 47 1 15 43
M  V30 48 1 15 44
M  V30 49 1 16 45
M  V30 50 1 16 46
M  V30 51 1 17 47 CFG=3
M  V30 52 1 18 48
M  V30 53 1 20 49
M  V30 54 1 21 50
M  V30 55 1 23 51
M  V30 56 1 25 52
M  V30 57 1 27 53
M  V30 58 1 28 54
M  V30 59 1 28 55
M  V30 60 1 29 56
M  V30 END BOND
M  V30 END CTAB
M  END
>  <Dataset>  (877) 
ChEMBL_Kinases

>  <Ligand_Instance>  (877) 
nan

>  <PDB_ID>  (877) 
nan

>  <Standardized_SMILES>  (877) 
NC(=O)Cn1ccc2ccc(CN3CCC[C@H](Nc4ccc5[nH]ncc5c4)C3)cc21

>  <Name>  (877) 
nan

>  <Pocket>  (877) 
nan

>  <ATP_Site>  (877) 
nan

>  <Peripheral>  (877) 
nan

>  <Num_H_Atoms_ProtBoundConf>  (877) 
nan

>  <Num_Resolved_Atoms>  (877) 
nan

>  <Num_Not_Resolved_Atoms>  (877) 
nan

$$$$
CHEMBL3689428
     RDKit          3D

  0  0  0  0  0  0  0  0  0  0999 V3000
M  V30 BEGIN CTAB
M  V30 COUNTS 50 53 0 0 0
M  V30 BEGIN ATOM
M  V30 1 O 2.532615 -6.998236 -1.253228 0
M  V30 2 C 1.201960 -6.722455 -0.941762 0
M  V30 3 C 0.757505 -5.389654 -1.522004 0
M  V30 4 O 1.539733 -4.327024 -1.019895 0
M  V30 5 C 1.232477 -3.041737 -1.476408 0
M  V30 6 C 0.185945 -2.890747 -2.387674 0
M  V30 7 C -0.127915 -1.628198 -2.846331 0
M  V30 8 C 0.636014 -0.586240 -2.356447 0
M  V30 9 C 1.693404 -0.693881 -1.442421 0
M  V30 10 C 2.390031 0.557694 -1.050801 0
M  V30 11 N 1.714261 1.140040 0.057002 0
M  V30 12 C 2.269197 2.389496 0.532734 0
M  V30 13 C 1.727123 2.579774 1.925192 0
M  V30 14 C 1.530644 1.181354 2.430335 0
M  V30 15 N 0.371296 1.037554 3.259981 0
M  V30 16 C -0.986535 1.249807 2.959333 0
M  V30 17 C -1.477997 1.653837 1.737289 0
M  V30 18 C -2.802876 1.867197 1.427961 0
M  V30 19 C -3.741739 1.664110 2.416039 0
M  V30 20 N -5.077248 1.773047 2.465834 0
M  V30 21 N -5.490809 1.452909 3.687106 0
M  V30 22 C -4.444731 1.129870 4.458130 0
M  V30 23 C -3.322534 1.260485 3.659285 0
M  V30 24 C -1.983028 1.068829 3.890138 0
M  V30 25 C 1.485973 0.322224 1.193183 0
M  V30 26 C 1.957222 -1.980570 -1.022848 0
M  V30 27 H 3.063251 -7.005689 -0.421698 0
M  V30 28 H 1.031783 -6.692526 0.155787 0
M  V30 29 H 0.578145 -7.539859 -1.352490 0
M  V30 30 H -0.319978 -5.283955 -1.347558 0
M  V30 31 H 0.916554 -5.448674 -2.625581 0
M  V30 32 H -0.386566 -3.729815 -2.745835 0
M  V30 33 H -0.912404 -1.448124 -3.539714 0
M  V30 34 H 0.375478 0.408890 -2.729122 0
M  V30 35 H 3.465353 0.351727 -0.866592 0
M  V30 36 H 2.298964 1.283663 -1.901606 0
M  V30 37 H 3.363784 2.433620 0.471519 0
M  V30 38 H 1.779229 3.187284 -0.096824 0
M  V30 39 H 0.802095 3.184567 1.958935 0
M  V30 40 H 2.498247 3.070606 2.579150 0
M  V30 41 H 2.422187 0.871518 3.060508 0
M  V30 42 H 0.527868 0.722037 4.268488 0
M  V30 43 H -0.824495 1.833230 0.914963 0
M  V30 44 H -3.154260 2.182058 0.465812 0
M  V30 45 H -5.656370 2.064844 1.654063 0
M  V30 46 H -4.468209 0.832056 5.480343 0
M  V30 47 H -1.726632 0.745549 4.910923 0
M  V30 48 H 0.471630 -0.151196 1.100484 0
M  V30 49 H 2.231036 -0.488549 1.329887 0
M  V30 50 H 2.754844 -2.094187 -0.334303 0
M  V30 END ATOM
M  V30 BEGIN BOND
M  V30 1 1 1 2
M  V30 2 1 2 3
M  V30 3 1 3 4
M  V30 4 1 4 5
M  V30 5 2 5 6
M  V30 6 1 6 7
M  V30 7 2 7 8
M  V30 8 1 8 9
M  V30 9 1 9 10
M  V30 10 1 10 11
M  V30 11 1 11 12
M  V30 12 1 12 13
M  V30 13 1 13 14
M  V30 14 1 14 15
M  V30 15 1 15 16
M  V30 16 2 16 17
M  V30 17 1 17 18
M  V30 18 2 18 19
M  V30 19 1 19 20
M  V30 20 1 20 21
M  V30 21 2 21 22
M  V30 22 1 22 23
M  V30 23 2 23 24
M  V30 24 1 14 25
M  V30 25 2 9 26
M  V30 26 1 26 5
M  V30 27 1 25 11
M  V30 28 1 24 16
M  V30 29 1 23 19
M  V30 30 1 1 27
M  V30 31 1 2 28
M  V30 32 1 2 29
M  V30 33 1 3 30
M  V30 34 1 3 31
M  V30 35 1 6 32
M  V30 36 1 7 33
M  V30 37 1 8 34
M  V30 38 1 10 35
M  V30 39 1 10 36
M  V30 40 1 12 37
M  V30 41 1 12 38
M  V30 42 1 13 39
M  V30 43 1 13 40
M  V30 44 1 14 41
M  V30 45 1 15 42
M  V30 46 1 17 43
M  V30 47 1 18 44
M  V30 48 1 20 45
M  V30 49 1 22 46
M  V30 50 1 24 47
M  V30 51 1 25 48
M  V30 52 1 25 49
M  V30 53 1 26 50
M  V30 END BOND
M  V30 END CTAB
M  END
>  <Dataset>  (878) 
ChEMBL_Kinases

>  <Ligand_Instance>  (878) 
nan

>  <PDB_ID>  (878) 
nan

>  <Standardized_SMILES>  (878) 
OCCOc1cccc(CN2CCC(Nc3ccc4[nH]ncc4c3)C2)c1

>  <Name>  (878) 
nan

>  <Pocket>  (878) 
nan

>  <ATP_Site>  (878) 
nan

>  <Peripheral>  (878) 
nan

>  <Num_H_Atoms_ProtBoundConf>  (878) 
nan

>  <Num_Resolved_Atoms>  (878) 
nan

>  <Num_Not_Resolved_Atoms>  (878) 
nan

$$$$
CHEMBL3689429
     RDKit          3D

  0  0  0  0  0  0  0  0  0  0999 V3000
M  V30 BEGIN CTAB
M  V30 COUNTS 47 50 0 0 0
M  V30 BEGIN ATOM
M  V30 1 N -0.803591 -5.943073 0.610652 0
M  V30 2 C -1.692944 -4.862863 0.925935 0
M  V30 3 C -1.127057 -3.603685 1.095490 0
M  V30 4 C -1.920972 -2.494545 1.404514 0
M  V30 5 C -1.194138 -1.206514 1.559563 0
M  V30 6 N -1.076494 -0.476267 0.343454 0
M  V30 7 C -0.405590 -1.084677 -0.717624 0
M  V30 8 C -0.356161 -0.209890 -1.922276 0
M  V30 9 C 0.277160 1.122706 -1.599059 0
M  V30 10 C -0.493979 1.795290 -0.506587 0
M  V30 11 N 0.268069 2.797757 0.225584 0
M  V30 12 C 1.411561 2.561771 1.027182 0
M  V30 13 C 2.110843 3.582176 1.685356 0
M  V30 14 C 3.216349 3.349382 2.470617 0
M  V30 15 C 3.700480 2.093090 2.654893 0
M  V30 16 N 4.734350 1.592488 3.349972 0
M  V30 17 N 4.768537 0.272057 3.192708 0
M  V30 18 C 3.758919 -0.078030 2.397953 0
M  V30 19 C 3.056827 1.065672 2.037038 0
M  V30 20 C 1.950184 1.312419 1.252996 0
M  V30 21 C -1.258072 0.905305 0.410411 0
M  V30 22 C -3.285355 -2.648957 1.543700 0
M  V30 23 C -3.857354 -3.905024 1.375502 0
M  V30 24 C -3.038385 -4.959152 1.073848 0
M  V30 25 Cl -3.748086 -6.562793 0.856626 0
M  V30 26 H -0.720681 -6.407736 -0.339843 0
M  V30 27 H -0.251828 -6.199010 1.463380 0
M  V30 28 H -0.043381 -3.498331 0.981688 0
M  V30 29 H -1.743831 -0.528443 2.275503 0
M  V30 30 H -0.247161 -1.426190 2.087254 0
M  V30 31 H 0.633355 -1.398929 -0.494672 0
M  V30 32 H -0.946629 -2.017104 -1.036815 0
M  V30 33 H 0.275860 -0.665087 -2.726710 0
M  V30 34 H -1.347242 -0.023479 -2.395275 0
M  V30 35 H 0.188289 1.699474 -2.575863 0
M  V30 36 H 1.367037 1.068936 -1.452119 0
M  V30 37 H -1.289342 2.386524 -1.056258 0
M  V30 38 H -0.010683 3.827821 0.196609 0
M  V30 39 H 1.755995 4.616495 1.566071 0
M  V30 40 H 3.685085 4.201562 2.935031 0
M  V30 41 H 5.418672 2.099055 3.925869 0
M  V30 42 H 3.486213 -1.087426 2.056808 0
M  V30 43 H 1.515140 0.444848 0.818665 0
M  V30 44 H -2.374014 1.092868 0.405224 0
M  V30 45 H -0.984751 1.210667 1.466390 0
M  V30 46 H -3.843975 -1.751895 1.783307 0
M  V30 47 H -4.927146 -4.003533 1.488905 0
M  V30 END ATOM
M  V30 BEGIN BOND
M  V30 1 1 1 2
M  V30 2 2 2 3
M  V30 3 1 3 4
M  V30 4 1 4 5
M  V30 5 1 5 6
M  V30 6 1 6 7
M  V30 7 1 7 8
M  V30 8 1 8 9
M  V30 9 1 9 10
M  V30 10 1 10 11
M  V30 11 1 11 12
M  V30 12 2 12 13
M  V30 13 1 13 14
M  V30 14 2 14 15
M  V30 15 1 15 16
M  V30 16 1 16 17
M  V30 17 2 17 18
M  V30 18 1 18 19
M  V30 19 2 19 20
M  V30 20 1 10 21
M  V30 21 2 4 22
M  V30 22 1 22 23
M  V30 23 2 23 24
M  V30 24 1 24 25
M  V30 25 1 24 2
M  V30 26 1 21 6
M  V30 27 1 20 12
M  V30 28 1 19 15
M  V30 29 1 1 26
M  V30 30 1 1 27
M  V30 31 1 3 28
M  V30 32 1 5 29
M  V30 33 1 5 30
M  V30 34 1 7 31
M  V30 35 1 7 32
M  V30 36 1 8 33
M  V30 37 1 8 34
M  V30 38 1 9 35
M  V30 39 1 9 36
M  V30 40 1 10 37
M  V30 41 1 11 38
M  V30 42 1 13 39
M  V30 43 1 14 40
M  V30 44 1 16 41
M  V30 45 1 18 42
M  V30 46 1 20 43
M  V30 47 1 21 44
M  V30 48 1 21 45
M  V30 49 1 22 46
M  V30 50 1 23 47
M  V30 END BOND
M  V30 END CTAB
M  END
>  <Dataset>  (879) 
ChEMBL_Kinases

>  <Ligand_Instance>  (879) 
nan

>  <PDB_ID>  (879) 
nan

>  <Standardized_SMILES>  (879) 
Nc1cc(CN2CCCC(Nc3ccc4[nH]ncc4c3)C2)ccc1Cl

>  <Name>  (879) 
nan

>  <Pocket>  (879) 
nan

>  <ATP_Site>  (879) 
nan

>  <Peripheral>  (879) 
nan

>  <Num_H_Atoms_ProtBoundConf>  (879) 
nan

>  <Num_Resolved_Atoms>  (879) 
nan

>  <Num_Not_Resolved_Atoms>  (879) 
nan

$$$$
CHEMBL3689430
     RDKit          3D

  0  0  0  0  0  0  0  0  0  0999 V3000
M  V30 BEGIN CTAB
M  V30 COUNTS 53 56 0 0 0
M  V30 BEGIN ATOM
M  V30 1 O 2.250235 -4.471055 4.344764 0
M  V30 2 C 1.004883 -4.210324 3.766143 0
M  V30 3 C 1.055806 -4.266567 2.266316 0
M  V30 4 O 1.906177 -3.389011 1.642606 0
M  V30 5 C 1.977871 -2.037431 1.608809 0
M  V30 6 C 3.062211 -1.643417 0.809806 0
M  V30 7 C 3.362463 -0.291940 0.606087 0
M  V30 8 C 2.557262 0.640586 1.216678 0
M  V30 9 C 1.474006 0.296115 2.015467 0
M  V30 10 C 0.580478 1.273516 2.692813 0
M  V30 11 N -0.499915 1.557998 1.788826 0
M  V30 12 C -1.411825 2.509233 2.373688 0
M  V30 13 C -2.748581 2.495174 1.672515 0
M  V30 14 C -2.661703 1.863540 0.313494 0
M  V30 15 C -1.358669 2.079724 -0.373504 0 CFG=2
M  V30 16 N -1.233699 1.267371 -1.583357 0
M  V30 17 C -1.173958 -0.125623 -1.697481 0
M  V30 18 C -1.195341 -1.037136 -0.665795 0
M  V30 19 C -1.144329 -2.402001 -0.791074 0
M  V30 20 C -1.064223 -2.951088 -2.033856 0
M  V30 21 N -1.000190 -4.210151 -2.487861 0
M  V30 22 N -0.935693 -4.163693 -3.808040 0
M  V30 23 C -0.955781 -2.900421 -4.235483 0
M  V30 24 C -1.038109 -2.105413 -3.111154 0
M  V30 25 C -1.092105 -0.745657 -2.925444 0
M  V30 26 C -0.126488 1.838603 0.452981 0
M  V30 27 C 1.233660 -1.029546 2.175002 0
M  V30 28 H 2.566645 -3.766198 4.935546 0
M  V30 29 H 0.354253 -5.058461 4.138370 0
M  V30 30 H 0.510124 -3.306434 4.154149 0
M  V30 31 H 0.010057 -3.994137 1.928728 0
M  V30 32 H 1.161251 -5.323348 1.947547 0
M  V30 33 H 3.773145 -2.288173 0.273215 0
M  V30 34 H 4.186220 0.057505 -0.000200 0
M  V30 35 H 2.755963 1.699275 1.084261 0
M  V30 36 H 0.233001 0.804633 3.631272 0
M  V30 37 H 1.172273 2.174298 2.954409 0
M  V30 38 H -0.952988 3.511761 2.282426 0
M  V30 39 H -1.493967 2.282734 3.452984 0
M  V30 40 H -3.165796 3.516810 1.633855 0
M  V30 41 H -3.432185 1.883655 2.289977 0
M  V30 42 H -3.023135 0.827842 0.299498 0
M  V30 43 H -3.424789 2.421856 -0.312507 0
M  V30 44 H -1.294761 3.151935 -0.742021 0
M  V30 45 H -1.179062 1.778812 -2.516478 0
M  V30 46 H -1.250568 -0.692362 0.352029 0
M  V30 47 H -1.164470 -3.072409 0.050502 0
M  V30 48 H -1.000948 -5.089655 -1.895484 0
M  V30 49 H -0.916360 -2.550757 -5.253139 0
M  V30 50 H -1.065646 -0.149014 -3.845729 0
M  V30 51 H 0.535265 2.750527 0.399578 0
M  V30 52 H 0.436403 0.967893 0.031359 0
M  V30 53 H 0.431698 -1.393957 2.760510 0
M  V30 END ATOM
M  V30 BEGIN BOND
M  V30 1 1 1 2
M  V30 2 1 2 3
M  V30 3 1 3 4
M  V30 4 1 4 5
M  V30 5 2 5 6
M  V30 6 1 6 7
M  V30 7 2 7 8
M  V30 8 1 8 9
M  V30 9 1 9 10
M  V30 10 1 10 11
M  V30 11 1 11 12
M  V30 12 1 12 13
M  V30 13 1 13 14
M  V30 14 1 14 15
M  V30 15 1 15 16
M  V30 16 1 16 17
M  V30 17 2 17 18
M  V30 18 1 18 19
M  V30 19 2 19 20
M  V30 20 1 20 21
M  V30 21 1 21 22
M  V30 22 2 22 23
M  V30 23 1 23 24
M  V30 24 2 24 25
M  V30 25 1 15 26
M  V30 26 2 9 27
M  V30 27 1 27 5
M  V30 28 1 26 11
M  V30 29 1 25 17
M  V30 30 1 24 20
M  V30 31 1 1 28
M  V30 32 1 2 29
M  V30 33 1 2 30
M  V30 34 1 3 31
M  V30 35 1 3 32
M  V30 36 1 6 33
M  V30 37 1 7 34
M  V30 38 1 8 35
M  V30 39 1 10 36
M  V30 40 1 10 37
M  V30 41 1 12 38
M  V30 42 1 12 39
M  V30 43 1 13 40
M  V30 44 1 13 41
M  V30 45 1 14 42
M  V30 46 1 14 43
M  V30 47 1 15 44 CFG=3
M  V30 48 1 16 45
M  V30 49 1 18 46
M  V30 50 1 19 47
M  V30 51 1 21 48
M  V30 52 1 23 49
M  V30 53 1 25 50
M  V30 54 1 26 51
M  V30 55 1 26 52
M  V30 56 1 27 53
M  V30 END BOND
M  V30 END CTAB
M  END
>  <Dataset>  (880) 
ChEMBL_Kinases

>  <Ligand_Instance>  (880) 
nan

>  <PDB_ID>  (880) 
nan

>  <Standardized_SMILES>  (880) 
OCCOc1cccc(CN2CCC[C@H](Nc3ccc4[nH]ncc4c3)C2)c1

>  <Name>  (880) 
nan

>  <Pocket>  (880) 
nan

>  <ATP_Site>  (880) 
nan

>  <Peripheral>  (880) 
nan

>  <Num_H_Atoms_ProtBoundConf>  (880) 
nan

>  <Num_Resolved_Atoms>  (880) 
nan

>  <Num_Not_Resolved_Atoms>  (880) 
nan

$$$$
CHEMBL3689431
     RDKit          3D

  0  0  0  0  0  0  0  0  0  0999 V3000
M  V30 BEGIN CTAB
M  V30 COUNTS 53 56 0 0 0
M  V30 BEGIN ATOM
M  V30 1 C -0.096006 -3.450452 4.075462 0
M  V30 2 S 1.323526 -4.514500 3.895347 0
M  V30 3 O 1.001709 -5.761972 3.170290 0
M  V30 4 O 1.775268 -4.892299 5.278409 0
M  V30 5 N 2.563529 -3.569693 3.176919 0
M  V30 6 C 2.333859 -3.024683 1.879439 0
M  V30 7 C 1.786528 -3.776543 0.863132 0
M  V30 8 C 1.582800 -3.204409 -0.377951 0
M  V30 9 C 1.950293 -1.874223 -0.531355 0
M  V30 10 C 2.504540 -1.079962 0.464492 0
M  V30 11 C 2.860833 0.328746 0.195530 0
M  V30 12 N 1.803889 1.249444 0.458459 0
M  V30 13 C 1.358892 1.227140 1.836993 0
M  V30 14 C 0.579580 2.502558 2.075127 0
M  V30 15 C 0.239055 3.185588 0.758169 0
M  V30 16 C -0.340573 2.200763 -0.231088 0 CFG=2
M  V30 17 N -1.627474 1.736808 0.226865 0
M  V30 18 C -2.473796 0.812243 -0.433192 0
M  V30 19 C -3.712817 0.395269 0.055469 0
M  V30 20 C -4.480878 -0.499341 -0.630395 0
M  V30 21 C -4.097145 -1.043079 -1.827627 0
M  V30 22 N -4.667630 -1.925648 -2.676086 0
M  V30 23 N -3.859813 -2.108626 -3.701662 0
M  V30 24 C -2.751303 -1.344522 -3.531012 0
M  V30 25 C -2.882617 -0.657049 -2.341914 0
M  V30 26 C -2.098887 0.261141 -1.633796 0
M  V30 27 C 0.654189 1.074211 -0.389422 0
M  V30 28 C 2.687231 -1.702627 1.688345 0
M  V30 29 H 0.232417 -2.493322 4.506233 0
M  V30 30 H -0.549351 -3.290327 3.071145 0
M  V30 31 H -0.811118 -3.953942 4.746525 0
M  V30 32 H 3.497503 -3.365260 3.643553 0
M  V30 33 H 1.510137 -4.813168 1.015250 0
M  V30 34 H 1.156093 -3.729056 -1.232312 0
M  V30 35 H 1.796921 -1.399149 -1.510503 0
M  V30 36 H 3.282361 0.486642 -0.801166 0
M  V30 37 H 3.688830 0.575725 0.910956 0
M  V30 38 H 0.652136 0.369556 1.917331 0
M  V30 39 H 2.153058 1.091743 2.570505 0
M  V30 40 H -0.369639 2.338347 2.614574 0
M  V30 41 H 1.204644 3.217175 2.655505 0
M  V30 42 H 1.123111 3.671872 0.345994 0
M  V30 43 H -0.521534 3.964565 1.004170 0
M  V30 44 H -0.511346 2.739198 -1.176701 0
M  V30 45 H -2.011769 2.102570 1.146182 0
M  V30 46 H -4.043672 0.813018 1.008192 0
M  V30 47 H -5.447278 -0.790537 -0.196373 0
M  V30 48 H -5.604585 -2.396826 -2.548792 0
M  V30 49 H -1.924897 -1.286128 -4.198473 0
M  V30 50 H -1.178486 0.484062 -2.132237 0
M  V30 51 H 0.203758 0.093299 -0.136230 0
M  V30 52 H 1.024533 1.117723 -1.430152 0
M  V30 53 H 3.117460 -1.106044 2.481478 0
M  V30 END ATOM
M  V30 BEGIN BOND
M  V30 1 1 1 2
M  V30 2 2 2 3
M  V30 3 2 2 4
M  V30 4 1 2 5
M  V30 5 1 5 6
M  V30 6 2 6 7
M  V30 7 1 7 8
M  V30 8 2 8 9
M  V30 9 1 9 10
M  V30 10 1 10 11
M  V30 11 1 11 12
M  V30 12 1 12 13
M  V30 13 1 13 14
M  V30 14 1 14 15
M  V30 15 1 15 16
M  V30 16 1 16 17
M  V30 17 1 17 18
M  V30 18 2 18 19
M  V30 19 1 19 20
M  V30 20 2 20 21
M  V30 21 1 21 22
M  V30 22 1 22 23
M  V30 23 2 23 24
M  V30 24 1 24 25
M  V30 25 2 25 26
M  V30 26 1 16 27
M  V30 27 2 10 28
M  V30 28 1 28 6
M  V30 29 1 27 12
M  V30 30 1 26 18
M  V30 31 1 25 21
M  V30 32 1 1 29
M  V30 33 1 1 30
M  V30 34 1 1 31
M  V30 35 1 5 32
M  V30 36 1 7 33
M  V30 37 1 8 34
M  V30 38 1 9 35
M  V30 39 1 11 36
M  V30 40 1 11 37
M  V30 41 1 13 38
M  V30 42 1 13 39
M  V30 43 1 14 40
M  V30 44 1 14 41
M  V30 45 1 15 42
M  V30 46 1 15 43
M  V30 47 1 16 44 CFG=3
M  V30 48 1 17 45
M  V30 49 1 19 46
M  V30 50 1 20 47
M  V30 51 1 22 48
M  V30 52 1 24 49
M  V30 53 1 26 50
M  V30 54 1 27 51
M  V30 55 1 27 52
M  V30 56 1 28 53
M  V30 END BOND
M  V30 END CTAB
M  END
>  <Dataset>  (881) 
ChEMBL_Kinases

>  <Ligand_Instance>  (881) 
nan

>  <PDB_ID>  (881) 
nan

>  <Standardized_SMILES>  (881) 
CS(=O)(=O)Nc1cccc(CN2CCC[C@H](Nc3ccc4[nH]ncc4c3)C2)c1

>  <Name>  (881) 
nan

>  <Pocket>  (881) 
nan

>  <ATP_Site>  (881) 
nan

>  <Peripheral>  (881) 
nan

>  <Num_H_Atoms_ProtBoundConf>  (881) 
nan

>  <Num_Resolved_Atoms>  (881) 
nan

>  <Num_Not_Resolved_Atoms>  (881) 
nan

$$$$
CHEMBL3689432
     RDKit          3D

  0  0  0  0  0  0  0  0  0  0999 V3000
M  V30 BEGIN CTAB
M  V30 COUNTS 53 56 0 0 0
M  V30 BEGIN ATOM
M  V30 1 O 3.479999 -3.444140 4.752962 0
M  V30 2 C 3.013267 -4.010906 3.556277 0
M  V30 3 C 4.121441 -4.197827 2.572702 0
M  V30 4 O 4.805078 -3.072360 2.172992 0
M  V30 5 C 4.402616 -1.943741 1.530059 0
M  V30 6 C 5.528365 -1.117785 1.386362 0
M  V30 7 C 5.453050 0.133547 0.758406 0
M  V30 8 C 4.241087 0.571798 0.265447 0
M  V30 9 C 3.128736 -0.235651 0.403078 0
M  V30 10 C 1.804836 0.170138 -0.106549 0
M  V30 11 N 1.010494 0.913051 0.781019 0
M  V30 12 C 0.632675 0.352137 2.022850 0
M  V30 13 C -0.836242 0.051316 2.157568 0
M  V30 14 C -1.507392 -0.333128 0.864214 0
M  V30 15 C -1.245155 0.721218 -0.160583 0 CFG=1
M  V30 16 N -2.477014 1.449596 -0.375249 0
M  V30 17 C -3.675915 0.879834 -0.872603 0
M  V30 18 C -4.818734 1.634688 -1.042456 0
M  V30 19 C -5.995300 1.103160 -1.527966 0
M  V30 20 C -6.070633 -0.242158 -1.870315 0
M  V30 21 N -7.073291 -1.009227 -2.358521 0
M  V30 22 N -6.598729 -2.239359 -2.505578 0
M  V30 23 C -5.310035 -2.294366 -2.125114 0
M  V30 24 C -4.950360 -1.037487 -1.716997 0
M  V30 25 C -3.808190 -0.445438 -1.227721 0
M  V30 26 C -0.097157 1.614151 0.190532 0
M  V30 27 C 3.213604 -1.466236 1.022800 0
M  V30 28 H 4.219797 -4.020639 5.079450 0
M  V30 29 H 2.179774 -3.460795 3.131531 0
M  V30 30 H 2.614238 -5.042969 3.795292 0
M  V30 31 H 3.786363 -4.846846 1.711627 0
M  V30 32 H 4.873518 -4.866922 3.094831 0
M  V30 33 H 6.570207 -1.282202 1.706651 0
M  V30 34 H 6.269451 0.822937 0.610044 0
M  V30 35 H 4.069952 1.516490 -0.234644 0
M  V30 36 H 1.991655 0.775550 -1.017631 0
M  V30 37 H 1.295499 -0.754687 -0.497542 0
M  V30 38 H 1.172152 -0.535242 2.365591 0
M  V30 39 H 0.888807 1.137336 2.800394 0
M  V30 40 H -1.008417 -0.729109 2.942510 0
M  V30 41 H -1.378992 0.939873 2.544698 0
M  V30 42 H -2.593819 -0.421235 1.119015 0
M  V30 43 H -1.196377 -1.303815 0.474852 0
M  V30 44 H -0.973594 0.255993 -1.152863 0
M  V30 45 H -2.464998 2.451098 -0.145587 0
M  V30 46 H -4.814454 2.702382 -0.787602 0
M  V30 47 H -6.868848 1.728389 -1.646457 0
M  V30 48 H -8.046278 -0.714028 -2.585515 0
M  V30 49 H -4.612392 -3.133659 -2.111208 0
M  V30 50 H -2.965887 -1.115756 -1.132637 0
M  V30 51 H -0.464711 2.346301 0.949523 0
M  V30 52 H 0.249748 2.215076 -0.674529 0
M  V30 53 H 2.422570 -2.182328 1.180195 0
M  V30 END ATOM
M  V30 BEGIN BOND
M  V30 1 1 1 2
M  V30 2 1 2 3
M  V30 3 1 3 4
M  V30 4 1 4 5
M  V30 5 2 5 6
M  V30 6 1 6 7
M  V30 7 2 7 8
M  V30 8 1 8 9
M  V30 9 1 9 10
M  V30 10 1 10 11
M  V30 11 1 11 12
M  V30 12 1 12 13
M  V30 13 1 13 14
M  V30 14 1 14 15
M  V30 15 1 15 16
M  V30 16 1 16 17
M  V30 17 2 17 18
M  V30 18 1 18 19
M  V30 19 2 19 20
M  V30 20 1 20 21
M  V30 21 1 21 22
M  V30 22 2 22 23
M  V30 23 1 23 24
M  V30 24 2 24 25
M  V30 25 1 15 26
M  V30 26 2 9 27
M  V30 27 1 27 5
M  V30 28 1 26 11
M  V30 29 1 25 17
M  V30 30 1 24 20
M  V30 31 1 1 28
M  V30 32 1 2 29
M  V30 33 1 2 30
M  V30 34 1 3 31
M  V30 35 1 3 32
M  V30 36 1 6 33
M  V30 37 1 7 34
M  V30 38 1 8 35
M  V30 39 1 10 36
M  V30 40 1 10 37
M  V30 41 1 12 38
M  V30 42 1 12 39
M  V30 43 1 13 40
M  V30 44 1 13 41
M  V30 45 1 14 42
M  V30 46 1 14 43
M  V30 47 1 15 44 CFG=3
M  V30 48 1 16 45
M  V30 49 1 18 46
M  V30 50 1 19 47
M  V30 51 1 21 48
M  V30 52 1 23 49
M  V30 53 1 25 50
M  V30 54 1 26 51
M  V30 55 1 26 52
M  V30 56 1 27 53
M  V30 END BOND
M  V30 END CTAB
M  END
>  <Dataset>  (882) 
ChEMBL_Kinases

>  <Ligand_Instance>  (882) 
nan

>  <PDB_ID>  (882) 
nan

>  <Standardized_SMILES>  (882) 
OCCOc1cccc(CN2CCC[C@@H](Nc3ccc4[nH]ncc4c3)C2)c1

>  <Name>  (882) 
nan

>  <Pocket>  (882) 
nan

>  <ATP_Site>  (882) 
nan

>  <Peripheral>  (882) 
nan

>  <Num_H_Atoms_ProtBoundConf>  (882) 
nan

>  <Num_Resolved_Atoms>  (882) 
nan

>  <Num_Not_Resolved_Atoms>  (882) 
nan

$$$$
CHEMBL3689433
     RDKit          3D

  0  0  0  0  0  0  0  0  0  0999 V3000
M  V30 BEGIN CTAB
M  V30 COUNTS 53 56 0 0 0
M  V30 BEGIN ATOM
M  V30 1 C 1.780224 -0.775093 5.528921 0
M  V30 2 S 2.517010 -2.201850 4.761899 0
M  V30 3 O 2.936950 -3.129364 5.869361 0
M  V30 4 O 1.492476 -2.950466 3.967890 0
M  V30 5 N 3.913449 -1.795700 3.860473 0
M  V30 6 C 3.845180 -0.912833 2.752674 0
M  V30 7 C 4.742494 0.127181 2.514409 0
M  V30 8 C 4.598867 0.939261 1.406471 0
M  V30 9 C 3.571733 0.752396 0.503752 0
M  V30 10 C 2.648770 -0.259074 0.680584 0
M  V30 11 C 1.496632 -0.583467 -0.197141 0
M  V30 12 N 0.289698 0.062402 0.123479 0
M  V30 13 C 0.202385 1.450766 0.113587 0
M  V30 14 C -0.766445 2.099474 1.022963 0
M  V30 15 C -1.933516 1.307115 1.467249 0
M  V30 16 C -2.047468 -0.058875 0.828698 0 CFG=1
M  V30 17 N -2.578942 -0.019367 -0.494194 0
M  V30 18 C -2.976417 -1.059689 -1.378177 0
M  V30 19 C -2.947271 -2.399654 -1.062466 0
M  V30 20 C -3.314194 -3.426572 -1.904391 0
M  V30 21 C -3.741111 -3.049714 -3.158808 0
M  V30 22 N -4.164842 -3.767040 -4.214183 0
M  V30 23 N -4.480185 -2.971213 -5.231416 0
M  V30 24 C -4.261317 -1.698134 -4.843498 0
M  V30 25 C -3.793571 -1.727430 -3.535340 0
M  V30 26 C -3.413306 -0.761473 -2.645520 0
M  V30 27 C -0.664539 -0.662599 0.896956 0
M  V30 28 C 2.825587 -1.061650 1.813661 0
M  V30 29 H 2.551537 0.006289 5.718971 0
M  V30 30 H 1.349863 -1.019883 6.537245 0
M  V30 31 H 0.922925 -0.370674 4.956609 0
M  V30 32 H 4.884926 -2.170562 4.071426 0
M  V30 33 H 5.538854 0.245435 3.246272 0
M  V30 34 H 5.312494 1.733908 1.254948 0
M  V30 35 H 3.433233 1.362283 -0.364073 0
M  V30 36 H 1.771804 -0.376726 -1.257787 0
M  V30 37 H 1.340172 -1.697817 -0.178144 0
M  V30 38 H 1.204690 1.911759 0.313159 0
M  V30 39 H -0.020171 1.775372 -0.944533 0
M  V30 40 H -1.170799 3.031782 0.525126 0
M  V30 41 H -0.236595 2.533063 1.923833 0
M  V30 42 H -2.912001 1.855190 1.338855 0
M  V30 43 H -1.870964 1.125364 2.559194 0
M  V30 44 H -2.706447 -0.672347 1.465885 0
M  V30 45 H -2.688310 0.963986 -0.863720 0
M  V30 46 H -2.626613 -2.722335 -0.085424 0
M  V30 47 H -3.273962 -4.467599 -1.610803 0
M  V30 48 H -4.226819 -4.810761 -4.206579 0
M  V30 49 H -4.404683 -0.764369 -5.404965 0
M  V30 50 H -3.464217 0.263691 -2.966000 0
M  V30 51 H -0.629520 -1.723731 0.610108 0
M  V30 52 H -0.400900 -0.625437 1.983354 0
M  V30 53 H 2.129234 -1.867203 1.996753 0
M  V30 END ATOM
M  V30 BEGIN BOND
M  V30 1 1 1 2
M  V30 2 2 2 3
M  V30 3 2 2 4
M  V30 4 1 2 5
M  V30 5 1 5 6
M  V30 6 2 6 7
M  V30 7 1 7 8
M  V30 8 2 8 9
M  V30 9 1 9 10
M  V30 10 1 10 11
M  V30 11 1 11 12
M  V30 12 1 12 13
M  V30 13 1 13 14
M  V30 14 1 14 15
M  V30 15 1 15 16
M  V30 16 1 16 17
M  V30 17 1 17 18
M  V30 18 2 18 19
M  V30 19 1 19 20
M  V30 20 2 20 21
M  V30 21 1 21 22
M  V30 22 1 22 23
M  V30 23 2 23 24
M  V30 24 1 24 25
M  V30 25 2 25 26
M  V30 26 1 16 27
M  V30 27 2 10 28
M  V30 28 1 28 6
M  V30 29 1 27 12
M  V30 30 1 26 18
M  V30 31 1 25 21
M  V30 32 1 1 29
M  V30 33 1 1 30
M  V30 34 1 1 31
M  V30 35 1 5 32
M  V30 36 1 7 33
M  V30 37 1 8 34
M  V30 38 1 9 35
M  V30 39 1 11 36
M  V30 40 1 11 37
M  V30 41 1 13 38
M  V30 42 1 13 39
M  V30 43 1 14 40
M  V30 44 1 14 41
M  V30 45 1 15 42
M  V30 46 1 15 43
M  V30 47 1 16 44 CFG=1
M  V30 48 1 17 45
M  V30 49 1 19 46
M  V30 50 1 20 47
M  V30 51 1 22 48
M  V30 52 1 24 49
M  V30 53 1 26 50
M  V30 54 1 27 51
M  V30 55 1 27 52
M  V30 56 1 28 53
M  V30 END BOND
M  V30 END CTAB
M  END
>  <Dataset>  (883) 
ChEMBL_Kinases

>  <Ligand_Instance>  (883) 
nan

>  <PDB_ID>  (883) 
nan

>  <Standardized_SMILES>  (883) 
CS(=O)(=O)Nc1cccc(CN2CCC[C@@H](Nc3ccc4[nH]ncc4c3)C2)c1

>  <Name>  (883) 
nan

>  <Pocket>  (883) 
nan

>  <ATP_Site>  (883) 
nan

>  <Peripheral>  (883) 
nan

>  <Num_H_Atoms_ProtBoundConf>  (883) 
nan

>  <Num_Resolved_Atoms>  (883) 
nan

>  <Num_Not_Resolved_Atoms>  (883) 
nan

$$$$
CHEMBL3689434
     RDKit          3D

  0  0  0  0  0  0  0  0  0  0999 V3000
M  V30 BEGIN CTAB
M  V30 COUNTS 50 53 0 0 0
M  V30 BEGIN ATOM
M  V30 1 O -0.911779 -5.211968 1.826128 0
M  V30 2 C 0.294399 -4.865260 1.225567 0
M  V30 3 C 0.184636 -3.596265 0.408754 0
M  V30 4 O 1.380135 -3.229460 -0.202044 0
M  V30 5 C 1.590866 -2.121467 -1.008273 0
M  V30 6 C 2.911889 -2.050457 -1.459922 0
M  V30 7 C 3.283382 -0.995009 -2.280298 0
M  V30 8 C 2.312498 -0.070186 -2.602558 0
M  V30 9 C 1.000106 -0.103037 -2.179018 0
M  V30 10 C -0.031636 0.874385 -2.518992 0
M  V30 11 N -0.180491 1.987633 -1.657377 0
M  V30 12 C 0.941210 2.847208 -1.494900 0
M  V30 13 C 1.357433 2.779291 -0.055129 0
M  V30 14 C 0.144299 2.236942 0.658069 0 CFG=2
M  V30 15 N 0.460411 1.083343 1.475539 0
M  V30 16 C -0.500695 0.392049 2.262426 0
M  V30 17 C -1.833950 0.731270 2.344921 0
M  V30 18 C -2.749730 0.045217 3.115675 0
M  V30 19 C -2.312407 -1.046286 3.850297 0
M  V30 20 N -2.991024 -1.871079 4.667302 0
M  V30 21 N -2.111180 -2.748926 5.121035 0
M  V30 22 C -0.885059 -2.532525 4.634651 0
M  V30 23 C -0.984452 -1.426733 3.801252 0
M  V30 24 C -0.124061 -0.700166 3.013363 0
M  V30 25 C -0.825050 1.773397 -0.410113 0
M  V30 26 C 0.662818 -1.165213 -1.364616 0
M  V30 27 H -0.789922 -5.672321 2.692435 0
M  V30 28 H 0.552899 -5.693194 0.538944 0
M  V30 29 H 1.038608 -4.755413 2.050852 0
M  V30 30 H -0.536645 -3.836611 -0.426194 0
M  V30 31 H -0.265358 -2.759196 0.978861 0
M  V30 32 H 3.691668 -2.765829 -1.219436 0
M  V30 33 H 4.291776 -0.903709 -2.649938 0
M  V30 34 H 2.618930 0.736378 -3.237464 0
M  V30 35 H 0.206015 1.287693 -3.538132 0
M  V30 36 H -1.042942 0.417385 -2.652269 0
M  V30 37 H 0.563205 3.897604 -1.673069 0
M  V30 38 H 1.756215 2.716230 -2.202874 0
M  V30 39 H 2.260771 2.164117 0.110789 0
M  V30 40 H 1.583613 3.788258 0.346557 0
M  V30 41 H -0.282739 3.003230 1.338135 0
M  V30 42 H 1.433278 0.766914 1.470986 0
M  V30 43 H -2.189570 1.573790 1.783512 0
M  V30 44 H -3.790697 0.378471 3.126905 0
M  V30 45 H -4.015647 -1.782570 4.864416 0
M  V30 46 H 0.037416 -3.076409 4.817832 0
M  V30 47 H 0.896436 -1.055607 3.024675 0
M  V30 48 H -1.681875 2.509157 -0.359384 0
M  V30 49 H -1.207567 0.759164 -0.248757 0
M  V30 50 H -0.308913 -1.355669 -0.939856 0
M  V30 END ATOM
M  V30 BEGIN BOND
M  V30 1 1 1 2
M  V30 2 1 2 3
M  V30 3 1 3 4
M  V30 4 1 4 5
M  V30 5 2 5 6
M  V30 6 1 6 7
M  V30 7 2 7 8
M  V30 8 1 8 9
M  V30 9 1 9 10
M  V30 10 1 10 11
M  V30 11 1 11 12
M  V30 12 1 12 13
M  V30 13 1 13 14
M  V30 14 1 14 15
M  V30 15 1 15 16
M  V30 16 2 16 17
M  V30 17 1 17 18
M  V30 18 2 18 19
M  V30 19 1 19 20
M  V30 20 1 20 21
M  V30 21 2 21 22
M  V30 22 1 22 23
M  V30 23 2 23 24
M  V30 24 1 14 25
M  V30 25 2 9 26
M  V30 26 1 26 5
M  V30 27 1 25 11
M  V30 28 1 24 16
M  V30 29 1 23 19
M  V30 30 1 1 27
M  V30 31 1 2 28
M  V30 32 1 2 29
M  V30 33 1 3 30
M  V30 34 1 3 31
M  V30 35 1 6 32
M  V30 36 1 7 33
M  V30 37 1 8 34
M  V30 38 1 10 35
M  V30 39 1 10 36
M  V30 40 1 12 37
M  V30 41 1 12 38
M  V30 42 1 13 39
M  V30 43 1 13 40
M  V30 44 1 14 41 CFG=1
M  V30 45 1 15 42
M  V30 46 1 17 43
M  V30 47 1 18 44
M  V30 48 1 20 45
M  V30 49 1 22 46
M  V30 50 1 24 47
M  V30 51 1 25 48
M  V30 52 1 25 49
M  V30 53 1 26 50
M  V30 END BOND
M  V30 END CTAB
M  END
>  <Dataset>  (884) 
ChEMBL_Kinases

>  <Ligand_Instance>  (884) 
nan

>  <PDB_ID>  (884) 
nan

>  <Standardized_SMILES>  (884) 
OCCOc1cccc(CN2CC[C@H](Nc3ccc4[nH]ncc4c3)C2)c1

>  <Name>  (884) 
nan

>  <Pocket>  (884) 
nan

>  <ATP_Site>  (884) 
nan

>  <Peripheral>  (884) 
nan

>  <Num_H_Atoms_ProtBoundConf>  (884) 
nan

>  <Num_Resolved_Atoms>  (884) 
nan

>  <Num_Not_Resolved_Atoms>  (884) 
nan

$$$$
CHEMBL3689435
     RDKit          3D

  0  0  0  0  0  0  0  0  0  0999 V3000
M  V30 BEGIN CTAB
M  V30 COUNTS 50 53 0 0 0
M  V30 BEGIN ATOM
M  V30 1 C 0.944105 -4.198069 1.750871 0
M  V30 2 S 2.649655 -4.590896 1.473477 0
M  V30 3 O 3.179634 -5.336949 2.668852 0
M  V30 4 O 2.768844 -5.498443 0.285570 0
M  V30 5 N 3.599509 -3.161807 1.281960 0
M  V30 6 C 3.369570 -2.250043 0.235693 0
M  V30 7 C 3.163696 -2.705541 -1.050473 0
M  V30 8 C 2.938169 -1.810227 -2.076761 0
M  V30 9 C 2.923771 -0.460331 -1.787263 0
M  V30 10 C 3.121710 0.077567 -0.522638 0
M  V30 11 C 3.097712 1.522424 -0.272480 0
M  V30 12 N 1.840397 2.092087 0.048860 0
M  V30 13 C 0.794117 1.949311 -0.921333 0
M  V30 14 C -0.172589 0.943989 -0.387810 0
M  V30 15 C 0.063613 0.920210 1.084777 0 CFG=2
M  V30 16 N -1.112626 1.454230 1.745840 0
M  V30 17 C -2.416812 0.901914 1.668984 0
M  V30 18 C -3.489069 1.478124 2.326904 0
M  V30 19 C -4.752993 0.960867 2.267583 0
M  V30 20 C -5.019385 -0.170402 1.541795 0
M  V30 21 N -6.144240 -0.865234 1.325298 0
M  V30 22 N -5.882672 -1.886202 0.550504 0
M  V30 23 C -4.557025 -1.874980 0.242099 0
M  V30 24 C -3.986714 -0.786376 0.865635 0
M  V30 25 C -2.725129 -0.232375 0.951188 0
M  V30 26 C 1.277963 1.748678 1.317132 0
M  V30 27 C 3.339438 -0.885969 0.440253 0
M  V30 28 H 0.562727 -4.705657 2.645945 0
M  V30 29 H 0.786468 -3.115682 1.886685 0
M  V30 30 H 0.337897 -4.547390 0.868152 0
M  V30 31 H 4.389111 -2.883302 1.912849 0
M  V30 32 H 3.175252 -3.761593 -1.275082 0
M  V30 33 H 2.779058 -2.188044 -3.077988 0
M  V30 34 H 2.742846 0.171260 -2.643063 0
M  V30 35 H 3.589083 2.080948 -1.099404 0
M  V30 36 H 3.763655 1.700652 0.621764 0
M  V30 37 H 1.090583 1.750565 -1.943340 0
M  V30 38 H 0.254237 2.940603 -0.951055 0
M  V30 39 H -0.000229 -0.080010 -0.782131 0
M  V30 40 H -1.206726 1.250236 -0.662351 0
M  V30 41 H 0.214102 -0.103344 1.489956 0
M  V30 42 H -0.978327 2.311746 2.320378 0
M  V30 43 H -3.366665 2.376836 2.924784 0
M  V30 44 H -5.579904 1.439696 2.798974 0
M  V30 45 H -7.061466 -0.600890 1.728546 0
M  V30 46 H -3.989237 -2.561623 -0.372489 0
M  V30 47 H -1.966407 -0.749464 0.411190 0
M  V30 48 H 1.996168 1.198704 1.935755 0
M  V30 49 H 1.048163 2.681240 1.913114 0
M  V30 50 H 3.508484 -0.582481 1.463562 0
M  V30 END ATOM
M  V30 BEGIN BOND
M  V30 1 1 1 2
M  V30 2 2 2 3
M  V30 3 2 2 4
M  V30 4 1 2 5
M  V30 5 1 5 6
M  V30 6 2 6 7
M  V30 7 1 7 8
M  V30 8 2 8 9
M  V30 9 1 9 10
M  V30 10 1 10 11
M  V30 11 1 11 12
M  V30 12 1 12 13
M  V30 13 1 13 14
M  V30 14 1 14 15
M  V30 15 1 15 16
M  V30 16 1 16 17
M  V30 17 2 17 18
M  V30 18 1 18 19
M  V30 19 2 19 20
M  V30 20 1 20 21
M  V30 21 1 21 22
M  V30 22 2 22 23
M  V30 23 1 23 24
M  V30 24 2 24 25
M  V30 25 1 15 26
M  V30 26 2 10 27
M  V30 27 1 27 6
M  V30 28 1 26 12
M  V30 29 1 25 17
M  V30 30 1 24 20
M  V30 31 1 1 28
M  V30 32 1 1 29
M  V30 33 1 1 30
M  V30 34 1 5 31
M  V30 35 1 7 32
M  V30 36 1 8 33
M  V30 37 1 9 34
M  V30 38 1 11 35
M  V30 39 1 11 36
M  V30 40 1 13 37
M  V30 41 1 13 38
M  V30 42 1 14 39
M  V30 43 1 14 40
M  V30 44 1 15 41 CFG=1
M  V30 45 1 16 42
M  V30 46 1 18 43
M  V30 47 1 19 44
M  V30 48 1 21 45
M  V30 49 1 23 46
M  V30 50 1 25 47
M  V30 51 1 26 48
M  V30 52 1 26 49
M  V30 53 1 27 50
M  V30 END BOND
M  V30 END CTAB
M  END
>  <Dataset>  (885) 
ChEMBL_Kinases

>  <Ligand_Instance>  (885) 
nan

>  <PDB_ID>  (885) 
nan

>  <Standardized_SMILES>  (885) 
CS(=O)(=O)Nc1cccc(CN2CC[C@H](Nc3ccc4[nH]ncc4c3)C2)c1

>  <Name>  (885) 
nan

>  <Pocket>  (885) 
nan

>  <ATP_Site>  (885) 
nan

>  <Peripheral>  (885) 
nan

>  <Num_H_Atoms_ProtBoundConf>  (885) 
nan

>  <Num_Resolved_Atoms>  (885) 
nan

>  <Num_Not_Resolved_Atoms>  (885) 
nan

$$$$
CHEMBL3689445
     RDKit          3D

  0  0  0  0  0  0  0  0  0  0999 V3000
M  V30 BEGIN CTAB
M  V30 COUNTS 56 60 0 0 0
M  V30 BEGIN ATOM
M  V30 1 N 1.481059 -3.284914 3.448465 0
M  V30 2 C 2.611822 -3.809122 2.764508 0
M  V30 3 O 3.364920 -4.650076 3.318825 0
M  V30 4 C 2.806190 -3.286410 1.388726 0
M  V30 5 N 3.625580 -2.105869 1.352953 0
M  V30 6 C 4.964609 -2.103836 1.222152 0
M  V30 7 C 5.399804 -0.794308 1.228837 0
M  V30 8 C 4.257530 -0.032075 1.369127 0
M  V30 9 C 4.079943 1.332755 1.437908 0
M  V30 10 C 2.839110 1.917579 1.581301 0
M  V30 11 C 1.722412 1.112815 1.660078 0
M  V30 12 C 0.289461 1.464051 1.810070 0
M  V30 13 N -0.290161 1.583725 0.508909 0
M  V30 14 C 0.283135 2.565167 -0.334570 0
M  V30 15 C -0.143484 2.318968 -1.775426 0
M  V30 16 C -0.949850 1.006772 -1.783665 0
M  V30 17 C -2.171446 1.318127 -0.945066 0 CFG=1
M  V30 18 N -3.276022 0.447813 -1.141309 0
M  V30 19 C -3.413645 -0.938156 -0.912610 0
M  V30 20 C -2.431525 -1.756927 -0.405391 0
M  V30 21 C -2.546248 -3.110980 -0.180166 0
M  V30 22 C -3.743822 -3.723237 -0.482410 0
M  V30 23 N -4.212361 -4.981190 -0.400795 0
M  V30 24 N -5.461698 -5.021996 -0.833376 0
M  V30 25 C -5.862265 -3.795989 -1.215231 0
M  V30 26 C -4.771946 -2.961816 -0.994421 0
M  V30 27 C -4.583363 -1.614124 -1.192418 0
M  V30 28 C -1.718962 1.472584 0.489734 0
M  V30 29 C 1.890709 -0.275323 1.591389 0
M  V30 30 C 3.156369 -0.851113 1.445985 0
M  V30 31 H 1.094776 -2.348674 3.694373 0
M  V30 32 H 0.637941 -3.664100 3.945868 0
M  V30 33 H 3.280445 -4.094168 0.785979 0
M  V30 34 H 1.826454 -3.050751 0.908441 0
M  V30 35 H 5.596415 -2.983233 1.127391 0
M  V30 36 H 6.434178 -0.453869 1.140544 0
M  V30 37 H 4.910581 2.025172 1.382743 0
M  V30 38 H 2.597781 2.955832 1.646236 0
M  V30 39 H -0.243586 0.795046 2.486038 0
M  V30 40 H 0.280446 2.475235 2.296535 0
M  V30 41 H 1.383934 2.410536 -0.334932 0
M  V30 42 H 0.108575 3.614968 -0.025764 0
M  V30 43 H 0.693070 2.182073 -2.461758 0
M  V30 44 H -0.842950 3.092172 -2.148511 0
M  V30 45 H -1.181786 0.770627 -2.820060 0
M  V30 46 H -0.279668 0.292343 -1.267445 0
M  V30 47 H -2.475612 2.345040 -1.260105 0
M  V30 48 H -4.169464 0.891599 -1.527132 0
M  V30 49 H -1.480269 -1.368177 -0.141928 0
M  V30 50 H -1.753189 -3.722043 0.219458 0
M  V30 51 H -3.581981 -5.745950 -0.028367 0
M  V30 52 H -6.833951 -3.507828 -1.614419 0
M  V30 53 H -5.440961 -1.074805 -1.600648 0
M  V30 54 H -2.009194 0.597660 1.095716 0
M  V30 55 H -2.222000 2.345463 0.961966 0
M  V30 56 H 1.097663 -1.028926 1.640511 0
M  V30 END ATOM
M  V30 BEGIN BOND
M  V30 1 1 1 2
M  V30 2 2 2 3
M  V30 3 1 2 4
M  V30 4 1 4 5
M  V30 5 1 5 6
M  V30 6 2 6 7
M  V30 7 1 7 8
M  V30 8 2 8 9
M  V30 9 1 9 10
M  V30 10 2 10 11
M  V30 11 1 11 12
M  V30 12 1 12 13
M  V30 13 1 13 14
M  V30 14 1 14 15
M  V30 15 1 15 16
M  V30 16 1 16 17
M  V30 17 1 17 18
M  V30 18 1 18 19
M  V30 19 2 19 20
M  V30 20 1 20 21
M  V30 21 2 21 22
M  V30 22 1 22 23
M  V30 23 1 23 24
M  V30 24 2 24 25
M  V30 25 1 25 26
M  V30 26 2 26 27
M  V30 27 1 17 28
M  V30 28 1 11 29
M  V30 29 2 29 30
M  V30 30 1 30 5
M  V30 31 1 30 8
M  V30 32 1 28 13
M  V30 33 1 27 19
M  V30 34 1 26 22
M  V30 35 1 1 31
M  V30 36 1 1 32
M  V30 37 1 4 33
M  V30 38 1 4 34
M  V30 39 1 6 35
M  V30 40 1 7 36
M  V30 41 1 9 37
M  V30 42 1 10 38
M  V30 43 1 12 39
M  V30 44 1 12 40
M  V30 45 1 14 41
M  V30 46 1 14 42
M  V30 47 1 15 43
M  V30 48 1 15 44
M  V30 49 1 16 45
M  V30 50 1 16 46
M  V30 51 1 17 47 CFG=3
M  V30 52 1 18 48
M  V30 53 1 20 49
M  V30 54 1 21 50
M  V30 55 1 23 51
M  V30 56 1 25 52
M  V30 57 1 27 53
M  V30 58 1 28 54
M  V30 59 1 28 55
M  V30 60 1 29 56
M  V30 END BOND
M  V30 END CTAB
M  END
>  <Dataset>  (886) 
ChEMBL_Kinases

>  <Ligand_Instance>  (886) 
nan

>  <PDB_ID>  (886) 
nan

>  <Standardized_SMILES>  (886) 
NC(=O)Cn1ccc2ccc(CN3CCC[C@@H](Nc4ccc5[nH]ncc5c4)C3)cc21

>  <Name>  (886) 
nan

>  <Pocket>  (886) 
nan

>  <ATP_Site>  (886) 
nan

>  <Peripheral>  (886) 
nan

>  <Num_H_Atoms_ProtBoundConf>  (886) 
nan

>  <Num_Resolved_Atoms>  (886) 
nan

>  <Num_Not_Resolved_Atoms>  (886) 
nan

$$$$
CHEMBL3689437
     RDKit          3D

  0  0  0  0  0  0  0  0  0  0999 V3000
M  V30 BEGIN CTAB
M  V30 COUNTS 50 53 0 0 0
M  V30 BEGIN ATOM
M  V30 1 C 1.784922 -5.330568 0.807680 0
M  V30 2 S 3.309763 -5.259941 -0.070284 0
M  V30 3 O 4.333801 -5.992832 0.785367 0
M  V30 4 O 3.212144 -6.047580 -1.332002 0
M  V30 5 N 3.901370 -3.669103 -0.303489 0
M  V30 6 C 3.193253 -2.674235 -1.040983 0
M  V30 7 C 2.587001 -2.903891 -2.261536 0
M  V30 8 C 1.912695 -1.902510 -2.936427 0
M  V30 9 C 1.864428 -0.655299 -2.346238 0
M  V30 10 C 2.458322 -0.363477 -1.114258 0
M  V30 11 C 2.293635 1.017127 -0.671288 0
M  V30 12 N 1.130663 1.313697 0.090767 0
M  V30 13 C 0.995780 2.668142 0.518673 0
M  V30 14 C 0.334187 2.678340 1.877509 0
M  V30 15 C 0.388514 1.228357 2.341140 0 CFG=1
M  V30 16 N -0.843580 0.783078 2.942035 0
M  V30 17 C -2.123268 0.732116 2.338963 0
M  V30 18 C -2.402644 1.109111 1.045227 0
M  V30 19 C -3.644221 1.063719 0.450540 0
M  V30 20 C -4.709252 0.604464 1.199514 0
M  V30 21 N -6.022810 0.420316 0.978292 0
M  V30 22 N -6.629647 -0.057701 2.052991 0
M  V30 23 C -5.716854 -0.201152 3.019653 0
M  V30 24 C -4.491281 0.212454 2.501868 0
M  V30 25 C -3.225767 0.283515 3.033634 0
M  V30 26 C 0.786035 0.419082 1.134972 0
M  V30 27 C 3.112849 -1.407532 -0.498288 0
M  V30 28 H 1.893965 -5.690770 1.854125 0
M  V30 29 H 1.252038 -4.364224 0.860267 0
M  V30 30 H 1.072045 -6.056319 0.327449 0
M  V30 31 H 4.831957 -3.332680 0.089033 0
M  V30 32 H 2.657150 -3.908507 -2.680387 0
M  V30 33 H 1.441799 -2.097172 -3.893674 0
M  V30 34 H 1.317228 0.095604 -2.927515 0
M  V30 35 H 3.174875 1.268813 -0.038704 0
M  V30 36 H 2.349757 1.719439 -1.542211 0
M  V30 37 H 0.310772 3.261126 -0.149048 0
M  V30 38 H 1.971424 3.208859 0.535413 0
M  V30 39 H -0.678321 3.092265 1.868643 0
M  V30 40 H 0.966716 3.313600 2.539141 0
M  V30 41 H 1.199370 1.162323 3.126082 0
M  V30 42 H -0.814480 0.449335 3.953406 0
M  V30 43 H -1.631396 1.471758 0.412232 0
M  V30 44 H -3.820112 1.370218 -0.570478 0
M  V30 45 H -6.504958 0.631359 0.063116 0
M  V30 46 H -5.875009 -0.570244 4.031696 0
M  V30 47 H -3.118071 -0.042973 4.074413 0
M  V30 48 H 1.588650 -0.275390 1.454143 0
M  V30 49 H -0.039010 -0.260301 0.787884 0
M  V30 50 H 3.565097 -1.155251 0.450206 0
M  V30 END ATOM
M  V30 BEGIN BOND
M  V30 1 1 1 2
M  V30 2 2 2 3
M  V30 3 2 2 4
M  V30 4 1 2 5
M  V30 5 1 5 6
M  V30 6 2 6 7
M  V30 7 1 7 8
M  V30 8 2 8 9
M  V30 9 1 9 10
M  V30 10 1 10 11
M  V30 11 1 11 12
M  V30 12 1 12 13
M  V30 13 1 13 14
M  V30 14 1 14 15
M  V30 15 1 15 16
M  V30 16 1 16 17
M  V30 17 2 17 18
M  V30 18 1 18 19
M  V30 19 2 19 20
M  V30 20 1 20 21
M  V30 21 1 21 22
M  V30 22 2 22 23
M  V30 23 1 23 24
M  V30 24 2 24 25
M  V30 25 1 15 26
M  V30 26 2 10 27
M  V30 27 1 27 6
M  V30 28 1 26 12
M  V30 29 1 25 17
M  V30 30 1 24 20
M  V30 31 1 1 28
M  V30 32 1 1 29
M  V30 33 1 1 30
M  V30 34 1 5 31
M  V30 35 1 7 32
M  V30 36 1 8 33
M  V30 37 1 9 34
M  V30 38 1 11 35
M  V30 39 1 11 36
M  V30 40 1 13 37
M  V30 41 1 13 38
M  V30 42 1 14 39
M  V30 43 1 14 40
M  V30 44 1 15 41 CFG=1
M  V30 45 1 16 42
M  V30 46 1 18 43
M  V30 47 1 19 44
M  V30 48 1 21 45
M  V30 49 1 23 46
M  V30 50 1 25 47
M  V30 51 1 26 48
M  V30 52 1 26 49
M  V30 53 1 27 50
M  V30 END BOND
M  V30 END CTAB
M  END
>  <Dataset>  (887) 
ChEMBL_Kinases

>  <Ligand_Instance>  (887) 
nan

>  <PDB_ID>  (887) 
nan

>  <Standardized_SMILES>  (887) 
CS(=O)(=O)Nc1cccc(CN2CC[C@@H](Nc3ccc4[nH]ncc4c3)C2)c1

>  <Name>  (887) 
nan

>  <Pocket>  (887) 
nan

>  <ATP_Site>  (887) 
nan

>  <Peripheral>  (887) 
nan

>  <Num_H_Atoms_ProtBoundConf>  (887) 
nan

>  <Num_Resolved_Atoms>  (887) 
nan

>  <Num_Not_Resolved_Atoms>  (887) 
nan

$$$$
CHEMBL3689438
     RDKit          3D

  0  0  0  0  0  0  0  0  0  0999 V3000
M  V30 BEGIN CTAB
M  V30 COUNTS 53 56 0 0 0
M  V30 BEGIN ATOM
M  V30 1 N 2.035423 -3.409636 3.860327 0
M  V30 2 C 3.310984 -4.009718 3.847788 0
M  V30 3 O 2.756304 -4.810922 4.614801 0
M  V30 4 C 4.502771 -3.540716 3.099553 0
M  V30 5 O 4.173832 -2.396968 2.387730 0
M  V30 6 C 3.226310 -2.267872 1.390290 0
M  V30 7 C 2.372637 -3.187888 0.825282 0
M  V30 8 C 1.502958 -2.805974 -0.173282 0
M  V30 9 C 1.487248 -1.497985 -0.609067 0
M  V30 10 C 2.335700 -0.524383 -0.066897 0
M  V30 11 C 2.243986 0.847481 -0.605689 0
M  V30 12 N 1.308844 1.706733 0.019071 0
M  V30 13 C 1.445290 1.994333 1.381234 0
M  V30 14 C 0.539275 1.203008 2.294292 0
M  V30 15 C -0.694501 0.732045 1.535721 0
M  V30 16 C -1.052507 1.811170 0.499399 0
M  V30 17 N -2.394685 1.732203 0.212461 0
M  V30 18 C -3.260675 0.803704 -0.346102 0
M  V30 19 C -4.644317 0.963065 -0.517250 0
M  V30 20 C -5.493233 0.042675 -1.077428 0
M  V30 21 C -4.976742 -1.153038 -1.521535 0
M  V30 22 N -5.612050 -2.173293 -2.089111 0
M  V30 23 N -4.687468 -3.108102 -2.345227 0
M  V30 24 C -3.478690 -2.654603 -1.930654 0
M  V30 25 C -3.631575 -1.394630 -1.393900 0
M  V30 26 C -2.843673 -0.421103 -0.820783 0
M  V30 27 C -0.001015 1.765387 -0.542193 0
M  V30 28 C 3.206310 -0.942827 0.944663 0
M  V30 29 H 1.103534 -3.062559 3.611975 0
M  V30 30 H 1.095451 -3.040032 3.664270 0
M  V30 31 H 4.818688 -4.310742 2.356534 0
M  V30 32 H 5.297326 -3.350990 3.848008 0
M  V30 33 H 2.480076 -4.178263 1.243166 0
M  V30 34 H 0.862722 -3.582959 -0.568445 0
M  V30 35 H 0.765278 -1.331081 -1.390426 0
M  V30 36 H 3.243647 1.329610 -0.562639 0
M  V30 37 H 1.937116 0.764136 -1.688225 0
M  V30 38 H 1.293918 3.099533 1.559028 0
M  V30 39 H 2.487059 1.816193 1.708732 0
M  V30 40 H 0.237090 1.878322 3.119819 0
M  V30 41 H 1.035592 0.329447 2.766465 0
M  V30 42 H -0.504575 -0.241573 1.077993 0
M  V30 43 H -1.556202 0.645478 2.231406 0
M  V30 44 H -0.830200 2.763042 1.080801 0
M  V30 45 H -2.960723 2.611815 0.477112 0
M  V30 46 H -5.085769 1.911481 -0.170424 0
M  V30 47 H -6.543100 0.284483 -1.153092 0
M  V30 48 H -6.624190 -2.250019 -2.300481 0
M  V30 49 H -2.504215 -3.155138 -1.983505 0
M  V30 50 H -1.815017 -0.746248 -0.791246 0
M  V30 51 H -0.124435 0.881748 -1.153313 0
M  V30 52 H -0.014941 2.736377 -1.079995 0
M  V30 53 H 3.815197 -0.118184 1.290592 0
M  V30 END ATOM
M  V30 BEGIN BOND
M  V30 1 1 1 2
M  V30 2 2 2 3
M  V30 3 1 2 4
M  V30 4 1 4 5
M  V30 5 1 5 6
M  V30 6 2 6 7
M  V30 7 1 7 8
M  V30 8 2 8 9
M  V30 9 1 9 10
M  V30 10 1 10 11
M  V30 11 1 11 12
M  V30 12 1 12 13
M  V30 13 1 13 14
M  V30 14 1 14 15
M  V30 15 1 15 16
M  V30 16 1 16 17
M  V30 17 1 17 18
M  V30 18 2 18 19
M  V30 19 1 19 20
M  V30 20 2 20 21
M  V30 21 1 21 22
M  V30 22 1 22 23
M  V30 23 2 23 24
M  V30 24 1 24 25
M  V30 25 2 25 26
M  V30 26 1 16 27
M  V30 27 2 10 28
M  V30 28 1 28 6
M  V30 29 1 27 12
M  V30 30 1 26 18
M  V30 31 1 25 21
M  V30 32 1 1 29
M  V30 33 1 1 30
M  V30 34 1 4 31
M  V30 35 1 4 32
M  V30 36 1 7 33
M  V30 37 1 8 34
M  V30 38 1 9 35
M  V30 39 1 11 36
M  V30 40 1 11 37
M  V30 41 1 13 38
M  V30 42 1 13 39
M  V30 43 1 14 40
M  V30 44 1 14 41
M  V30 45 1 15 42
M  V30 46 1 15 43
M  V30 47 1 16 44
M  V30 48 1 17 45
M  V30 49 1 19 46
M  V30 50 1 20 47
M  V30 51 1 22 48
M  V30 52 1 24 49
M  V30 53 1 26 50
M  V30 54 1 27 51
M  V30 55 1 27 52
M  V30 56 1 28 53
M  V30 END BOND
M  V30 END CTAB
M  END
>  <Dataset>  (888) 
ChEMBL_Kinases

>  <Ligand_Instance>  (888) 
nan

>  <PDB_ID>  (888) 
nan

>  <Standardized_SMILES>  (888) 
NC(=O)COc1cccc(CN2CCCC(Nc3ccc4[nH]ncc4c3)C2)c1

>  <Name>  (888) 
nan

>  <Pocket>  (888) 
nan

>  <ATP_Site>  (888) 
nan

>  <Peripheral>  (888) 
nan

>  <Num_H_Atoms_ProtBoundConf>  (888) 
nan

>  <Num_Resolved_Atoms>  (888) 
nan

>  <Num_Not_Resolved_Atoms>  (888) 
nan

$$$$
CHEMBL3689439
     RDKit          3D

  0  0  0  0  0  0  0  0  0  0999 V3000
M  V30 BEGIN CTAB
M  V30 COUNTS 56 60 0 0 0
M  V30 BEGIN ATOM
M  V30 1 N 1.144449 -3.826237 1.376370 0
M  V30 2 C 2.543482 -4.024367 1.354195 0
M  V30 3 O 2.880851 -4.800305 2.276834 0
M  V30 4 C 3.541545 -3.445953 0.421108 0
M  V30 5 N 4.045225 -2.188198 0.935253 0
M  V30 6 C 5.117097 -2.099258 1.740068 0
M  V30 7 C 5.347363 -0.778538 2.060748 0
M  V30 8 C 4.347708 -0.097317 1.396853 0
M  V30 9 C 4.084489 1.256617 1.353679 0
M  V30 10 C 3.009268 1.690703 0.603972 0
M  V30 11 C 2.155815 0.876404 -0.121270 0
M  V30 12 C 1.022991 1.410622 -0.903329 0
M  V30 13 N -0.157917 1.444390 -0.113856 0
M  V30 14 C -0.142523 2.215366 1.057809 0
M  V30 15 C -1.437763 2.725721 1.580815 0
M  V30 16 C -2.494506 1.688416 1.269352 0
M  V30 17 C -2.615892 1.628885 -0.209281 0
M  V30 18 N -3.589595 0.631309 -0.573415 0
M  V30 19 C -3.512179 -0.775417 -0.425597 0
M  V30 20 C -2.429281 -1.460930 0.077174 0
M  V30 21 C -2.346001 -2.825688 0.237374 0
M  V30 22 C -3.430503 -3.591139 -0.132132 0
M  V30 23 N -3.718526 -4.902678 -0.127737 0
M  V30 24 N -4.953742 -5.112823 -0.609950 0
M  V30 25 C -5.499533 -3.932389 -0.940841 0
M  V30 26 C -4.543918 -2.961074 -0.642632 0
M  V30 27 C -4.557175 -1.593075 -0.774501 0
M  V30 28 C -1.321040 1.477561 -0.937132 0
M  V30 29 C 2.472525 -0.476423 -0.038162 0
M  V30 30 C 3.536576 -0.955640 0.698007 0
M  V30 31 H 0.583363 -4.663423 1.095569 0
M  V30 32 H 0.741654 -2.890011 1.660577 0
M  V30 33 H 4.384389 -4.116779 0.263847 0
M  V30 34 H 3.039554 -3.193724 -0.549596 0
M  V30 35 H 5.733915 -2.915161 2.104805 0
M  V30 36 H 6.130381 -0.374368 2.687236 0
M  V30 37 H 4.721713 1.927778 1.902453 0
M  V30 38 H 2.875903 2.761510 0.620842 0
M  V30 39 H 1.269690 2.368665 -1.399625 0
M  V30 40 H 0.848282 0.677818 -1.735141 0
M  V30 41 H 0.557219 3.095310 1.023427 0
M  V30 42 H 0.308621 1.570474 1.865172 0
M  V30 43 H -1.363753 2.830696 2.681226 0
M  V30 44 H -1.724822 3.720312 1.185362 0
M  V30 45 H -3.458495 2.092491 1.696419 0
M  V30 46 H -2.268897 0.762465 1.787461 0
M  V30 47 H -3.027851 2.629327 -0.527280 0
M  V30 48 H -4.485591 0.963969 -1.008651 0
M  V30 49 H -1.539195 -0.939812 0.378912 0
M  V30 50 H -1.503026 -3.340329 0.627493 0
M  V30 51 H -3.063570 -5.647551 0.207198 0
M  V30 52 H -6.500805 -3.761246 -1.363356 0
M  V30 53 H -5.470855 -1.160114 -1.185510 0
M  V30 54 H -1.363490 0.523988 -1.502748 0
M  V30 55 H -1.161640 2.255204 -1.711923 0
M  V30 56 H 1.861520 -1.181901 -0.571101 0
M  V30 END ATOM
M  V30 BEGIN BOND
M  V30 1 1 1 2
M  V30 2 2 2 3
M  V30 3 1 2 4
M  V30 4 1 4 5
M  V30 5 1 5 6
M  V30 6 2 6 7
M  V30 7 1 7 8
M  V30 8 2 8 9
M  V30 9 1 9 10
M  V30 10 2 10 11
M  V30 11 1 11 12
M  V30 12 1 12 13
M  V30 13 1 13 14
M  V30 14 1 14 15
M  V30 15 1 15 16
M  V30 16 1 16 17
M  V30 17 1 17 18
M  V30 18 1 18 19
M  V30 19 2 19 20
M  V30 20 1 20 21
M  V30 21 2 21 22
M  V30 22 1 22 23
M  V30 23 1 23 24
M  V30 24 2 24 25
M  V30 25 1 25 26
M  V30 26 2 26 27
M  V30 27 1 17 28
M  V30 28 1 11 29
M  V30 29 2 29 30
M  V30 30 1 30 5
M  V30 31 1 30 8
M  V30 32 1 28 13
M  V30 33 1 27 19
M  V30 34 1 26 22
M  V30 35 1 1 31
M  V30 36 1 1 32
M  V30 37 1 4 33
M  V30 38 1 4 34
M  V30 39 1 6 35
M  V30 40 1 7 36
M  V30 41 1 9 37
M  V30 42 1 10 38
M  V30 43 1 12 39
M  V30 44 1 12 40
M  V30 45 1 14 41
M  V30 46 1 14 42
M  V30 47 1 15 43
M  V30 48 1 15 44
M  V30 49 1 16 45
M  V30 50 1 16 46
M  V30 51 1 17 47
M  V30 52 1 18 48
M  V30 53 1 20 49
M  V30 54 1 21 50
M  V30 55 1 23 51
M  V30 56 1 25 52
M  V30 57 1 27 53
M  V30 58 1 28 54
M  V30 59 1 28 55
M  V30 60 1 29 56
M  V30 END BOND
M  V30 END CTAB
M  END
>  <Dataset>  (889) 
ChEMBL_Kinases

>  <Ligand_Instance>  (889) 
nan

>  <PDB_ID>  (889) 
nan

>  <Standardized_SMILES>  (889) 
NC(=O)Cn1ccc2ccc(CN3CCCC(Nc4ccc5[nH]ncc5c4)C3)cc21

>  <Name>  (889) 
nan

>  <Pocket>  (889) 
nan

>  <ATP_Site>  (889) 
nan

>  <Peripheral>  (889) 
nan

>  <Num_H_Atoms_ProtBoundConf>  (889) 
nan

>  <Num_Resolved_Atoms>  (889) 
nan

>  <Num_Not_Resolved_Atoms>  (889) 
nan

$$$$
CHEMBL3689440
     RDKit          3D

  0  0  0  0  0  0  0  0  0  0999 V3000
M  V30 BEGIN CTAB
M  V30 COUNTS 49 53 0 0 0
M  V30 BEGIN ATOM
M  V30 1 C -3.842332 -6.188325 1.656158 0
M  V30 2 C -2.917463 -5.288865 2.192620 0
M  V30 3 C -2.601094 -4.352403 1.231249 0
M  V30 4 C -1.775065 -3.248908 1.163886 0
M  V30 5 C -1.652907 -2.459531 0.013691 0
M  V30 6 C -0.698979 -1.339170 0.196586 0
M  V30 7 N -1.261289 -0.144227 0.722200 0
M  V30 8 C -2.272044 0.498797 -0.012618 0
M  V30 9 C -2.177653 1.958924 -0.237738 0
M  V30 10 C -1.124769 2.694904 0.516979 0
M  V30 11 C 0.100922 1.783418 0.555259 0
M  V30 12 N 1.271653 2.423495 1.061751 0
M  V30 13 C 2.636658 2.029271 1.201219 0
M  V30 14 C 3.629234 2.802163 1.750905 0
M  V30 15 C 4.900361 2.275781 1.800918 0
M  V30 16 C 5.214316 1.020120 1.327835 0
M  V30 17 N 6.397737 0.378198 1.308908 0
M  V30 18 N 6.201470 -0.824970 0.747143 0
M  V30 19 C 4.883311 -0.916363 0.420403 0
M  V30 20 C 4.218623 0.253970 0.780305 0
M  V30 21 C 2.941967 0.758940 0.719648 0
M  V30 22 C -0.351469 0.635744 1.475645 0
M  V30 23 C -2.402692 -2.826356 -1.081706 0
M  V30 24 C -3.227625 -3.929318 -1.012433 0
M  V30 25 C -3.344260 -4.703109 0.122699 0
M  V30 26 N -4.087380 -5.798295 0.369888 0
M  V30 27 H -4.287405 -7.050445 2.178622 0
M  V30 28 H -2.517122 -5.312646 3.177295 0
M  V30 29 H -1.240864 -3.069469 2.093501 0
M  V30 30 H 0.180593 -1.649913 0.813471 0
M  V30 31 H -0.227864 -1.057268 -0.792589 0
M  V30 32 H -2.275272 0.024182 -1.041932 0
M  V30 33 H -3.274519 0.187341 0.398455 0
M  V30 34 H -3.164261 2.405956 0.093163 0
M  V30 35 H -2.104741 2.228913 -1.315127 0
M  V30 36 H -0.901070 3.636194 -0.032729 0
M  V30 37 H -1.402269 2.974340 1.541572 0
M  V30 38 H 0.241036 1.408543 -0.476708 0
M  V30 39 H 1.101160 3.409901 1.415267 0
M  V30 40 H 3.318734 3.765470 2.098852 0
M  V30 41 H 5.658349 2.901024 2.235639 0
M  V30 42 H 7.308484 0.778023 1.679812 0
M  V30 43 H 4.373578 -1.761937 -0.055660 0
M  V30 44 H 2.270282 0.026908 0.250675 0
M  V30 45 H -0.847793 1.109904 2.360161 0
M  V30 46 H 0.493571 0.016747 1.804958 0
M  V30 47 H -2.256210 -2.177583 -1.929459 0
M  V30 48 H -3.764337 -4.115100 -1.936208 0
M  V30 49 H -4.748395 -6.280421 -0.306826 0
M  V30 END ATOM
M  V30 BEGIN BOND
M  V30 1 2 1 2
M  V30 2 1 2 3
M  V30 3 2 3 4
M  V30 4 1 4 5
M  V30 5 1 5 6
M  V30 6 1 6 7
M  V30 7 1 7 8
M  V30 8 1 8 9
M  V30 9 1 9 10
M  V30 10 1 10 11
M  V30 11 1 11 12
M  V30 12 1 12 13
M  V30 13 2 13 14
M  V30 14 1 14 15
M  V30 15 2 15 16
M  V30 16 1 16 17
M  V30 17 1 17 18
M  V30 18 2 18 19
M  V30 19 1 19 20
M  V30 20 2 20 21
M  V30 21 1 11 22
M  V30 22 2 5 23
M  V30 23 1 23 24
M  V30 24 2 24 25
M  V30 25 1 25 26
M  V30 26 1 26 1
M  V30 27 1 25 3
M  V30 28 1 22 7
M  V30 29 1 21 13
M  V30 30 1 20 16
M  V30 31 1 1 27
M  V30 32 1 2 28
M  V30 33 1 4 29
M  V30 34 1 6 30
M  V30 35 1 6 31
M  V30 36 1 8 32
M  V30 37 1 8 33
M  V30 38 1 9 34
M  V30 39 1 9 35
M  V30 40 1 10 36
M  V30 41 1 10 37
M  V30 42 1 11 38
M  V30 43 1 12 39
M  V30 44 1 14 40
M  V30 45 1 15 41
M  V30 46 1 17 42
M  V30 47 1 19 43
M  V30 48 1 21 44
M  V30 49 1 22 45
M  V30 50 1 22 46
M  V30 51 1 23 47
M  V30 52 1 24 48
M  V30 53 1 26 49
M  V30 END BOND
M  V30 END CTAB
M  END
>  <Dataset>  (890) 
ChEMBL_Kinases

>  <Ligand_Instance>  (890) 
nan

>  <PDB_ID>  (890) 
nan

>  <Standardized_SMILES>  (890) 
c1cc2cc(CN3CCCC(Nc4ccc5[nH]ncc5c4)C3)ccc2[nH]1

>  <Name>  (890) 
nan

>  <Pocket>  (890) 
nan

>  <ATP_Site>  (890) 
nan

>  <Peripheral>  (890) 
nan

>  <Num_H_Atoms_ProtBoundConf>  (890) 
nan

>  <Num_Resolved_Atoms>  (890) 
nan

>  <Num_Not_Resolved_Atoms>  (890) 
nan

$$$$
CHEMBL3689441
     RDKit          3D

  0  0  0  0  0  0  0  0  0  0999 V3000
M  V30 BEGIN CTAB
M  V30 COUNTS 56 60 0 0 0
M  V30 BEGIN ATOM
M  V30 1 O 0.374641 -1.948639 2.858565 0
M  V30 2 C 0.882118 -3.157194 3.301708 0
M  V30 3 C 1.974576 -3.631453 2.371958 0
M  V30 4 N 3.020723 -2.600121 2.381727 0
M  V30 5 C 4.071530 -2.552071 3.220536 0
M  V30 6 C 4.833079 -1.442764 2.927008 0
M  V30 7 C 4.193112 -0.823438 1.872002 0
M  V30 8 C 4.468192 0.314642 1.147340 0
M  V30 9 C 3.660033 0.739844 0.114679 0
M  V30 10 C 2.539506 0.043646 -0.238030 0
M  V30 11 C 1.535507 0.317546 -1.292352 0
M  V30 12 N 0.456143 1.062662 -0.739047 0
M  V30 13 C 0.849983 2.331081 -0.174835 0
M  V30 14 C -0.322072 2.837372 0.665489 0
M  V30 15 C -1.485238 1.831980 0.624251 0
M  V30 16 C -1.844388 1.741942 -0.842550 0
M  V30 17 N -3.017414 0.955768 -1.111604 0
M  V30 18 C -3.243453 -0.424711 -0.941624 0
M  V30 19 C -2.322781 -1.339246 -0.488116 0
M  V30 20 C -2.547190 -2.687348 -0.312524 0
M  V30 21 C -3.802986 -3.140578 -0.621791 0
M  V30 22 N -4.374057 -4.355875 -0.578644 0
M  V30 23 N -5.637966 -4.315362 -0.980487 0
M  V30 24 C -5.937290 -3.038200 -1.306539 0
M  V30 25 C -4.785355 -2.292001 -1.082933 0
M  V30 26 C -4.480325 -0.959696 -1.230283 0
M  V30 27 C -0.628456 1.286695 -1.654134 0
M  V30 28 C 2.272075 -1.110069 0.505811 0
M  V30 29 C 3.072753 -1.546940 1.541710 0
M  V30 30 H -0.503330 -1.801721 3.299172 0
M  V30 31 H 1.253505 -3.006483 4.337299 0
M  V30 32 H 0.062681 -3.921108 3.308395 0
M  V30 33 H 2.345534 -4.622714 2.633470 0
M  V30 34 H 1.525002 -3.707283 1.356441 0
M  V30 35 H 4.232795 -3.298210 3.981284 0
M  V30 36 H 5.744340 -1.134385 3.430474 0
M  V30 37 H 5.332303 0.894450 1.383765 0
M  V30 38 H 3.832762 1.628662 -0.495766 0
M  V30 39 H 2.058262 0.929580 -2.074498 0
M  V30 40 H 1.177259 -0.626571 -1.741041 0
M  V30 41 H 1.065851 3.014926 -1.031668 0
M  V30 42 H 1.763563 2.267037 0.460491 0
M  V30 43 H -0.041636 3.114180 1.682194 0
M  V30 44 H -0.716538 3.740798 0.143934 0
M  V30 45 H -2.320227 2.325484 1.152035 0
M  V30 46 H -1.150126 0.903506 1.079922 0
M  V30 47 H -1.997406 2.819016 -1.151633 0
M  V30 48 H -3.835967 1.517006 -1.499945 0
M  V30 49 H -1.333561 -1.016253 -0.246640 0
M  V30 50 H -1.793931 -3.363274 0.045803 0
M  V30 51 H -3.906188 -5.252481 -0.269309 0
M  V30 52 H -6.882069 -2.668368 -1.668702 0
M  V30 53 H -5.285562 -0.323815 -1.597531 0
M  V30 54 H -0.879837 0.390802 -2.256389 0
M  V30 55 H -0.299677 2.045896 -2.391197 0
M  V30 56 H 1.400702 -1.752012 0.315195 0
M  V30 END ATOM
M  V30 BEGIN BOND
M  V30 1 1 1 2
M  V30 2 1 2 3
M  V30 3 1 3 4
M  V30 4 1 4 5
M  V30 5 2 5 6
M  V30 6 1 6 7
M  V30 7 2 7 8
M  V30 8 1 8 9
M  V30 9 2 9 10
M  V30 10 1 10 11
M  V30 11 1 11 12
M  V30 12 1 12 13
M  V30 13 1 13 14
M  V30 14 1 14 15
M  V30 15 1 15 16
M  V30 16 1 16 17
M  V30 17 1 17 18
M  V30 18 2 18 19
M  V30 19 1 19 20
M  V30 20 2 20 21
M  V30 21 1 21 22
M  V30 22 1 22 23
M  V30 23 2 23 24
M  V30 24 1 24 25
M  V30 25 2 25 26
M  V30 26 1 16 27
M  V30 27 1 10 28
M  V30 28 2 28 29
M  V30 29 1 29 4
M  V30 30 1 29 7
M  V30 31 1 27 12
M  V30 32 1 26 18
M  V30 33 1 25 21
M  V30 34 1 1 30
M  V30 35 1 2 31
M  V30 36 1 2 32
M  V30 37 1 3 33
M  V30 38 1 3 34
M  V30 39 1 5 35
M  V30 40 1 6 36
M  V30 41 1 8 37
M  V30 42 1 9 38
M  V30 43 1 11 39
M  V30 44 1 11 40
M  V30 45 1 13 41
M  V30 46 1 13 42
M  V30 47 1 14 43
M  V30 48 1 14 44
M  V30 49 1 15 45
M  V30 50 1 15 46
M  V30 51 1 16 47
M  V30 52 1 17 48
M  V30 53 1 19 49
M  V30 54 1 20 50
M  V30 55 1 22 51
M  V30 56 1 24 52
M  V30 57 1 26 53
M  V30 58 1 27 54
M  V30 59 1 27 55
M  V30 60 1 28 56
M  V30 END BOND
M  V30 END CTAB
M  END
>  <Dataset>  (891) 
ChEMBL_Kinases

>  <Ligand_Instance>  (891) 
nan

>  <PDB_ID>  (891) 
nan

>  <Standardized_SMILES>  (891) 
OCCn1ccc2ccc(CN3CCCC(Nc4ccc5[nH]ncc5c4)C3)cc21

>  <Name>  (891) 
nan

>  <Pocket>  (891) 
nan

>  <ATP_Site>  (891) 
nan

>  <Peripheral>  (891) 
nan

>  <Num_H_Atoms_ProtBoundConf>  (891) 
nan

>  <Num_Resolved_Atoms>  (891) 
nan

>  <Num_Not_Resolved_Atoms>  (891) 
nan

$$$$
CHEMBL3689442
     RDKit          3D

  0  0  0  0  0  0  0  0  0  0999 V3000
M  V30 BEGIN CTAB
M  V30 COUNTS 53 56 0 0 0
M  V30 BEGIN ATOM
M  V30 1 C 4.933144 -1.551171 3.132707 0
M  V30 2 S 3.614266 -2.239264 4.079239 0
M  V30 3 O 2.777071 -1.119143 4.627245 0
M  V30 4 O 4.210984 -2.967779 5.274732 0
M  V30 5 N 2.630803 -3.335159 3.197897 0
M  V30 6 C 1.894685 -2.973496 2.066757 0
M  V30 7 C 1.986417 -1.656634 1.638620 0
M  V30 8 C 1.291376 -1.218699 0.530164 0
M  V30 9 C 1.315973 0.166194 -0.015413 0
M  V30 10 N 0.280929 0.912787 0.595140 0
M  V30 11 C 0.309291 1.064116 1.999718 0
M  V30 12 C -0.313757 2.382634 2.391855 0
M  V30 13 C -1.623005 2.673035 1.740915 0
M  V30 14 C -1.762512 2.020133 0.354360 0
M  V30 15 N -2.239559 0.650963 0.517121 0
M  V30 16 C -2.597628 -0.343769 -0.464566 0
M  V30 17 C -3.019693 -1.627010 -0.132292 0
M  V30 18 C -3.333337 -2.457666 -1.182358 0
M  V30 19 C -3.258114 -2.108523 -2.512342 0
M  V30 20 N -3.527396 -2.799627 -3.651938 0
M  V30 21 N -3.284610 -1.982015 -4.682358 0
M  V30 22 C -2.868692 -0.792324 -4.214335 0
M  V30 23 C -2.840974 -0.840566 -2.833699 0
M  V30 24 C -2.517426 0.021969 -1.806881 0
M  V30 25 C -0.306437 1.972069 -0.140901 0
M  V30 26 C 0.492193 -2.139394 -0.149251 0
M  V30 27 C 0.364671 -3.453021 0.229875 0
M  V30 28 C 1.088022 -3.829793 1.350476 0
M  V30 29 Cl 0.980050 -5.476183 1.894585 0
M  V30 30 H 4.807614 -0.446343 2.985944 0
M  V30 31 H 5.062040 -2.079311 2.147902 0
M  V30 32 H 5.902905 -1.658644 3.668865 0
M  V30 33 H 2.552432 -4.350313 3.497632 0
M  V30 34 H 2.600801 -0.930550 2.152328 0
M  V30 35 H 1.171530 0.123026 -1.107614 0
M  V30 36 H 2.334871 0.613412 0.141691 0
M  V30 37 H 1.354499 1.099741 2.411917 0
M  V30 38 H -0.196435 0.251430 2.571883 0
M  V30 39 H -0.437618 2.365125 3.503635 0
M  V30 40 H 0.470190 3.164231 2.184663 0
M  V30 41 H -1.607312 3.775804 1.496035 0
M  V30 42 H -2.510910 2.506871 2.369201 0
M  V30 43 H -2.407012 2.606680 -0.300433 0
M  V30 44 H -2.353892 0.293462 1.514421 0
M  V30 45 H -3.076843 -1.895445 0.913004 0
M  V30 46 H -3.658591 -3.451762 -0.869577 0
M  V30 47 H -3.862552 -3.795198 -3.638060 0
M  V30 48 H -2.594974 0.074582 -4.796373 0
M  V30 49 H -2.208546 0.989138 -2.180261 0
M  V30 50 H 0.127811 2.971884 0.123149 0
M  V30 51 H -0.214566 1.811888 -1.209290 0
M  V30 52 H -0.081782 -1.855779 -1.032000 0
M  V30 53 H -0.264327 -4.150576 -0.316130 0
M  V30 END ATOM
M  V30 BEGIN BOND
M  V30 1 1 1 2
M  V30 2 2 2 3
M  V30 3 2 2 4
M  V30 4 1 2 5
M  V30 5 1 5 6
M  V30 6 2 6 7
M  V30 7 1 7 8
M  V30 8 1 8 9
M  V30 9 1 9 10
M  V30 10 1 10 11
M  V30 11 1 11 12
M  V30 12 1 12 13
M  V30 13 1 13 14
M  V30 14 1 14 15
M  V30 15 1 15 16
M  V30 16 2 16 17
M  V30 17 1 17 18
M  V30 18 2 18 19
M  V30 19 1 19 20
M  V30 20 1 20 21
M  V30 21 2 21 22
M  V30 22 1 22 23
M  V30 23 2 23 24
M  V30 24 1 14 25
M  V30 25 2 8 26
M  V30 26 1 26 27
M  V30 27 2 27 28
M  V30 28 1 28 29
M  V30 29 1 28 6
M  V30 30 1 25 10
M  V30 31 1 24 16
M  V30 32 1 23 19
M  V30 33 1 1 30
M  V30 34 1 1 31
M  V30 35 1 1 32
M  V30 36 1 5 33
M  V30 37 1 7 34
M  V30 38 1 9 35
M  V30 39 1 9 36
M  V30 40 1 11 37
M  V30 41 1 11 38
M  V30 42 1 12 39
M  V30 43 1 12 40
M  V30 44 1 13 41
M  V30 45 1 13 42
M  V30 46 1 14 43
M  V30 47 1 15 44
M  V30 48 1 17 45
M  V30 49 1 18 46
M  V30 50 1 20 47
M  V30 51 1 22 48
M  V30 52 1 24 49
M  V30 53 1 25 50
M  V30 54 1 25 51
M  V30 55 1 26 52
M  V30 56 1 27 53
M  V30 END BOND
M  V30 END CTAB
M  END
>  <Dataset>  (892) 
ChEMBL_Kinases

>  <Ligand_Instance>  (892) 
nan

>  <PDB_ID>  (892) 
nan

>  <Standardized_SMILES>  (892) 
CS(=O)(=O)Nc1cc(CN2CCCC(Nc3ccc4[nH]ncc4c3)C2)ccc1Cl

>  <Name>  (892) 
nan

>  <Pocket>  (892) 
nan

>  <ATP_Site>  (892) 
nan

>  <Peripheral>  (892) 
nan

>  <Num_H_Atoms_ProtBoundConf>  (892) 
nan

>  <Num_Resolved_Atoms>  (892) 
nan

>  <Num_Not_Resolved_Atoms>  (892) 
nan

$$$$
CHEMBL3689443
     RDKit          3D

  0  0  0  0  0  0  0  0  0  0999 V3000
M  V30 BEGIN CTAB
M  V30 COUNTS 58 62 0 0 0
M  V30 BEGIN ATOM
M  V30 1 O 1.875190 -4.141486 4.331213 0
M  V30 2 C 1.502272 -3.993589 3.000918 0
M  V30 3 C 0.721913 -2.708141 2.830455 0
M  V30 4 N 1.497827 -1.555624 3.209267 0
M  V30 5 C 1.908157 -1.256674 4.584282 0
M  V30 6 C 1.963538 0.253676 4.604833 0
M  V30 7 C 2.303836 0.593391 3.185776 0
M  V30 8 C 2.814570 1.719476 2.585079 0
M  V30 9 C 3.024511 1.731525 1.222365 0
M  V30 10 C 2.756368 0.680339 0.397260 0
M  V30 11 C 2.966746 0.659590 -1.072411 0
M  V30 12 N 1.819301 1.070354 -1.747337 0
M  V30 13 C 1.269893 2.342450 -1.565761 0
M  V30 14 C -0.042254 2.263394 -0.832699 0
M  V30 15 C -1.001251 1.402713 -1.657937 0
M  V30 16 C -0.375725 0.056040 -1.776994 0
M  V30 17 N -1.190386 -0.938093 -2.436539 0
M  V30 18 C -2.405051 -1.587228 -2.099451 0
M  V30 19 C -3.040142 -2.501883 -2.904876 0
M  V30 20 C -4.197180 -3.102747 -2.522909 0
M  V30 21 C -4.816033 -2.848458 -1.319437 0
M  V30 22 N -5.940913 -3.309635 -0.735158 0
M  V30 23 N -6.065209 -2.714504 0.450242 0
M  V30 24 C -5.029927 -1.884435 0.616385 0
M  V30 25 C -4.192086 -1.935008 -0.502147 0
M  V30 26 C -3.033160 -1.333386 -0.884671 0
M  V30 27 C 1.012040 0.082540 -2.364322 0
M  V30 28 C 2.242865 -0.439077 1.032341 0
M  V30 29 C 2.012156 -0.510361 2.387575 0
M  V30 30 H 1.106937 -4.029282 4.943518 0
M  V30 31 H 2.396187 -4.006733 2.360342 0
M  V30 32 H 0.820002 -4.834877 2.752148 0
M  V30 33 H -0.150826 -2.733187 3.531359 0
M  V30 34 H 0.303938 -2.619993 1.820538 0
M  V30 35 H 1.134484 -1.651952 5.263504 0
M  V30 36 H 2.882295 -1.721256 4.818209 0
M  V30 37 H 2.787749 0.652310 5.224617 0
M  V30 38 H 1.000007 0.697255 4.909783 0
M  V30 39 H 3.033332 2.561884 3.225525 0
M  V30 40 H 3.426465 2.631405 0.810716 0
M  V30 41 H 3.193059 -0.388422 -1.353166 0
M  V30 42 H 3.886014 1.260702 -1.293619 0
M  V30 43 H 1.948607 3.003874 -1.013733 0
M  V30 44 H 1.055893 2.837306 -2.540065 0
M  V30 45 H -0.527760 3.245326 -0.671920 0
M  V30 46 H 0.057273 1.759435 0.150153 0
M  V30 47 H -1.936072 1.362484 -1.113152 0
M  V30 48 H -1.103933 1.884004 -2.668241 0
M  V30 49 H -0.263390 -0.328569 -0.717470 0
M  V30 50 H -0.810359 -1.260611 -3.378682 0
M  V30 51 H -2.574074 -2.727569 -3.871369 0
M  V30 52 H -4.634798 -3.809101 -3.209816 0
M  V30 53 H -6.544038 -4.015335 -1.217931 0
M  V30 54 H -4.853801 -1.251229 1.499858 0
M  V30 55 H -2.654697 -0.649026 -0.145356 0
M  V30 56 H 0.937757 0.234599 -3.464493 0
M  V30 57 H 1.461150 -0.919507 -2.209807 0
M  V30 58 H 2.005341 -1.316946 0.430475 0
M  V30 END ATOM
M  V30 BEGIN BOND
M  V30 1 1 1 2
M  V30 2 1 2 3
M  V30 3 1 3 4
M  V30 4 1 4 5
M  V30 5 1 5 6
M  V30 6 1 6 7
M  V30 7 2 7 8
M  V30 8 1 8 9
M  V30 9 2 9 10
M  V30 10 1 10 11
M  V30 11 1 11 12
M  V30 12 1 12 13
M  V30 13 1 13 14
M  V30 14 1 14 15
M  V30 15 1 15 16
M  V30 16 1 16 17
M  V30 17 1 17 18
M  V30 18 2 18 19
M  V30 19 1 19 20
M  V30 20 2 20 21
M  V30 21 1 21 22
M  V30 22 1 22 23
M  V30 23 2 23 24
M  V30 24 1 24 25
M  V30 25 2 25 26
M  V30 26 1 16 27
M  V30 27 1 10 28
M  V30 28 2 28 29
M  V30 29 1 29 4
M  V30 30 1 29 7
M  V30 31 1 27 12
M  V30 32 1 26 18
M  V30 33 1 25 21
M  V30 34 1 1 30
M  V30 35 1 2 31
M  V30 36 1 2 32
M  V30 37 1 3 33
M  V30 38 1 3 34
M  V30 39 1 5 35
M  V30 40 1 5 36
M  V30 41 1 6 37
M  V30 42 1 6 38
M  V30 43 1 8 39
M  V30 44 1 9 40
M  V30 45 1 11 41
M  V30 46 1 11 42
M  V30 47 1 13 43
M  V30 48 1 13 44
M  V30 49 1 14 45
M  V30 50 1 14 46
M  V30 51 1 15 47
M  V30 52 1 15 48
M  V30 53 1 16 49
M  V30 54 1 17 50
M  V30 55 1 19 51
M  V30 56 1 20 52
M  V30 57 1 22 53
M  V30 58 1 24 54
M  V30 59 1 26 55
M  V30 60 1 27 56
M  V30 61 1 27 57
M  V30 62 1 28 58
M  V30 END BOND
M  V30 END CTAB
M  END
>  <Dataset>  (893) 
ChEMBL_Kinases

>  <Ligand_Instance>  (893) 
nan

>  <PDB_ID>  (893) 
nan

>  <Standardized_SMILES>  (893) 
OCCN1CCc2ccc(CN3CCCC(Nc4ccc5[nH]ncc5c4)C3)cc21

>  <Name>  (893) 
nan

>  <Pocket>  (893) 
nan

>  <ATP_Site>  (893) 
nan

>  <Peripheral>  (893) 
nan

>  <Num_H_Atoms_ProtBoundConf>  (893) 
nan

>  <Num_Resolved_Atoms>  (893) 
nan

>  <Num_Not_Resolved_Atoms>  (893) 
nan

$$$$
CHEMBL3689444
     RDKit          3D

  0  0  0  0  0  0  0  0  0  0999 V3000
M  V30 BEGIN CTAB
M  V30 COUNTS 56 60 0 0 0
M  V30 BEGIN ATOM
M  V30 1 N 1.091181 -4.898620 1.562997 0
M  V30 2 C 2.056537 -5.465692 0.713701 0
M  V30 3 O 1.231814 -6.428661 0.628508 0
M  V30 4 C 3.285976 -4.681372 0.476600 0
M  V30 5 N 3.282935 -3.405917 1.162924 0
M  V30 6 C 3.741179 -3.251561 2.414212 0
M  V30 7 C 3.573613 -1.935735 2.715798 0
M  V30 8 C 3.009540 -1.306979 1.627758 0
M  V30 9 C 2.637650 -0.001540 1.390336 0
M  V30 10 C 2.071593 0.468336 0.195025 0
M  V30 11 C 1.762298 1.897416 0.144809 0
M  V30 12 N 0.449114 2.273698 0.600099 0
M  V30 13 C 0.293822 3.725748 0.630088 0
M  V30 14 C -0.935999 3.943720 1.521960 0
M  V30 15 C -2.135946 3.339175 0.857471 0
M  V30 16 C -1.874977 1.864638 0.607121 0
M  V30 17 N -3.011057 1.208409 0.017338 0
M  V30 18 C -3.254347 -0.146716 -0.332034 0
M  V30 19 C -4.424356 -0.535815 -0.906114 0
M  V30 20 C -4.723767 -1.814697 -1.261060 0
M  V30 21 C -3.783864 -2.777318 -1.024829 0
M  V30 22 N -3.832256 -4.100145 -1.280181 0
M  V30 23 N -2.694617 -4.618323 -0.880857 0
M  V30 24 C -1.898010 -3.661196 -0.367292 0
M  V30 25 C -2.579130 -2.452820 -0.447123 0
M  V30 26 C -2.331342 -1.146451 -0.109443 0
M  V30 27 C -0.630824 1.824509 -0.257897 0
M  V30 28 C 1.909232 -0.511380 -0.758587 0
M  V30 29 C 2.274763 -1.823892 -0.540467 0
M  V30 30 C 2.827391 -2.253186 0.641101 0
M  V30 31 H 0.278900 -4.474375 2.058005 0
M  V30 32 H 1.032756 -4.631918 2.585606 0
M  V30 33 H 4.151905 -5.287895 0.818028 0
M  V30 34 H 3.401813 -4.482332 -0.628300 0
M  V30 35 H 4.165603 -3.984432 3.088583 0
M  V30 36 H 3.850072 -1.476924 3.673353 0
M  V30 37 H 2.809789 0.687003 2.210485 0
M  V30 38 H 2.476241 2.438037 0.798987 0
M  V30 39 H 1.972101 2.327073 -0.882423 0
M  V30 40 H 1.166751 4.244204 1.021272 0
M  V30 41 H -0.007281 4.046204 -0.385902 0
M  V30 42 H -1.076862 5.010264 1.755161 0
M  V30 43 H -0.721204 3.332874 2.437352 0
M  V30 44 H -3.009701 3.413991 1.534824 0
M  V30 45 H -2.374498 3.786072 -0.116695 0
M  V30 46 H -1.649937 1.404064 1.585952 0
M  V30 47 H -3.814655 1.870921 -0.193563 0
M  V30 48 H -5.196698 0.212420 -1.107610 0
M  V30 49 H -5.662087 -2.062600 -1.710248 0
M  V30 50 H -4.592911 -4.661097 -1.708081 0
M  V30 51 H -0.906297 -3.678332 0.056945 0
M  V30 52 H -1.388200 -0.958413 0.337195 0
M  V30 53 H -0.459832 0.898901 -0.789133 0
M  V30 54 H -0.815696 2.604734 -1.058842 0
M  V30 55 H 1.473780 -0.153652 -1.689075 0
M  V30 56 H 2.131511 -2.558290 -1.310994 0
M  V30 END ATOM
M  V30 BEGIN BOND
M  V30 1 1 1 2
M  V30 2 2 2 3
M  V30 3 1 2 4
M  V30 4 1 4 5
M  V30 5 1 5 6
M  V30 6 2 6 7
M  V30 7 1 7 8
M  V30 8 2 8 9
M  V30 9 1 9 10
M  V30 10 1 10 11
M  V30 11 1 11 12
M  V30 12 1 12 13
M  V30 13 1 13 14
M  V30 14 1 14 15
M  V30 15 1 15 16
M  V30 16 1 16 17
M  V30 17 1 17 18
M  V30 18 2 18 19
M  V30 19 1 19 20
M  V30 20 2 20 21
M  V30 21 1 21 22
M  V30 22 1 22 23
M  V30 23 2 23 24
M  V30 24 1 24 25
M  V30 25 2 25 26
M  V30 26 1 16 27
M  V30 27 2 10 28
M  V30 28 1 28 29
M  V30 29 2 29 30
M  V30 30 1 30 5
M  V30 31 1 30 8
M  V30 32 1 27 12
M  V30 33 1 26 18
M  V30 34 1 25 21
M  V30 35 1 1 31
M  V30 36 1 1 32
M  V30 37 1 4 33
M  V30 38 1 4 34
M  V30 39 1 6 35
M  V30 40 1 7 36
M  V30 41 1 9 37
M  V30 42 1 11 38
M  V30 43 1 11 39
M  V30 44 1 13 40
M  V30 45 1 13 41
M  V30 46 1 14 42
M  V30 47 1 14 43
M  V30 48 1 15 44
M  V30 49 1 15 45
M  V30 50 1 16 46
M  V30 51 1 17 47
M  V30 52 1 19 48
M  V30 53 1 20 49
M  V30 54 1 22 50
M  V30 55 1 24 51
M  V30 56 1 26 52
M  V30 57 1 27 53
M  V30 58 1 27 54
M  V30 59 1 28 55
M  V30 60 1 29 56
M  V30 END BOND
M  V30 END CTAB
M  END
>  <Dataset>  (894) 
ChEMBL_Kinases

>  <Ligand_Instance>  (894) 
nan

>  <PDB_ID>  (894) 
nan

>  <Standardized_SMILES>  (894) 
NC(=O)Cn1ccc2cc(CN3CCCC(Nc4ccc5[nH]ncc5c4)C3)ccc21

>  <Name>  (894) 
nan

>  <Pocket>  (894) 
nan

>  <ATP_Site>  (894) 
nan

>  <Peripheral>  (894) 
nan

>  <Num_H_Atoms_ProtBoundConf>  (894) 
nan

>  <Num_Resolved_Atoms>  (894) 
nan

>  <Num_Not_Resolved_Atoms>  (894) 
nan

$$$$
CHEMBL3689436
     RDKit          3D

  0  0  0  0  0  0  0  0  0  0999 V3000
M  V30 BEGIN CTAB
M  V30 COUNTS 50 53 0 0 0
M  V30 BEGIN ATOM
M  V30 1 O 5.048603 -5.124434 1.586548 0
M  V30 2 C 3.864225 -4.618284 1.020299 0
M  V30 3 C 3.924059 -4.779697 -0.456744 0
M  V30 4 O 2.799839 -4.309666 -1.105467 0
M  V30 5 C 2.337342 -3.045260 -1.144941 0
M  V30 6 C 1.159730 -3.086944 -1.910599 0
M  V30 7 C 0.392578 -1.940952 -2.171263 0
M  V30 8 C 0.797260 -0.724303 -1.664055 0
M  V30 9 C 1.950364 -0.658003 -0.909512 0
M  V30 10 C 2.434566 0.601439 -0.349786 0
M  V30 11 N 1.957982 0.980200 0.924593 0
M  V30 12 C 2.209421 0.113579 2.018523 0
M  V30 13 C 0.960345 0.121402 2.888721 0
M  V30 14 C -0.094076 0.385019 1.797758 0 CFG=1
M  V30 15 N -1.325703 0.833203 2.366324 0
M  V30 16 C -2.531664 1.108174 1.669957 0
M  V30 17 C -2.666568 0.953181 0.309393 0
M  V30 18 C -3.834845 1.225243 -0.358454 0
M  V30 19 C -4.922365 1.669496 0.336187 0
M  V30 20 N -6.173006 2.016999 0.009702 0
M  V30 21 N -6.825487 2.380400 1.094420 0
M  V30 22 C -6.055608 2.295034 2.181397 0
M  V30 23 C -4.841838 1.842213 1.701832 0
M  V30 24 C -3.648418 1.556363 2.328717 0
M  V30 25 C 0.627821 1.464608 1.024101 0
M  V30 26 C 2.679520 -1.800330 -0.673035 0
M  V30 27 H 4.848809 -6.030552 1.898983 0
M  V30 28 H 3.770612 -3.599038 1.357407 0
M  V30 29 H 2.986227 -5.182371 1.443080 0
M  V30 30 H 4.827123 -4.267469 -0.871641 0
M  V30 31 H 4.074490 -5.876384 -0.669423 0
M  V30 32 H 0.647628 -3.927995 -2.410591 0
M  V30 33 H -0.518613 -1.868526 -2.742497 0
M  V30 34 H 0.284043 0.193251 -1.807477 0
M  V30 35 H 2.236904 1.465305 -1.047001 0
M  V30 36 H 3.563132 0.598112 -0.284374 0
M  V30 37 H 2.553310 -0.894041 1.800380 0
M  V30 38 H 3.006316 0.581150 2.661287 0
M  V30 39 H 0.970433 0.947846 3.631305 0
M  V30 40 H 0.795273 -0.855277 3.366431 0
M  V30 41 H -0.225007 -0.550209 1.259777 0
M  V30 42 H -1.339252 0.975241 3.420139 0
M  V30 43 H -1.862594 0.608256 -0.289035 0
M  V30 44 H -3.957065 1.106189 -1.444870 0
M  V30 45 H -6.557994 1.999273 -0.950378 0
M  V30 46 H -6.268146 2.513312 3.223211 0
M  V30 47 H -3.580998 1.690826 3.402263 0
M  V30 48 H 0.167583 1.773633 0.096265 0
M  V30 49 H 0.656736 2.349506 1.725300 0
M  V30 50 H 3.598494 -1.850156 -0.113895 0
M  V30 END ATOM
M  V30 BEGIN BOND
M  V30 1 1 1 2
M  V30 2 1 2 3
M  V30 3 1 3 4
M  V30 4 1 4 5
M  V30 5 2 5 6
M  V30 6 1 6 7
M  V30 7 2 7 8
M  V30 8 1 8 9
M  V30 9 1 9 10
M  V30 10 1 10 11
M  V30 11 1 11 12
M  V30 12 1 12 13
M  V30 13 1 13 14
M  V30 14 1 14 15
M  V30 15 1 15 16
M  V30 16 2 16 17
M  V30 17 1 17 18
M  V30 18 2 18 19
M  V30 19 1 19 20
M  V30 20 1 20 21
M  V30 21 2 21 22
M  V30 22 1 22 23
M  V30 23 2 23 24
M  V30 24 1 14 25
M  V30 25 2 9 26
M  V30 26 1 26 5
M  V30 27 1 25 11
M  V30 28 1 24 16
M  V30 29 1 23 19
M  V30 30 1 1 27
M  V30 31 1 2 28
M  V30 32 1 2 29
M  V30 33 1 3 30
M  V30 34 1 3 31
M  V30 35 1 6 32
M  V30 36 1 7 33
M  V30 37 1 8 34
M  V30 38 1 10 35
M  V30 39 1 10 36
M  V30 40 1 12 37
M  V30 41 1 12 38
M  V30 42 1 13 39
M  V30 43 1 13 40
M  V30 44 1 14 41 CFG=3
M  V30 45 1 15 42
M  V30 46 1 17 43
M  V30 47 1 18 44
M  V30 48 1 20 45
M  V30 49 1 22 46
M  V30 50 1 24 47
M  V30 51 1 25 48
M  V30 52 1 25 49
M  V30 53 1 26 50
M  V30 END BOND
M  V30 END CTAB
M  END
>  <Dataset>  (895) 
ChEMBL_Kinases

>  <Ligand_Instance>  (895) 
nan

>  <PDB_ID>  (895) 
nan

>  <Standardized_SMILES>  (895) 
OCCOc1cccc(CN2CC[C@@H](Nc3ccc4[nH]ncc4c3)C2)c1

>  <Name>  (895) 
nan

>  <Pocket>  (895) 
nan

>  <ATP_Site>  (895) 
nan

>  <Peripheral>  (895) 
nan

>  <Num_H_Atoms_ProtBoundConf>  (895) 
nan

>  <Num_Resolved_Atoms>  (895) 
nan

>  <Num_Not_Resolved_Atoms>  (895) 
nan

$$$$
CHEMBL3689358
     RDKit          3D

  0  0  0  0  0  0  0  0  0  0999 V3000
M  V30 BEGIN CTAB
M  V30 COUNTS 57 60 0 0 0
M  V30 BEGIN ATOM
M  V30 1 C 1.223002 -4.080706 5.250067 0
M  V30 2 C 2.205438 -4.353911 4.139195 0
M  V30 3 C 1.979778 -3.304101 3.054314 0
M  V30 4 C 2.944880 -3.517899 1.892612 0
M  V30 5 C 2.652033 -2.454960 0.894214 0
M  V30 6 C 3.368672 -1.265431 1.052338 0
M  V30 7 C 3.139825 -0.240169 0.157463 0
M  V30 8 C 2.224924 -0.337843 -0.898408 0
M  V30 9 C 2.127556 0.869425 -1.740114 0
M  V30 10 N 1.152136 1.805931 -1.303434 0
M  V30 11 C 1.343493 2.289052 0.023933 0
M  V30 12 C 0.470935 3.451789 0.364706 0
M  V30 13 C -0.922653 3.322892 -0.213028 0
M  V30 14 C -1.095393 1.818451 -0.494880 0
M  V30 15 N -2.454722 1.467726 -0.695897 0
M  V30 16 C -3.025776 0.204365 -0.875845 0
M  V30 17 C -2.330392 -0.985400 -0.862143 0
M  V30 18 C -2.854177 -2.257332 -1.045413 0
M  V30 19 C -4.236823 -2.286366 -1.263592 0
M  V30 20 N -5.065301 -3.318123 -1.475093 0
M  V30 21 N -6.323456 -2.877801 -1.636126 0
M  V30 22 C -6.332025 -1.521826 -1.529315 0
M  V30 23 C -5.018921 -1.153370 -1.295168 0
M  V30 24 C -4.378127 0.047514 -1.099318 0
M  V30 25 C -0.198927 1.559165 -1.685758 0
M  V30 26 C 1.551904 -1.535335 -0.998710 0
M  V30 27 C 1.745931 -2.571017 -0.139925 0
M  V30 28 H 1.649266 -4.422212 6.231970 0
M  V30 29 H 1.000906 -3.008974 5.377727 0
M  V30 30 H 0.255775 -4.589429 5.027471 0
M  V30 31 H 2.036696 -5.365487 3.695007 0
M  V30 32 H 3.242070 -4.264016 4.538195 0
M  V30 33 H 0.942606 -3.442349 2.723851 0
M  V30 34 H 2.080469 -2.297020 3.487115 0
M  V30 35 H 3.993705 -3.438863 2.220556 0
M  V30 36 H 2.694537 -4.515298 1.459484 0
M  V30 37 H 4.095932 -1.142357 1.864447 0
M  V30 38 H 3.734913 0.669450 0.335790 0
M  V30 39 H 3.098154 1.364948 -1.815974 0
M  V30 40 H 1.834839 0.511126 -2.761765 0
M  V30 41 H 1.326866 1.467459 0.793423 0
M  V30 42 H 2.412891 2.652179 0.072937 0
M  V30 43 H 0.363379 3.469779 1.474767 0
M  V30 44 H 0.983147 4.388436 0.100040 0
M  V30 45 H -1.699811 3.689879 0.469340 0
M  V30 46 H -0.889905 3.844531 -1.197514 0
M  V30 47 H -0.652000 1.301921 0.375817 0
M  V30 48 H -3.129335 2.291454 -0.710223 0
M  V30 49 H -1.266605 -0.981783 -0.688398 0
M  V30 50 H -2.261103 -3.138251 -1.022827 0
M  V30 51 H -4.806184 -4.344431 -1.516882 0
M  V30 52 H -7.151932 -0.814065 -1.600880 0
M  V30 53 H -5.016770 0.937220 -1.128025 0
M  V30 54 H -0.308393 0.591467 -2.159135 0
M  V30 55 H -0.460860 2.348845 -2.458016 0
M  V30 56 H 0.852865 -1.564512 -1.833258 0
M  V30 57 H 1.212081 -3.488121 -0.240625 0
M  V30 END ATOM
M  V30 BEGIN BOND
M  V30 1 1 1 2
M  V30 2 1 2 3
M  V30 3 1 3 4
M  V30 4 1 4 5
M  V30 5 2 5 6
M  V30 6 1 6 7
M  V30 7 2 7 8
M  V30 8 1 8 9
M  V30 9 1 9 10
M  V30 10 1 10 11
M  V30 11 1 11 12
M  V30 12 1 12 13
M  V30 13 1 13 14
M  V30 14 1 14 15
M  V30 15 1 15 16
M  V30 16 2 16 17
M  V30 17 1 17 18
M  V30 18 2 18 19
M  V30 19 1 19 20
M  V30 20 1 20 21
M  V30 21 2 21 22
M  V30 22 1 22 23
M  V30 23 2 23 24
M  V30 24 1 14 25
M  V30 25 1 8 26
M  V30 26 2 26 27
M  V30 27 1 27 5
M  V30 28 1 25 10
M  V30 29 1 24 16
M  V30 30 1 23 19
M  V30 31 1 1 28
M  V30 32 1 1 29
M  V30 33 1 1 30
M  V30 34 1 2 31
M  V30 35 1 2 32
M  V30 36 1 3 33
M  V30 37 1 3 34
M  V30 38 1 4 35
M  V30 39 1 4 36
M  V30 40 1 6 37
M  V30 41 1 7 38
M  V30 42 1 9 39
M  V30 43 1 9 40
M  V30 44 1 11 41
M  V30 45 1 11 42
M  V30 46 1 12 43
M  V30 47 1 12 44
M  V30 48 1 13 45
M  V30 49 1 13 46
M  V30 50 1 14 47
M  V30 51 1 15 48
M  V30 52 1 17 49
M  V30 53 1 18 50
M  V30 54 1 20 51
M  V30 55 1 22 52
M  V30 56 1 24 53
M  V30 57 1 25 54
M  V30 58 1 25 55
M  V30 59 1 26 56
M  V30 60 1 27 57
M  V30 END BOND
M  V30 END CTAB
M  END
>  <Dataset>  (896) 
ChEMBL_Kinases

>  <Ligand_Instance>  (896) 
nan

>  <PDB_ID>  (896) 
nan

>  <Standardized_SMILES>  (896) 
CCCCc1ccc(CN2CCCC(Nc3ccc4[nH]ncc4c3)C2)cc1

>  <Name>  (896) 
nan

>  <Pocket>  (896) 
nan

>  <ATP_Site>  (896) 
nan

>  <Peripheral>  (896) 
nan

>  <Num_H_Atoms_ProtBoundConf>  (896) 
nan

>  <Num_Resolved_Atoms>  (896) 
nan

>  <Num_Not_Resolved_Atoms>  (896) 
nan

$$$$
CHEMBL3689357
     RDKit          3D

  0  0  0  0  0  0  0  0  0  0999 V3000
M  V30 BEGIN CTAB
M  V30 COUNTS 57 60 0 0 0
M  V30 BEGIN ATOM
M  V30 1 C 2.142965 -2.487513 4.168689 0
M  V30 2 C 1.677663 -3.747862 3.471655 0
M  V30 3 C 0.185674 -3.636535 3.169139 0
M  V30 4 C 2.428797 -3.931965 2.161946 0
M  V30 5 C 2.210587 -2.802538 1.249440 0
M  V30 6 C 3.039971 -1.697812 1.262527 0
M  V30 7 C 2.860391 -0.622100 0.418485 0
M  V30 8 C 1.820048 -0.619151 -0.486260 0
M  V30 9 C 1.471250 0.448493 -1.470605 0
M  V30 10 N 0.565617 1.353418 -0.852849 0
M  V30 11 C 1.005720 2.033346 0.304850 0
M  V30 12 C 0.371584 3.357644 0.557646 0
M  V30 13 C -1.036047 3.519848 0.103320 0
M  V30 14 C -1.489319 2.483725 -0.909374 0
M  V30 15 N -1.864562 1.261943 -0.226778 0
M  V30 16 C -2.422178 0.098279 -0.816560 0
M  V30 17 C -2.718791 -0.039724 -2.154087 0
M  V30 18 C -3.253560 -1.171050 -2.729309 0
M  V30 19 C -3.514997 -2.243603 -1.928154 0
M  V30 20 N -4.013607 -3.481564 -2.083265 0
M  V30 21 N -4.058127 -4.148809 -0.937168 0
M  V30 22 C -3.576404 -3.351308 0.042900 0
M  V30 23 C -3.241345 -2.161684 -0.598203 0
M  V30 24 C -2.707460 -1.012374 -0.065870 0
M  V30 25 C -0.214620 2.175866 -1.715049 0
M  V30 26 C 1.003609 -1.752450 -0.469830 0
M  V30 27 C 1.156019 -2.844198 0.360850 0
M  V30 28 H 1.865924 -2.503883 5.235956 0
M  V30 29 H 3.248656 -2.419274 4.133995 0
M  V30 30 H 1.663419 -1.583227 3.734228 0
M  V30 31 H 1.797160 -4.617412 4.135699 0
M  V30 32 H -0.332947 -3.738819 4.132891 0
M  V30 33 H -0.065131 -4.538959 2.572356 0
M  V30 34 H -0.043989 -2.718970 2.617335 0
M  V30 35 H 3.513099 -4.034633 2.424016 0
M  V30 36 H 2.151271 -4.903744 1.709545 0
M  V30 37 H 3.878577 -1.633918 1.949364 0
M  V30 38 H 3.483107 0.261865 0.392815 0
M  V30 39 H 0.981073 -0.021532 -2.340226 0
M  V30 40 H 2.414127 0.941050 -1.830967 0
M  V30 41 H 0.895576 1.370588 1.186874 0
M  V30 42 H 2.106258 2.213798 0.195775 0
M  V30 43 H 0.354806 3.503940 1.677667 0
M  V30 44 H 1.035022 4.203577 0.213754 0
M  V30 45 H -1.096535 4.495995 -0.461892 0
M  V30 46 H -1.784336 3.587698 0.901403 0
M  V30 47 H -2.291869 2.831084 -1.557403 0
M  V30 48 H -1.710446 1.227600 0.810761 0
M  V30 49 H -2.537945 0.777939 -2.831186 0
M  V30 50 H -3.472668 -1.239842 -3.787836 0
M  V30 51 H -4.336030 -3.889824 -3.000701 0
M  V30 52 H -3.476484 -3.591536 1.091049 0
M  V30 53 H -2.496110 -0.973723 1.012762 0
M  V30 54 H -0.410691 1.794021 -2.710052 0
M  V30 55 H 0.264757 3.187147 -1.878997 0
M  V30 56 H 0.158208 -1.806195 -1.169135 0
M  V30 57 H 0.477276 -3.674883 0.303155 0
M  V30 END ATOM
M  V30 BEGIN BOND
M  V30 1 1 1 2
M  V30 2 1 2 3
M  V30 3 1 2 4
M  V30 4 1 4 5
M  V30 5 2 5 6
M  V30 6 1 6 7
M  V30 7 2 7 8
M  V30 8 1 8 9
M  V30 9 1 9 10
M  V30 10 1 10 11
M  V30 11 1 11 12
M  V30 12 1 12 13
M  V30 13 1 13 14
M  V30 14 1 14 15
M  V30 15 1 15 16
M  V30 16 2 16 17
M  V30 17 1 17 18
M  V30 18 2 18 19
M  V30 19 1 19 20
M  V30 20 1 20 21
M  V30 21 2 21 22
M  V30 22 1 22 23
M  V30 23 2 23 24
M  V30 24 1 14 25
M  V30 25 1 8 26
M  V30 26 2 26 27
M  V30 27 1 27 5
M  V30 28 1 25 10
M  V30 29 1 24 16
M  V30 30 1 23 19
M  V30 31 1 1 28
M  V30 32 1 1 29
M  V30 33 1 1 30
M  V30 34 1 2 31
M  V30 35 1 3 32
M  V30 36 1 3 33
M  V30 37 1 3 34
M  V30 38 1 4 35
M  V30 39 1 4 36
M  V30 40 1 6 37
M  V30 41 1 7 38
M  V30 42 1 9 39
M  V30 43 1 9 40
M  V30 44 1 11 41
M  V30 45 1 11 42
M  V30 46 1 12 43
M  V30 47 1 12 44
M  V30 48 1 13 45
M  V30 49 1 13 46
M  V30 50 1 14 47
M  V30 51 1 15 48
M  V30 52 1 17 49
M  V30 53 1 18 50
M  V30 54 1 20 51
M  V30 55 1 22 52
M  V30 56 1 24 53
M  V30 57 1 25 54
M  V30 58 1 25 55
M  V30 59 1 26 56
M  V30 60 1 27 57
M  V30 END BOND
M  V30 END CTAB
M  END
>  <Dataset>  (897) 
ChEMBL_Kinases

>  <Ligand_Instance>  (897) 
nan

>  <PDB_ID>  (897) 
nan

>  <Standardized_SMILES>  (897) 
CC(C)Cc1ccc(CN2CCCC(Nc3ccc4[nH]ncc4c3)C2)cc1

>  <Name>  (897) 
nan

>  <Pocket>  (897) 
nan

>  <ATP_Site>  (897) 
nan

>  <Peripheral>  (897) 
nan

>  <Num_H_Atoms_ProtBoundConf>  (897) 
nan

>  <Num_Resolved_Atoms>  (897) 
nan

>  <Num_Not_Resolved_Atoms>  (897) 
nan

$$$$
CHEMBL3689354
     RDKit          3D

  0  0  0  0  0  0  0  0  0  0999 V3000
M  V30 BEGIN CTAB
M  V30 COUNTS 52 56 0 0 0
M  V30 BEGIN ATOM
M  V30 1 C -2.739411 -6.189504 2.230780 0
M  V30 2 C -2.179357 -4.937348 2.070585 0
M  V30 3 N -1.625464 -4.891138 0.842052 0
M  V30 4 C -0.929217 -3.825424 0.202233 0
M  V30 5 C -1.526875 -2.846790 -0.570550 0
M  V30 6 C -0.774521 -1.843491 -1.158386 0
M  V30 7 C 0.593807 -1.782709 -0.995913 0
M  V30 8 C 1.503791 -0.781811 -1.558420 0
M  V30 9 N 1.719581 0.373048 -0.726733 0
M  V30 10 C 2.632870 1.278656 -1.394879 0
M  V30 11 C 3.783176 1.688195 -0.540410 0
M  V30 12 C 3.441906 2.111205 0.846538 0
M  V30 13 C 2.200671 1.378091 1.357372 0
M  V30 14 N 1.050688 2.152987 0.884825 0
M  V30 15 C -0.355130 1.981464 1.152630 0
M  V30 16 C -1.368155 2.782074 0.611277 0
M  V30 17 C -2.664640 2.500102 0.971372 0
M  V30 18 C -3.051185 1.503278 1.814290 0
M  V30 19 N -4.251311 1.100163 2.262009 0
M  V30 20 N -4.053462 0.059382 3.080550 0
M  V30 21 C -2.733419 -0.197854 3.152744 0
M  V30 22 C -2.053319 0.700645 2.359012 0
M  V30 23 C -0.746745 0.965710 2.011662 0
M  V30 24 C 2.217975 0.052000 0.580410 0
M  V30 25 C 1.186602 -2.778003 -0.212228 0
M  V30 26 C 0.439206 -3.779632 0.375186 0
M  V30 27 C -1.832656 -6.092335 0.238915 0
M  V30 28 N -2.510171 -6.882149 1.083434 0
M  V30 29 H -3.261248 -6.586398 3.071004 0
M  V30 30 H -2.170513 -4.121712 2.782433 0
M  V30 31 H -2.597510 -2.892215 -0.699168 0
M  V30 32 H -1.219131 -1.072590 -1.763204 0
M  V30 33 H 2.477647 -1.233297 -1.777828 0
M  V30 34 H 1.078759 -0.411428 -2.513809 0
M  V30 35 H 3.083155 0.763083 -2.291879 0
M  V30 36 H 2.081821 2.131251 -1.818458 0
M  V30 37 H 4.598345 0.915674 -0.570887 0
M  V30 38 H 4.258131 2.579388 -1.039478 0
M  V30 39 H 3.274398 3.193382 0.962058 0
M  V30 40 H 4.285317 1.803096 1.507941 0
M  V30 41 H 2.211601 1.239618 2.438051 0
M  V30 42 H 1.198881 2.986953 0.240036 0
M  V30 43 H -1.052033 3.571360 -0.057186 0
M  V30 44 H -3.374766 3.184212 0.492840 0
M  V30 45 H -5.140152 1.572357 1.972400 0
M  V30 46 H -2.243462 -0.970986 3.725669 0
M  V30 47 H -0.073010 0.274025 2.508652 0
M  V30 48 H 3.289306 -0.254941 0.534245 0
M  V30 49 H 1.592180 -0.649579 1.125778 0
M  V30 50 H 2.250758 -2.795062 -0.040957 0
M  V30 51 H 0.953066 -4.538088 0.981690 0
M  V30 52 H -1.512433 -6.383456 -0.756615 0
M  V30 END ATOM
M  V30 BEGIN BOND
M  V30 1 2 1 2
M  V30 2 1 2 3
M  V30 3 1 3 4
M  V30 4 2 4 5
M  V30 5 1 5 6
M  V30 6 2 6 7
M  V30 7 1 7 8
M  V30 8 1 8 9
M  V30 9 1 9 10
M  V30 10 1 10 11
M  V30 11 1 11 12
M  V30 12 1 12 13
M  V30 13 1 13 14
M  V30 14 1 14 15
M  V30 15 2 15 16
M  V30 16 1 16 17
M  V30 17 2 17 18
M  V30 18 1 18 19
M  V30 19 1 19 20
M  V30 20 2 20 21
M  V30 21 1 21 22
M  V30 22 2 22 23
M  V30 23 1 13 24
M  V30 24 1 7 25
M  V30 25 2 25 26
M  V30 26 1 3 27
M  V30 27 2 27 28
M  V30 28 1 28 1
M  V30 29 1 26 4
M  V30 30 1 24 9
M  V30 31 1 23 15
M  V30 32 1 22 18
M  V30 33 1 1 29
M  V30 34 1 2 30
M  V30 35 1 5 31
M  V30 36 1 6 32
M  V30 37 1 8 33
M  V30 38 1 8 34
M  V30 39 1 10 35
M  V30 40 1 10 36
M  V30 41 1 11 37
M  V30 42 1 11 38
M  V30 43 1 12 39
M  V30 44 1 12 40
M  V30 45 1 13 41
M  V30 46 1 14 42
M  V30 47 1 16 43
M  V30 48 1 17 44
M  V30 49 1 19 45
M  V30 50 1 21 46
M  V30 51 1 23 47
M  V30 52 1 24 48
M  V30 53 1 24 49
M  V30 54 1 25 50
M  V30 55 1 26 51
M  V30 56 1 27 52
M  V30 END BOND
M  V30 END CTAB
M  END
>  <Dataset>  (898) 
ChEMBL_Kinases

>  <Ligand_Instance>  (898) 
nan

>  <PDB_ID>  (898) 
nan

>  <Standardized_SMILES>  (898) 
c1cn(-c2ccc(CN3CCCC(Nc4ccc5[nH]ncc5c4)C3)cc2)cn1

>  <Name>  (898) 
nan

>  <Pocket>  (898) 
nan

>  <ATP_Site>  (898) 
nan

>  <Peripheral>  (898) 
nan

>  <Num_H_Atoms_ProtBoundConf>  (898) 
nan

>  <Num_Resolved_Atoms>  (898) 
nan

>  <Num_Not_Resolved_Atoms>  (898) 
nan

$$$$
CHEMBL3689353
     RDKit          3D

  0  0  0  0  0  0  0  0  0  0999 V3000
M  V30 BEGIN CTAB
M  V30 COUNTS 55 59 0 0 0
M  V30 BEGIN ATOM
M  V30 1 C -0.148922 -6.720901 2.220300 0
M  V30 2 C -0.934763 -6.284135 1.187154 0
M  V30 3 C -0.630825 -5.110302 0.506975 0
M  V30 4 C 0.482598 -4.361239 0.870841 0
M  V30 5 C 0.875838 -3.117639 0.211799 0
M  V30 6 C 2.157124 -2.624936 0.047562 0
M  V30 7 C 2.350645 -1.421078 -0.606769 0
M  V30 8 C 1.280731 -0.687297 -1.107948 0
M  V30 9 C 1.616822 0.591292 -1.792744 0
M  V30 10 N 1.637721 1.664050 -0.881574 0
M  V30 11 C 2.533248 1.631779 0.206960 0
M  V30 12 C 2.684705 2.996265 0.806589 0
M  V30 13 C 1.424889 3.689854 1.167429 0
M  V30 14 C 0.244772 3.016266 0.492262 0
M  V30 15 N -0.253579 1.911280 1.260790 0
M  V30 16 C -1.379330 1.021413 1.237201 0
M  V30 17 C -1.566081 -0.029477 2.140884 0
M  V30 18 C -2.714223 -0.764389 1.977589 0
M  V30 19 C -3.669197 -0.544238 1.011303 0
M  V30 20 N -4.818613 -1.192719 0.760691 0
M  V30 21 N -5.379489 -0.586945 -0.282482 0
M  V30 22 C -4.596861 0.430029 -0.686412 0
M  V30 23 C -3.477532 0.489397 0.128938 0
M  V30 24 C -2.342853 1.256108 0.250264 0
M  V30 25 C 0.641917 2.651904 -0.925634 0
M  V30 26 C 0.007472 -1.196098 -0.934087 0
M  V30 27 C -0.198566 -2.399952 -0.280824 0
M  V30 28 C 1.269817 -4.810431 1.915193 0
M  V30 29 C 0.965389 -5.991081 2.600404 0
M  V30 30 H -0.463368 -7.645732 2.691027 0
M  V30 31 H -1.819061 -6.849105 0.874280 0
M  V30 32 H -1.226384 -4.744571 -0.304051 0
M  V30 33 H 2.939854 -3.246282 0.461281 0
M  V30 34 H 3.400883 -1.111302 -0.688924 0
M  V30 35 H 0.807093 0.767098 -2.530573 0
M  V30 36 H 2.608997 0.487311 -2.276406 0
M  V30 37 H 3.572933 1.343019 -0.140379 0
M  V30 38 H 2.310087 0.830490 0.971594 0
M  V30 39 H 3.340693 2.861583 1.710877 0
M  V30 40 H 3.259856 3.598533 0.057429 0
M  V30 41 H 1.266794 3.733538 2.285312 0
M  V30 42 H 1.484930 4.748863 0.826197 0
M  V30 43 H -0.564731 3.769956 0.417618 0
M  V30 44 H 0.374673 1.668699 2.087437 0
M  V30 45 H -0.819691 -0.185834 2.880513 0
M  V30 46 H -2.782921 -1.568669 2.727114 0
M  V30 47 H -5.192231 -1.997194 1.272247 0
M  V30 48 H -4.771210 1.118097 -1.509812 0
M  V30 49 H -2.335000 2.029330 -0.500279 0
M  V30 50 H 0.988106 3.609709 -1.381977 0
M  V30 51 H -0.231196 2.259848 -1.466065 0
M  V30 52 H -0.752393 -0.554288 -1.357876 0
M  V30 53 H -1.238867 -2.705533 -0.200193 0
M  V30 54 H 2.158816 -4.294645 2.271911 0
M  V30 55 H 1.565567 -6.370635 3.426293 0
M  V30 END ATOM
M  V30 BEGIN BOND
M  V30 1 2 1 2
M  V30 2 1 2 3
M  V30 3 2 3 4
M  V30 4 1 4 5
M  V30 5 2 5 6
M  V30 6 1 6 7
M  V30 7 2 7 8
M  V30 8 1 8 9
M  V30 9 1 9 10
M  V30 10 1 10 11
M  V30 11 1 11 12
M  V30 12 1 12 13
M  V30 13 1 13 14
M  V30 14 1 14 15
M  V30 15 1 15 16
M  V30 16 2 16 17
M  V30 17 1 17 18
M  V30 18 2 18 19
M  V30 19 1 19 20
M  V30 20 1 20 21
M  V30 21 2 21 22
M  V30 22 1 22 23
M  V30 23 2 23 24
M  V30 24 1 14 25
M  V30 25 1 8 26
M  V30 26 2 26 27
M  V30 27 1 4 28
M  V30 28 2 28 29
M  V30 29 1 29 1
M  V30 30 1 27 5
M  V30 31 1 25 10
M  V30 32 1 24 16
M  V30 33 1 23 19
M  V30 34 1 1 30
M  V30 35 1 2 31
M  V30 36 1 3 32
M  V30 37 1 6 33
M  V30 38 1 7 34
M  V30 39 1 9 35
M  V30 40 1 9 36
M  V30 41 1 11 37
M  V30 42 1 11 38
M  V30 43 1 12 39
M  V30 44 1 12 40
M  V30 45 1 13 41
M  V30 46 1 13 42
M  V30 47 1 14 43
M  V30 48 1 15 44
M  V30 49 1 17 45
M  V30 50 1 18 46
M  V30 51 1 20 47
M  V30 52 1 22 48
M  V30 53 1 24 49
M  V30 54 1 25 50
M  V30 55 1 25 51
M  V30 56 1 26 52
M  V30 57 1 27 53
M  V30 58 1 28 54
M  V30 59 1 29 55
M  V30 END BOND
M  V30 END CTAB
M  END
>  <Dataset>  (899) 
ChEMBL_Kinases

>  <Ligand_Instance>  (899) 
nan

>  <PDB_ID>  (899) 
nan

>  <Standardized_SMILES>  (899) 
c1ccc(-c2ccc(CN3CCCC(Nc4ccc5[nH]ncc5c4)C3)cc2)cc1

>  <Name>  (899) 
nan

>  <Pocket>  (899) 
nan

>  <ATP_Site>  (899) 
nan

>  <Peripheral>  (899) 
nan

>  <Num_H_Atoms_ProtBoundConf>  (899) 
nan

>  <Num_Resolved_Atoms>  (899) 
nan

>  <Num_Not_Resolved_Atoms>  (899) 
nan

$$$$
CHEMBL3689352
     RDKit          3D

  0  0  0  0  0  0  0  0  0  0999 V3000
M  V30 BEGIN CTAB
M  V30 COUNTS 49 52 0 0 0
M  V30 BEGIN ATOM
M  V30 1 C 0.486237 -5.080371 3.570396 0
M  V30 2 S 0.748792 -5.730369 1.903597 0
M  V30 3 C 0.945578 -4.433342 0.702730 0
M  V30 4 C 2.220629 -3.971154 0.462596 0
M  V30 5 C 2.364447 -2.974549 -0.461241 0
M  V30 6 C 1.340095 -2.369297 -1.195562 0
M  V30 7 C 1.699536 -1.303733 -2.159595 0
M  V30 8 N 1.708574 -0.046432 -1.501909 0
M  V30 9 C 2.047977 1.063231 -2.372108 0
M  V30 10 C 2.568680 2.160702 -1.468676 0
M  V30 11 C 1.546317 2.585295 -0.462554 0
M  V30 12 C 0.851898 1.421161 0.209593 0
M  V30 13 N -0.409013 1.869675 0.756368 0
M  V30 14 C -1.295801 1.203270 1.640586 0
M  V30 15 C -1.075219 -0.033221 2.202843 0
M  V30 16 C -1.937832 -0.691610 3.048593 0
M  V30 17 C -3.126657 -0.076762 3.371347 0
M  V30 18 N -4.189374 -0.386101 4.135607 0
M  V30 19 N -5.085759 0.586610 4.097192 0
M  V30 20 C -4.644901 1.578086 3.302218 0
M  V30 21 C -3.394451 1.162979 2.834299 0
M  V30 22 C -2.496611 1.776699 1.993306 0
M  V30 23 C 0.531458 0.331455 -0.798432 0
M  V30 24 C 0.080657 -2.874754 -0.912144 0
M  V30 25 C -0.111007 -3.871037 0.004048 0
M  V30 26 H -0.567428 -4.837758 3.777688 0
M  V30 27 H 0.814087 -5.840630 4.322105 0
M  V30 28 H 1.135876 -4.196397 3.676625 0
M  V30 29 H 3.080399 -4.370868 0.976087 0
M  V30 30 H 3.389365 -2.619649 -0.638580 0
M  V30 31 H 2.738218 -1.504158 -2.506357 0
M  V30 32 H 0.973702 -1.369997 -2.995736 0
M  V30 33 H 2.791042 0.828866 -3.139190 0
M  V30 34 H 1.075431 1.436543 -2.777057 0
M  V30 35 H 2.884045 3.053291 -2.037006 0
M  V30 36 H 3.462986 1.726550 -0.949665 0
M  V30 37 H 2.065961 3.155901 0.334865 0
M  V30 38 H 0.822283 3.281927 -0.931791 0
M  V30 39 H 1.454301 0.976092 1.011926 0
M  V30 40 H -0.728132 2.840761 0.457106 0
M  V30 41 H -0.167099 -0.561195 2.005471 0
M  V30 42 H -1.721539 -1.662656 3.465467 0
M  V30 43 H -4.317724 -1.260341 4.691198 0
M  V30 44 H -5.162628 2.519272 3.069979 0
M  V30 45 H -2.771900 2.751305 1.607357 0
M  V30 46 H 0.048757 -0.494478 -0.300768 0
M  V30 47 H -0.235538 0.791771 -1.488946 0
M  V30 48 H -0.730505 -2.412444 -1.481908 0
M  V30 49 H -1.115310 -4.235587 0.193627 0
M  V30 END ATOM
M  V30 BEGIN BOND
M  V30 1 1 1 2
M  V30 2 1 2 3
M  V30 3 2 3 4
M  V30 4 1 4 5
M  V30 5 2 5 6
M  V30 6 1 6 7
M  V30 7 1 7 8
M  V30 8 1 8 9
M  V30 9 1 9 10
M  V30 10 1 10 11
M  V30 11 1 11 12
M  V30 12 1 12 13
M  V30 13 1 13 14
M  V30 14 2 14 15
M  V30 15 1 15 16
M  V30 16 2 16 17
M  V30 17 1 17 18
M  V30 18 1 18 19
M  V30 19 2 19 20
M  V30 20 1 20 21
M  V30 21 2 21 22
M  V30 22 1 12 23
M  V30 23 1 6 24
M  V30 24 2 24 25
M  V30 25 1 25 3
M  V30 26 1 23 8
M  V30 27 1 22 14
M  V30 28 1 21 17
M  V30 29 1 1 26
M  V30 30 1 1 27
M  V30 31 1 1 28
M  V30 32 1 4 29
M  V30 33 1 5 30
M  V30 34 1 7 31
M  V30 35 1 7 32
M  V30 36 1 9 33
M  V30 37 1 9 34
M  V30 38 1 10 35
M  V30 39 1 10 36
M  V30 40 1 11 37
M  V30 41 1 11 38
M  V30 42 1 12 39
M  V30 43 1 13 40
M  V30 44 1 15 41
M  V30 45 1 16 42
M  V30 46 1 18 43
M  V30 47 1 20 44
M  V30 48 1 22 45
M  V30 49 1 23 46
M  V30 50 1 23 47
M  V30 51 1 24 48
M  V30 52 1 25 49
M  V30 END BOND
M  V30 END CTAB
M  END
>  <Dataset>  (900) 
ChEMBL_Kinases

>  <Ligand_Instance>  (900) 
nan

>  <PDB_ID>  (900) 
nan

>  <Standardized_SMILES>  (900) 
CSc1ccc(CN2CCCC(Nc3ccc4[nH]ncc4c3)C2)cc1

>  <Name>  (900) 
nan

>  <Pocket>  (900) 
nan

>  <ATP_Site>  (900) 
nan

>  <Peripheral>  (900) 
nan

>  <Num_H_Atoms_ProtBoundConf>  (900) 
nan

>  <Num_Resolved_Atoms>  (900) 
nan

>  <Num_Not_Resolved_Atoms>  (900) 
nan

$$$$
CHEMBL3689351
     RDKit          3D

  0  0  0  0  0  0  0  0  0  0999 V3000
M  V30 BEGIN CTAB
M  V30 COUNTS 60 63 0 0 0
M  V30 BEGIN ATOM
M  V30 1 C 2.614277 -3.478907 6.002803 0
M  V30 2 N 3.400695 -2.293982 5.761509 0
M  V30 3 C 2.636033 -1.111997 6.054283 0
M  V30 4 C 3.951020 -2.300776 4.439267 0
M  V30 5 C 4.787395 -1.050998 4.173701 0
M  V30 6 C 5.333174 -1.114445 2.784684 0
M  V30 7 O 4.409889 -1.183779 1.759218 0
M  V30 8 C 3.430680 -0.324392 1.383592 0
M  V30 9 C 2.985282 0.897093 1.837585 0
M  V30 10 C 1.933935 1.550403 1.233557 0
M  V30 11 C 1.271149 1.021570 0.145555 0
M  V30 12 C 0.157961 1.818704 -0.419137 0
M  V30 13 N -1.121498 1.556345 0.172074 0
M  V30 14 C -2.109602 2.382917 -0.447835 0
M  V30 15 C -3.034655 1.454185 -1.236501 0
M  V30 16 C -2.183504 0.218193 -1.356630 0
M  V30 17 N -2.878855 -0.980296 -1.676297 0
M  V30 18 C -3.597237 -1.332313 -2.843382 0
M  V30 19 C -3.737731 -0.535768 -3.957030 0
M  V30 20 C -4.443980 -0.870756 -5.091948 0
M  V30 21 C -5.051409 -2.105470 -5.095268 0
M  V30 22 N -5.805178 -2.773980 -5.986316 0
M  V30 23 N -6.171276 -3.974942 -5.518316 0
M  V30 24 C -5.659747 -4.145146 -4.272427 0
M  V30 25 C -4.958059 -2.962244 -4.019290 0
M  V30 26 C -4.233792 -2.553300 -2.922288 0
M  V30 27 C -1.585047 0.196672 0.040404 0
M  V30 28 C 1.686842 -0.200905 -0.340701 0
M  V30 29 C 2.756609 -0.861494 0.277322 0
M  V30 30 H 1.776836 -3.316781 6.720976 0
M  V30 31 H 2.171378 -3.915552 5.066242 0
M  V30 32 H 3.269243 -4.239189 6.486650 0
M  V30 33 H 3.250826 -0.427318 6.673729 0
M  V30 34 H 1.748698 -1.417970 6.651445 0
M  V30 35 H 2.230197 -0.620102 5.147084 0
M  V30 36 H 3.149773 -2.378510 3.668191 0
M  V30 37 H 4.630184 -3.160824 4.329877 0
M  V30 38 H 4.292956 -0.130348 4.468019 0
M  V30 39 H 5.686478 -1.187158 4.850875 0
M  V30 40 H 6.076724 -0.288867 2.644304 0
M  V30 41 H 5.952798 -2.059182 2.738389 0
M  V30 42 H 3.563250 1.232261 2.684693 0
M  V30 43 H 1.667789 2.501332 1.671041 0
M  V30 44 H 0.146703 1.713857 -1.532081 0
M  V30 45 H 0.367470 2.894179 -0.245128 0
M  V30 46 H -2.682473 2.901273 0.338263 0
M  V30 47 H -1.697631 3.079780 -1.208230 0
M  V30 48 H -3.370045 1.900965 -2.163898 0
M  V30 49 H -3.864622 1.195794 -0.537897 0
M  V30 50 H -1.380926 0.415651 -2.115833 0
M  V30 51 H -2.843838 -1.717364 -0.909063 0
M  V30 52 H -3.272785 0.420016 -3.982902 0
M  V30 53 H -4.528956 -0.215485 -5.943445 0
M  V30 54 H -6.058577 -2.376155 -6.925843 0
M  V30 55 H -5.747342 -4.979691 -3.598266 0
M  V30 56 H -4.179494 -3.261338 -2.080727 0
M  V30 57 H -0.816857 -0.565324 0.187138 0
M  V30 58 H -2.450868 0.093489 0.725297 0
M  V30 59 H 1.140111 -0.561785 -1.184516 0
M  V30 60 H 2.946304 -1.814808 -0.241705 0
M  V30 END ATOM
M  V30 BEGIN BOND
M  V30 1 1 1 2
M  V30 2 1 2 3
M  V30 3 1 2 4
M  V30 4 1 4 5
M  V30 5 1 5 6
M  V30 6 1 6 7
M  V30 7 1 7 8
M  V30 8 2 8 9
M  V30 9 1 9 10
M  V30 10 2 10 11
M  V30 11 1 11 12
M  V30 12 1 12 13
M  V30 13 1 13 14
M  V30 14 1 14 15
M  V30 15 1 15 16
M  V30 16 1 16 17
M  V30 17 1 17 18
M  V30 18 2 18 19
M  V30 19 1 19 20
M  V30 20 2 20 21
M  V30 21 1 21 22
M  V30 22 1 22 23
M  V30 23 2 23 24
M  V30 24 1 24 25
M  V30 25 2 25 26
M  V30 26 1 16 27
M  V30 27 1 11 28
M  V30 28 2 28 29
M  V30 29 1 29 8
M  V30 30 1 27 13
M  V30 31 1 26 18
M  V30 32 1 25 21
M  V30 33 1 1 30
M  V30 34 1 1 31
M  V30 35 1 1 32
M  V30 36 1 3 33
M  V30 37 1 3 34
M  V30 38 1 3 35
M  V30 39 1 4 36
M  V30 40 1 4 37
M  V30 41 1 5 38
M  V30 42 1 5 39
M  V30 43 1 6 40
M  V30 44 1 6 41
M  V30 45 1 9 42
M  V30 46 1 10 43
M  V30 47 1 12 44
M  V30 48 1 12 45
M  V30 49 1 14 46
M  V30 50 1 14 47
M  V30 51 1 15 48
M  V30 52 1 15 49
M  V30 53 1 16 50
M  V30 54 1 17 51
M  V30 55 1 19 52
M  V30 56 1 20 53
M  V30 57 1 22 54
M  V30 58 1 24 55
M  V30 59 1 26 56
M  V30 60 1 27 57
M  V30 61 1 27 58
M  V30 62 1 28 59
M  V30 63 1 29 60
M  V30 END BOND
M  V30 END CTAB
M  END
>  <Dataset>  (901) 
ChEMBL_Kinases

>  <Ligand_Instance>  (901) 
nan

>  <PDB_ID>  (901) 
nan

>  <Standardized_SMILES>  (901) 
CN(C)CCCOc1ccc(CN2CCC(Nc3ccc4[nH]ncc4c3)C2)cc1

>  <Name>  (901) 
nan

>  <Pocket>  (901) 
nan

>  <ATP_Site>  (901) 
nan

>  <Peripheral>  (901) 
nan

>  <Num_H_Atoms_ProtBoundConf>  (901) 
nan

>  <Num_Resolved_Atoms>  (901) 
nan

>  <Num_Not_Resolved_Atoms>  (901) 
nan

$$$$
CHEMBL3689350
     RDKit          3D

  0  0  0  0  0  0  0  0  0  0999 V3000
M  V30 BEGIN CTAB
M  V30 COUNTS 49 52 0 0 0
M  V30 BEGIN ATOM
M  V30 1 C 2.752492 -7.602370 1.994879 0
M  V30 2 C 2.106999 -6.421271 1.421777 0
M  V30 3 O 0.893142 -6.330202 1.660922 0
M  V30 4 N 2.720207 -5.414188 0.649895 0
M  V30 5 C 2.195124 -4.266506 0.068143 0
M  V30 6 C 3.021300 -3.428197 -0.651240 0
M  V30 7 C 2.566695 -2.275915 -1.252991 0
M  V30 8 C 1.246302 -1.887497 -1.171744 0
M  V30 9 C 0.778787 -0.651938 -1.821844 0
M  V30 10 N 0.854038 0.523969 -0.996326 0
M  V30 11 C 2.187946 0.833713 -0.552981 0
M  V30 12 C 1.883280 1.980743 0.420734 0
M  V30 13 C 0.533609 1.624860 1.010984 0
M  V30 14 N -0.410842 2.691787 0.914144 0
M  V30 15 C -1.741601 2.587411 1.404158 0
M  V30 16 C -2.203117 1.436284 2.009518 0
M  V30 17 C -3.483720 1.281095 2.502183 0
M  V30 18 C -4.366193 2.356943 2.379666 0
M  V30 19 N -5.655692 2.520053 2.751002 0
M  V30 20 N -6.037523 3.738162 2.404014 0
M  V30 21 C -5.010596 4.373302 1.809457 0
M  V30 22 C -3.898338 3.524738 1.765665 0
M  V30 23 C -2.611645 3.650509 1.282434 0
M  V30 24 C 0.016115 0.485588 0.157900 0
M  V30 25 C 0.385054 -2.698137 -0.460932 0
M  V30 26 C 0.887517 -3.842415 0.124224 0
M  V30 27 H 2.415575 -8.569714 1.608875 0
M  V30 28 H 3.870843 -7.566235 1.945801 0
M  V30 29 H 2.521870 -7.595799 3.100444 0
M  V30 30 H 3.751082 -5.631337 0.533236 0
M  V30 31 H 4.085507 -3.695916 -0.744752 0
M  V30 32 H 3.295966 -1.689633 -1.792969 0
M  V30 33 H 1.211993 -0.468723 -2.808403 0
M  V30 34 H -0.324709 -0.799604 -2.015630 0
M  V30 35 H 2.772758 1.220521 -1.397247 0
M  V30 36 H 2.704704 0.019135 -0.036486 0
M  V30 37 H 2.628498 1.993555 1.233344 0
M  V30 38 H 1.846328 2.937306 -0.132743 0
M  V30 39 H 0.631090 1.331786 2.061443 0
M  V30 40 H -0.093095 3.561868 0.467815 0
M  V30 41 H -1.568617 0.569034 2.134442 0
M  V30 42 H -3.817264 0.357481 2.975490 0
M  V30 43 H -6.256877 1.796002 3.236652 0
M  V30 44 H -5.010390 5.384151 1.414536 0
M  V30 45 H -2.293389 4.579494 0.812187 0
M  V30 46 H -1.022094 0.634334 -0.200575 0
M  V30 47 H 0.119322 -0.437824 0.757649 0
M  V30 48 H -0.651167 -2.409626 -0.387084 0
M  V30 49 H 0.165627 -4.418228 0.655932 0
M  V30 END ATOM
M  V30 BEGIN BOND
M  V30 1 1 1 2
M  V30 2 2 2 3
M  V30 3 1 2 4
M  V30 4 1 4 5
M  V30 5 2 5 6
M  V30 6 1 6 7
M  V30 7 2 7 8
M  V30 8 1 8 9
M  V30 9 1 9 10
M  V30 10 1 10 11
M  V30 11 1 11 12
M  V30 12 1 12 13
M  V30 13 1 13 14
M  V30 14 1 14 15
M  V30 15 2 15 16
M  V30 16 1 16 17
M  V30 17 2 17 18
M  V30 18 1 18 19
M  V30 19 1 19 20
M  V30 20 2 20 21
M  V30 21 1 21 22
M  V30 22 2 22 23
M  V30 23 1 13 24
M  V30 24 1 8 25
M  V30 25 2 25 26
M  V30 26 1 26 5
M  V30 27 1 24 10
M  V30 28 1 23 15
M  V30 29 1 22 18
M  V30 30 1 1 27
M  V30 31 1 1 28
M  V30 32 1 1 29
M  V30 33 1 4 30
M  V30 34 1 6 31
M  V30 35 1 7 32
M  V30 36 1 9 33
M  V30 37 1 9 34
M  V30 38 1 11 35
M  V30 39 1 11 36
M  V30 40 1 12 37
M  V30 41 1 12 38
M  V30 42 1 13 39
M  V30 43 1 14 40
M  V30 44 1 16 41
M  V30 45 1 17 42
M  V30 46 1 19 43
M  V30 47 1 21 44
M  V30 48 1 23 45
M  V30 49 1 24 46
M  V30 50 1 24 47
M  V30 51 1 25 48
M  V30 52 1 26 49
M  V30 END BOND
M  V30 END CTAB
M  END
>  <Dataset>  (902) 
ChEMBL_Kinases

>  <Ligand_Instance>  (902) 
nan

>  <PDB_ID>  (902) 
nan

>  <Standardized_SMILES>  (902) 
CC(=O)Nc1ccc(CN2CCC(Nc3ccc4[nH]ncc4c3)C2)cc1

>  <Name>  (902) 
nan

>  <Pocket>  (902) 
nan

>  <ATP_Site>  (902) 
nan

>  <Peripheral>  (902) 
nan

>  <Num_H_Atoms_ProtBoundConf>  (902) 
nan

>  <Num_Resolved_Atoms>  (902) 
nan

>  <Num_Not_Resolved_Atoms>  (902) 
nan

$$$$
CHEMBL3689349
     RDKit          3D

  0  0  0  0  0  0  0  0  0  0999 V3000
M  V30 BEGIN CTAB
M  V30 COUNTS 43 46 0 0 0
M  V30 BEGIN ATOM
M  V30 1 N -2.393329 -6.667431 1.078460 0
M  V30 2 C -1.459190 -6.253706 0.536241 0
M  V30 3 C -0.300316 -5.743490 -0.157462 0
M  V30 4 C 0.356339 -6.468876 -1.131078 0
M  V30 5 C 1.455583 -5.901875 -1.741589 0
M  V30 6 C 1.870072 -4.639022 -1.371496 0
M  V30 7 C 1.227148 -3.876248 -0.388180 0
M  V30 8 C 1.794109 -2.559390 -0.115756 0
M  V30 9 N 1.299687 -1.464173 -0.883405 0
M  V30 10 C -0.093409 -1.184266 -0.777231 0
M  V30 11 C -0.195365 0.309298 -0.417546 0
M  V30 12 C 1.035160 0.371864 0.458129 0
M  V30 13 N 1.397664 1.648484 0.938903 0
M  V30 14 C 0.748205 2.546432 1.822899 0
M  V30 15 C 1.312104 3.791842 2.129410 0
M  V30 16 C 0.682550 4.656314 2.995346 0
M  V30 17 C -0.516218 4.311939 3.577765 0
M  V30 18 N -1.335036 4.967233 4.452562 0
M  V30 19 N -2.393810 4.183726 4.710213 0
M  V30 20 C -2.297428 3.024953 4.027900 0
M  V30 21 C -1.118508 3.098725 3.313239 0
M  V30 22 C -0.452567 2.262702 2.439430 0
M  V30 23 C 2.018720 -0.274328 -0.458758 0
M  V30 24 C 0.131484 -4.486882 0.194353 0
M  V30 25 H -0.002671 -7.451032 -1.387753 0
M  V30 26 H 1.963662 -6.474559 -2.501426 0
M  V30 27 H 2.737877 -4.256474 -1.890693 0
M  V30 28 H 2.895920 -2.607978 -0.223024 0
M  V30 29 H 1.640366 -2.349121 0.983704 0
M  V30 30 H -0.620510 -1.683586 0.061235 0
M  V30 31 H -0.594045 -1.315654 -1.760675 0
M  V30 32 H -0.015055 0.881579 -1.363906 0
M  V30 33 H -1.134901 0.544669 0.059674 0
M  V30 34 H 0.848567 -0.374657 1.287025 0
M  V30 35 H 2.330422 1.979771 0.557542 0
M  V30 36 H 2.247090 4.089491 1.690729 0
M  V30 37 H 1.132406 5.610439 3.218753 0
M  V30 38 H -1.154646 5.924244 4.849750 0
M  V30 39 H -2.967037 2.178163 4.002701 0
M  V30 40 H -0.957616 1.329704 2.271178 0
M  V30 41 H 2.912951 -0.533916 0.159302 0
M  V30 42 H 2.298560 0.367575 -1.311420 0
M  V30 43 H -0.360021 -3.891863 0.953745 0
M  V30 END ATOM
M  V30 BEGIN BOND
M  V30 1 3 1 2
M  V30 2 1 2 3
M  V30 3 2 3 4
M  V30 4 1 4 5
M  V30 5 2 5 6
M  V30 6 1 6 7
M  V30 7 1 7 8
M  V30 8 1 8 9
M  V30 9 1 9 10
M  V30 10 1 10 11
M  V30 11 1 11 12
M  V30 12 1 12 13
M  V30 13 1 13 14
M  V30 14 2 14 15
M  V30 15 1 15 16
M  V30 16 2 16 17
M  V30 17 1 17 18
M  V30 18 1 18 19
M  V30 19 2 19 20
M  V30 20 1 20 21
M  V30 21 2 21 22
M  V30 22 1 12 23
M  V30 23 2 7 24
M  V30 24 1 24 3
M  V30 25 1 23 9
M  V30 26 1 22 14
M  V30 27 1 21 17
M  V30 28 1 4 25
M  V30 29 1 5 26
M  V30 30 1 6 27
M  V30 31 1 8 28
M  V30 32 1 8 29
M  V30 33 1 10 30
M  V30 34 1 10 31
M  V30 35 1 11 32
M  V30 36 1 11 33
M  V30 37 1 12 34
M  V30 38 1 13 35
M  V30 39 1 15 36
M  V30 40 1 16 37
M  V30 41 1 18 38
M  V30 42 1 20 39
M  V30 43 1 22 40
M  V30 44 1 23 41
M  V30 45 1 23 42
M  V30 46 1 24 43
M  V30 END BOND
M  V30 END CTAB
M  END
>  <Dataset>  (903) 
ChEMBL_Kinases

>  <Ligand_Instance>  (903) 
nan

>  <PDB_ID>  (903) 
nan

>  <Standardized_SMILES>  (903) 
N#Cc1cccc(CN2CCC(Nc3ccc4[nH]ncc4c3)C2)c1

>  <Name>  (903) 
nan

>  <Pocket>  (903) 
nan

>  <ATP_Site>  (903) 
nan

>  <Peripheral>  (903) 
nan

>  <Num_H_Atoms_ProtBoundConf>  (903) 
nan

>  <Num_Resolved_Atoms>  (903) 
nan

>  <Num_Not_Resolved_Atoms>  (903) 
nan

$$$$
CHEMBL3689348
     RDKit          3D

  0  0  0  0  0  0  0  0  0  0999 V3000
M  V30 BEGIN CTAB
M  V30 COUNTS 48 51 0 0 0
M  V30 BEGIN ATOM
M  V30 1 C -3.736334 -4.435465 1.941596 0
M  V30 2 S -3.679277 -3.999069 0.232164 0
M  V30 3 O -4.797315 -3.015425 -0.082204 0
M  V30 4 O -3.890847 -5.201327 -0.651344 0
M  V30 5 C -2.160951 -3.207141 -0.151985 0
M  V30 6 C -1.091842 -4.010857 -0.547921 0
M  V30 7 C 0.138940 -3.423224 -0.864281 0
M  V30 8 C 0.273789 -2.032241 -0.776678 0
M  V30 9 C 1.639633 -1.603152 -1.153833 0
M  V30 10 N 2.598644 -1.579909 -0.111575 0
M  V30 11 C 3.911281 -1.138513 -0.515596 0
M  V30 12 C 4.152830 0.187309 0.127233 0
M  V30 13 C 3.006237 0.416876 1.087642 0
M  V30 14 N 2.068464 1.422074 0.595196 0
M  V30 15 C 0.927389 1.850532 1.324852 0
M  V30 16 C 0.603958 1.367696 2.575433 0
M  V30 17 C -0.521242 1.797751 3.268167 0
M  V30 18 C -1.300296 2.737176 2.635249 0
M  V30 19 N -2.434182 3.349942 3.021249 0
M  V30 20 N -2.874971 4.209083 2.094084 0
M  V30 21 C -2.030239 4.190612 1.047057 0
M  V30 22 C -1.041371 3.275006 1.372024 0
M  V30 23 C 0.095037 2.792249 0.756488 0
M  V30 24 C 2.263146 -0.909782 1.089866 0
M  V30 25 C -0.811921 -1.277585 -0.380575 0
M  V30 26 C -2.011641 -1.838325 -0.070867 0
M  V30 27 H -2.785925 -4.072764 2.430006 0
M  V30 28 H -3.838163 -5.527716 2.102040 0
M  V30 29 H -4.629921 -3.954138 2.417543 0
M  V30 30 H -1.236755 -5.091160 -0.603776 0
M  V30 31 H 0.898527 -4.146547 -1.159259 0
M  V30 32 H 1.545226 -0.531912 -1.507490 0
M  V30 33 H 2.002587 -2.134243 -2.068347 0
M  V30 34 H 3.870137 -0.945142 -1.626944 0
M  V30 35 H 4.704545 -1.879299 -0.351527 0
M  V30 36 H 5.114043 0.096632 0.702832 0
M  V30 37 H 4.231813 1.030455 -0.586171 0
M  V30 38 H 3.369111 0.650022 2.109950 0
M  V30 39 H 2.282078 1.817170 -0.336043 0
M  V30 40 H 1.235369 0.628915 3.053679 0
M  V30 41 H -0.785942 1.428591 4.246019 0
M  V30 42 H -3.001141 3.255445 3.917201 0
M  V30 43 H -2.055021 4.750478 0.107635 0
M  V30 44 H 0.319168 3.199956 -0.236540 0
M  V30 45 H 1.170249 -0.753071 1.112092 0
M  V30 46 H 2.491748 -1.475145 2.022972 0
M  V30 47 H -0.620593 -0.229266 -0.347068 0
M  V30 48 H -2.834031 -1.208766 0.234480 0
M  V30 END ATOM
M  V30 BEGIN BOND
M  V30 1 1 1 2
M  V30 2 2 2 3
M  V30 3 2 2 4
M  V30 4 1 2 5
M  V30 5 2 5 6
M  V30 6 1 6 7
M  V30 7 2 7 8
M  V30 8 1 8 9
M  V30 9 1 9 10
M  V30 10 1 10 11
M  V30 11 1 11 12
M  V30 12 1 12 13
M  V30 13 1 13 14
M  V30 14 1 14 15
M  V30 15 2 15 16
M  V30 16 1 16 17
M  V30 17 2 17 18
M  V30 18 1 18 19
M  V30 19 1 19 20
M  V30 20 2 20 21
M  V30 21 1 21 22
M  V30 22 2 22 23
M  V30 23 1 13 24
M  V30 24 1 8 25
M  V30 25 2 25 26
M  V30 26 1 26 5
M  V30 27 1 24 10
M  V30 28 1 23 15
M  V30 29 1 22 18
M  V30 30 1 1 27
M  V30 31 1 1 28
M  V30 32 1 1 29
M  V30 33 1 6 30
M  V30 34 1 7 31
M  V30 35 1 9 32
M  V30 36 1 9 33
M  V30 37 1 11 34
M  V30 38 1 11 35
M  V30 39 1 12 36
M  V30 40 1 12 37
M  V30 41 1 13 38
M  V30 42 1 14 39
M  V30 43 1 16 40
M  V30 44 1 17 41
M  V30 45 1 19 42
M  V30 46 1 21 43
M  V30 47 1 23 44
M  V30 48 1 24 45
M  V30 49 1 24 46
M  V30 50 1 25 47
M  V30 51 1 26 48
M  V30 END BOND
M  V30 END CTAB
M  END
>  <Dataset>  (904) 
ChEMBL_Kinases

>  <Ligand_Instance>  (904) 
nan

>  <PDB_ID>  (904) 
nan

>  <Standardized_SMILES>  (904) 
CS(=O)(=O)c1ccc(CN2CCC(Nc3ccc4[nH]ncc4c3)C2)cc1

>  <Name>  (904) 
nan

>  <Pocket>  (904) 
nan

>  <ATP_Site>  (904) 
nan

>  <Peripheral>  (904) 
nan

>  <Num_H_Atoms_ProtBoundConf>  (904) 
nan

>  <Num_Resolved_Atoms>  (904) 
nan

>  <Num_Not_Resolved_Atoms>  (904) 
nan

$$$$
CHEMBL3689347
     RDKit          3D

  0  0  0  0  0  0  0  0  0  0999 V3000
M  V30 BEGIN CTAB
M  V30 COUNTS 52 55 0 0 0
M  V30 BEGIN ATOM
M  V30 1 C 4.297184 -7.135981 0.967422 0
M  V30 2 C 3.679606 -5.852450 0.567313 0
M  V30 3 O 3.675071 -4.828427 1.331196 0
M  V30 4 N 3.052038 -5.653260 -0.674018 0
M  V30 5 C 2.511591 -4.353495 -0.888767 0
M  V30 6 C 3.262711 -3.344880 -1.460251 0
M  V30 7 C 2.758099 -2.078467 -1.676963 0
M  V30 8 C 1.459174 -1.784092 -1.318104 0
M  V30 9 C 0.688525 -0.519444 -1.429269 0
M  V30 10 N 0.790770 0.215850 -0.235537 0
M  V30 11 C 2.035967 0.642718 0.238755 0
M  V30 12 C 2.127969 0.518933 1.756130 0
M  V30 13 C 0.973192 1.140140 2.478547 0
M  V30 14 C -0.181406 1.487653 1.544583 0
M  V30 15 N -1.428168 1.631693 2.260897 0
M  V30 16 C -2.654337 2.039754 1.722795 0
M  V30 17 C -2.867044 2.397079 0.413134 0
M  V30 18 C -4.079469 2.794938 -0.125345 0
M  V30 19 C -5.152252 2.831005 0.735980 0
M  V30 20 N -6.452606 3.161815 0.567683 0
M  V30 21 N -7.123796 3.043568 1.704291 0
M  V30 22 C -6.251628 2.621786 2.663591 0
M  V30 23 C -5.017360 2.488338 2.058394 0
M  V30 24 C -3.786667 2.108258 2.503455 0
M  V30 25 C -0.304088 0.250997 0.650806 0
M  V30 26 C 0.703657 -2.810293 -0.740000 0
M  V30 27 C 1.207913 -4.079725 -0.522352 0
M  V30 28 H 5.247023 -7.343841 0.449201 0
M  V30 29 H 3.567945 -7.979462 0.906153 0
M  V30 30 H 4.547357 -7.060300 2.046700 0
M  V30 31 H 3.001710 -6.442314 -1.381778 0
M  V30 32 H 4.288973 -3.511458 -1.763852 0
M  V30 33 H 3.270827 -1.241631 -2.120079 0
M  V30 34 H -0.339388 -0.725421 -1.769247 0
M  V30 35 H 1.164596 0.078498 -2.257679 0
M  V30 36 H 2.340378 1.669853 -0.088213 0
M  V30 37 H 2.840404 -0.016202 -0.146355 0
M  V30 38 H 3.039466 1.081970 2.048521 0
M  V30 39 H 2.301146 -0.551332 2.002212 0
M  V30 40 H 0.563125 0.333257 3.151685 0
M  V30 41 H 1.247962 1.987687 3.114937 0
M  V30 42 H 0.092148 2.356799 0.942686 0
M  V30 43 H -1.387917 1.401677 3.286669 0
M  V30 44 H -2.044228 2.386003 -0.288318 0
M  V30 45 H -4.190354 3.061375 -1.147728 0
M  V30 46 H -6.819774 3.466357 -0.373974 0
M  V30 47 H -6.422643 2.409939 3.721096 0
M  V30 48 H -3.702217 1.838928 3.563974 0
M  V30 49 H -1.251579 0.199648 0.129895 0
M  V30 50 H -0.243156 -0.629169 1.357189 0
M  V30 51 H -0.324480 -2.717162 -0.413279 0
M  V30 52 H 0.652372 -4.884253 -0.081092 0
M  V30 END ATOM
M  V30 BEGIN BOND
M  V30 1 1 1 2
M  V30 2 2 2 3
M  V30 3 1 2 4
M  V30 4 1 4 5
M  V30 5 2 5 6
M  V30 6 1 6 7
M  V30 7 2 7 8
M  V30 8 1 8 9
M  V30 9 1 9 10
M  V30 10 1 10 11
M  V30 11 1 11 12
M  V30 12 1 12 13
M  V30 13 1 13 14
M  V30 14 1 14 15
M  V30 15 1 15 16
M  V30 16 2 16 17
M  V30 17 1 17 18
M  V30 18 2 18 19
M  V30 19 1 19 20
M  V30 20 1 20 21
M  V30 21 2 21 22
M  V30 22 1 22 23
M  V30 23 2 23 24
M  V30 24 1 14 25
M  V30 25 1 8 26
M  V30 26 2 26 27
M  V30 27 1 27 5
M  V30 28 1 25 10
M  V30 29 1 24 16
M  V30 30 1 23 19
M  V30 31 1 1 28
M  V30 32 1 1 29
M  V30 33 1 1 30
M  V30 34 1 4 31
M  V30 35 1 6 32
M  V30 36 1 7 33
M  V30 37 1 9 34
M  V30 38 1 9 35
M  V30 39 1 11 36
M  V30 40 1 11 37
M  V30 41 1 12 38
M  V30 42 1 12 39
M  V30 43 1 13 40
M  V30 44 1 13 41
M  V30 45 1 14 42
M  V30 46 1 15 43
M  V30 47 1 17 44
M  V30 48 1 18 45
M  V30 49 1 20 46
M  V30 50 1 22 47
M  V30 51 1 24 48
M  V30 52 1 25 49
M  V30 53 1 25 50
M  V30 54 1 26 51
M  V30 55 1 27 52
M  V30 END BOND
M  V30 END CTAB
M  END
>  <Dataset>  (905) 
ChEMBL_Kinases

>  <Ligand_Instance>  (905) 
nan

>  <PDB_ID>  (905) 
nan

>  <Standardized_SMILES>  (905) 
CC(=O)Nc1ccc(CN2CCCC(Nc3ccc4[nH]ncc4c3)C2)cc1

>  <Name>  (905) 
nan

>  <Pocket>  (905) 
nan

>  <ATP_Site>  (905) 
nan

>  <Peripheral>  (905) 
nan

>  <Num_H_Atoms_ProtBoundConf>  (905) 
nan

>  <Num_Resolved_Atoms>  (905) 
nan

>  <Num_Not_Resolved_Atoms>  (905) 
nan

$$$$
CHEMBL3689346
     RDKit          3D

  0  0  0  0  0  0  0  0  0  0999 V3000
M  V30 BEGIN CTAB
M  V30 COUNTS 46 49 0 0 0
M  V30 BEGIN ATOM
M  V30 1 N -1.596361 -4.835125 1.932205 0
M  V30 2 C -0.684866 -4.434374 1.343082 0
M  V30 3 C 0.453467 -3.940727 0.623267 0
M  V30 4 C 1.685700 -4.515408 0.813125 0
M  V30 5 C 2.788034 -4.032920 0.112238 0
M  V30 6 C 2.595216 -2.977688 -0.760831 0
M  V30 7 C 1.372463 -2.353852 -0.996011 0
M  V30 8 C 1.226693 -1.231706 -1.941859 0
M  V30 9 N 1.427717 0.070674 -1.353461 0
M  V30 10 C 1.235872 1.042603 -2.441869 0
M  V30 11 C 1.336016 2.441827 -1.890037 0
M  V30 12 C 1.611309 2.413445 -0.401290 0
M  V30 13 C 0.438454 1.687241 0.227515 0
M  V30 14 N 0.622923 1.583198 1.677959 0
M  V30 15 C -0.258637 0.974420 2.627503 0
M  V30 16 C 0.007263 0.924904 3.991553 0
M  V30 17 C -0.933246 0.306035 4.790259 0
M  V30 18 C -2.105836 -0.260525 4.334098 0
M  V30 19 N -3.118592 -0.893612 4.958012 0
M  V30 20 N -4.015248 -1.247132 4.044620 0
M  V30 21 C -3.573540 -0.836746 2.821713 0
M  V30 22 C -2.344299 -0.196987 2.975457 0
M  V30 23 C -1.434225 0.412034 2.130506 0
M  V30 24 C 0.359312 0.321342 -0.404616 0
M  V30 25 C 0.337004 -2.894054 -0.261723 0
M  V30 26 H 1.763777 -5.332017 1.506893 0
M  V30 27 H 3.760393 -4.475104 0.252171 0
M  V30 28 H 3.477135 -2.609259 -1.306200 0
M  V30 29 H 0.205407 -1.321625 -2.401957 0
M  V30 30 H 1.936251 -1.427209 -2.775063 0
M  V30 31 H 0.196035 0.883600 -2.803451 0
M  V30 32 H 1.998902 0.860228 -3.249031 0
M  V30 33 H 0.353481 2.987565 -1.988521 0
M  V30 34 H 2.090138 3.013303 -2.443478 0
M  V30 35 H 1.610894 3.458910 -0.032410 0
M  V30 36 H 2.557953 1.891199 -0.202940 0
M  V30 37 H -0.486010 2.243731 0.051829 0
M  V30 38 H 1.499014 1.998117 2.089230 0
M  V30 39 H 0.916250 1.362673 4.355423 0
M  V30 40 H -0.693076 0.283467 5.865555 0
M  V30 41 H -3.114045 -1.039186 6.006135 0
M  V30 42 H -4.082892 -0.979574 1.892170 0
M  V30 43 H -1.742168 0.390300 1.113265 0
M  V30 44 H 0.441272 -0.481083 0.352709 0
M  V30 45 H -0.579882 0.201120 -0.973711 0
M  V30 46 H -0.653127 -2.482491 -0.372132 0
M  V30 END ATOM
M  V30 BEGIN BOND
M  V30 1 3 1 2
M  V30 2 1 2 3
M  V30 3 2 3 4
M  V30 4 1 4 5
M  V30 5 2 5 6
M  V30 6 1 6 7
M  V30 7 1 7 8
M  V30 8 1 8 9
M  V30 9 1 9 10
M  V30 10 1 10 11
M  V30 11 1 11 12
M  V30 12 1 12 13
M  V30 13 1 13 14
M  V30 14 1 14 15
M  V30 15 2 15 16
M  V30 16 1 16 17
M  V30 17 2 17 18
M  V30 18 1 18 19
M  V30 19 1 19 20
M  V30 20 2 20 21
M  V30 21 1 21 22
M  V30 22 2 22 23
M  V30 23 1 13 24
M  V30 24 2 7 25
M  V30 25 1 25 3
M  V30 26 1 24 9
M  V30 27 1 23 15
M  V30 28 1 22 18
M  V30 29 1 4 26
M  V30 30 1 5 27
M  V30 31 1 6 28
M  V30 32 1 8 29
M  V30 33 1 8 30
M  V30 34 1 10 31
M  V30 35 1 10 32
M  V30 36 1 11 33
M  V30 37 1 11 34
M  V30 38 1 12 35
M  V30 39 1 12 36
M  V30 40 1 13 37
M  V30 41 1 14 38
M  V30 42 1 16 39
M  V30 43 1 17 40
M  V30 44 1 19 41
M  V30 45 1 21 42
M  V30 46 1 23 43
M  V30 47 1 24 44
M  V30 48 1 24 45
M  V30 49 1 25 46
M  V30 END BOND
M  V30 END CTAB
M  END
>  <Dataset>  (906) 
ChEMBL_Kinases

>  <Ligand_Instance>  (906) 
nan

>  <PDB_ID>  (906) 
nan

>  <Standardized_SMILES>  (906) 
N#Cc1cccc(CN2CCCC(Nc3ccc4[nH]ncc4c3)C2)c1

>  <Name>  (906) 
nan

>  <Pocket>  (906) 
nan

>  <ATP_Site>  (906) 
nan

>  <Peripheral>  (906) 
nan

>  <Num_H_Atoms_ProtBoundConf>  (906) 
nan

>  <Num_Resolved_Atoms>  (906) 
nan

>  <Num_Not_Resolved_Atoms>  (906) 
nan

$$$$
CHEMBL3689345
     RDKit          3D

  0  0  0  0  0  0  0  0  0  0999 V3000
M  V30 BEGIN CTAB
M  V30 COUNTS 51 54 0 0 0
M  V30 BEGIN ATOM
M  V30 1 C -0.301709 -5.754002 1.699064 0
M  V30 2 S 0.866582 -5.836019 0.355732 0
M  V30 3 O 2.114373 -6.492820 0.899468 0
M  V30 4 O 0.313006 -6.679556 -0.743128 0
M  V30 5 C 1.243945 -4.216785 -0.184184 0
M  V30 6 C 2.308703 -3.588689 0.426020 0
M  V30 7 C 2.669930 -2.309349 0.055678 0
M  V30 8 C 2.012674 -1.589693 -0.920501 0
M  V30 9 C 2.285658 -0.243037 -1.403181 0
M  V30 10 N 1.601849 0.824710 -0.741983 0
M  V30 11 C 1.950503 2.063211 -1.311079 0
M  V30 12 C 1.808913 3.261280 -0.455727 0
M  V30 13 C 0.718472 3.063453 0.573920 0
M  V30 14 C 1.112064 1.902469 1.422546 0
M  V30 15 N 0.079002 1.568259 2.375947 0
M  V30 16 C -1.202115 1.061713 2.106498 0
M  V30 17 C -1.699178 0.754841 0.856882 0
M  V30 18 C -2.962912 0.268246 0.610293 0
M  V30 19 C -3.819971 0.058260 1.645453 0
M  V30 20 N -5.079143 -0.397252 1.695136 0
M  V30 21 N -5.454837 -0.406309 2.981126 0
M  V30 22 C -4.448323 0.037623 3.741829 0
M  V30 23 C -3.381541 0.345025 2.912608 0
M  V30 24 C -2.125002 0.824111 3.108259 0
M  V30 25 C 1.590917 0.702450 0.655413 0
M  V30 26 C 0.936700 -2.258689 -1.518596 0
M  V30 27 C 0.554925 -3.536913 -1.167267 0
M  V30 28 H 0.135451 -5.281381 2.583773 0
M  V30 29 H -0.764018 -6.728473 1.902221 0
M  V30 30 H -1.158973 -5.094337 1.375968 0
M  V30 31 H 2.898832 -4.066782 1.211614 0
M  V30 32 H 3.499732 -1.800495 0.518135 0
M  V30 33 H 3.392642 -0.092645 -1.391919 0
M  V30 34 H 2.020159 -0.168977 -2.492068 0
M  V30 35 H 2.994769 2.066967 -1.741266 0
M  V30 36 H 1.282096 2.221087 -2.206978 0
M  V30 37 H 1.553562 4.158739 -1.058145 0
M  V30 38 H 2.757642 3.450293 0.095287 0
M  V30 39 H -0.291930 3.076614 0.179007 0
M  V30 40 H 0.781672 3.970974 1.255525 0
M  V30 41 H 2.003886 2.253870 2.021019 0
M  V30 42 H 0.281101 1.710947 3.413154 0
M  V30 43 H -1.086677 0.882949 -0.009008 0
M  V30 44 H -3.299630 0.043462 -0.408883 0
M  V30 45 H -5.655441 -0.690627 0.865564 0
M  V30 46 H -4.442324 0.147333 4.820102 0
M  V30 47 H -1.876013 1.018456 4.143319 0
M  V30 48 H 0.887364 -0.140324 0.913695 0
M  V30 49 H 2.580638 0.352070 0.996431 0
M  V30 50 H 0.334526 -1.800793 -2.303852 0
M  V30 51 H -0.274849 -4.042168 -1.634263 0
M  V30 END ATOM
M  V30 BEGIN BOND
M  V30 1 1 1 2
M  V30 2 2 2 3
M  V30 3 2 2 4
M  V30 4 1 2 5
M  V30 5 2 5 6
M  V30 6 1 6 7
M  V30 7 2 7 8
M  V30 8 1 8 9
M  V30 9 1 9 10
M  V30 10 1 10 11
M  V30 11 1 11 12
M  V30 12 1 12 13
M  V30 13 1 13 14
M  V30 14 1 14 15
M  V30 15 1 15 16
M  V30 16 2 16 17
M  V30 17 1 17 18
M  V30 18 2 18 19
M  V30 19 1 19 20
M  V30 20 1 20 21
M  V30 21 2 21 22
M  V30 22 1 22 23
M  V30 23 2 23 24
M  V30 24 1 14 25
M  V30 25 1 8 26
M  V30 26 2 26 27
M  V30 27 1 27 5
M  V30 28 1 25 10
M  V30 29 1 24 16
M  V30 30 1 23 19
M  V30 31 1 1 28
M  V30 32 1 1 29
M  V30 33 1 1 30
M  V30 34 1 6 31
M  V30 35 1 7 32
M  V30 36 1 9 33
M  V30 37 1 9 34
M  V30 38 1 11 35
M  V30 39 1 11 36
M  V30 40 1 12 37
M  V30 41 1 12 38
M  V30 42 1 13 39
M  V30 43 1 13 40
M  V30 44 1 14 41
M  V30 45 1 15 42
M  V30 46 1 17 43
M  V30 47 1 18 44
M  V30 48 1 20 45
M  V30 49 1 22 46
M  V30 50 1 24 47
M  V30 51 1 25 48
M  V30 52 1 25 49
M  V30 53 1 26 50
M  V30 54 1 27 51
M  V30 END BOND
M  V30 END CTAB
M  END
>  <Dataset>  (907) 
ChEMBL_Kinases

>  <Ligand_Instance>  (907) 
nan

>  <PDB_ID>  (907) 
nan

>  <Standardized_SMILES>  (907) 
CS(=O)(=O)c1ccc(CN2CCCC(Nc3ccc4[nH]ncc4c3)C2)cc1

>  <Name>  (907) 
nan

>  <Pocket>  (907) 
nan

>  <ATP_Site>  (907) 
nan

>  <Peripheral>  (907) 
nan

>  <Num_H_Atoms_ProtBoundConf>  (907) 
nan

>  <Num_Resolved_Atoms>  (907) 
nan

>  <Num_Not_Resolved_Atoms>  (907) 
nan

$$$$
CHEMBL3689316
     RDKit          3D

  0  0  0  0  0  0  0  0  0  0999 V3000
M  V30 BEGIN CTAB
M  V30 COUNTS 68 72 0 0 0
M  V30 BEGIN ATOM
M  V30 1 O 0.754671 -4.051999 4.885175 0
M  V30 2 C 0.379105 -2.902313 4.518848 0
M  V30 3 N 1.306969 -2.419221 3.560532 0
M  V30 4 C 2.487642 -3.112906 3.089784 0
M  V30 5 C 3.197022 -2.300718 2.067947 0
M  V30 6 C 3.759195 -1.644235 1.222656 0
M  V30 7 C 4.411873 -0.870792 0.199312 0
M  V30 8 C 5.736833 -0.493053 0.224530 0
M  V30 9 C 6.253007 0.258279 -0.826404 0
M  V30 10 C 5.426164 0.623067 -1.895599 0
M  V30 11 N 5.934373 1.344073 -2.896611 0
M  V30 12 C 5.186553 1.716652 -3.939627 0
M  V30 13 C 3.858514 1.381095 -4.042058 0
M  V30 14 C 3.292298 0.631444 -3.020503 0
M  V30 15 O 1.987422 0.192518 -2.929410 0
M  V30 16 C 0.934654 0.377833 -3.799312 0
M  V30 17 C -0.267833 -0.338727 -3.165411 0 CFG=2
M  V30 18 C -0.007490 -1.795293 -2.973618 0
M  V30 19 C -1.265318 -2.563426 -3.252297 0
M  V30 20 C -1.840824 -2.314361 -4.608056 0
M  V30 21 N -1.836796 -0.930801 -4.986075 0
M  V30 22 C -1.519150 -0.019218 -3.934895 0
M  V30 23 C 4.079454 0.251719 -1.943628 0
M  V30 24 C 3.611824 -0.493221 -0.879354 0
M  V30 25 C -0.804097 -2.213845 5.005621 0
M  V30 26 C -1.508919 -2.955018 5.956187 0
M  V30 27 C -2.657014 -2.496679 6.561838 0
M  V30 28 C -3.121354 -1.248411 6.205423 0
M  V30 29 N -2.447637 -0.529317 5.290686 0
M  V30 30 C -2.903912 0.769171 4.914278 0
M  V30 31 C -3.837837 0.829554 3.792360 0
M  V30 32 C -5.227703 0.764034 3.961721 0
M  V30 33 C -6.159963 0.820395 2.955383 0
M  V30 34 C -5.729427 0.955279 1.630674 0
M  V30 35 F -6.627679 1.012010 0.637440 0
M  V30 36 C -4.380570 1.022916 1.425904 0
M  V30 37 F -4.004639 1.152677 0.131810 0
M  V30 38 C -3.472027 0.963281 2.455953 0
M  V30 39 C -1.322748 -0.978801 4.696591 0
M  V30 40 O -0.682399 -0.339733 3.850949 0
M  V30 41 H 1.133165 -1.464585 3.142341 0
M  V30 42 H 3.191152 -3.221183 3.919580 0
M  V30 43 H 2.126322 -4.064601 2.648811 0
M  V30 44 H 6.314372 -0.813388 1.084790 0
M  V30 45 H 7.297622 0.537468 -0.777926 0
M  V30 46 H 5.591899 2.301197 -4.752955 0
M  V30 47 H 3.163932 1.626372 -4.833262 0
M  V30 48 H 1.067747 0.092237 -4.841408 0
M  V30 49 H 0.628519 1.461920 -3.808912 0
M  V30 50 H -0.409152 0.160628 -2.161910 0
M  V30 51 H 0.221728 -1.979738 -1.883060 0
M  V30 52 H 0.873086 -2.182513 -3.505877 0
M  V30 53 H -2.033067 -2.307084 -2.497396 0
M  V30 54 H -1.035217 -3.642699 -3.146769 0
M  V30 55 H -2.916793 -2.639986 -4.550470 0
M  V30 56 H -1.331459 -2.869813 -5.423419 0
M  V30 57 H -1.332235 -0.703617 -5.852310 0
M  V30 58 H -2.384998 -0.017592 -3.230276 0
M  V30 59 H -1.365153 0.993497 -4.363434 0
M  V30 60 H 2.574549 -0.778704 -0.919674 0
M  V30 61 H -1.206561 -3.959012 6.295489 0
M  V30 62 H -3.192751 -3.077982 7.295446 0
M  V30 63 H -4.027942 -0.793423 6.631332 0
M  V30 64 H -2.073435 1.479843 4.699650 0
M  V30 65 H -3.459588 1.185407 5.805489 0
M  V30 66 H -5.572971 0.658450 4.990540 0
M  V30 67 H -7.212417 0.760791 3.198570 0
M  V30 68 H -2.419815 1.023337 2.223040 0
M  V30 END ATOM
M  V30 BEGIN BOND
M  V30 1 2 1 2
M  V30 2 1 2 3
M  V30 3 1 3 4
M  V30 4 1 4 5
M  V30 5 3 5 6
M  V30 6 1 6 7
M  V30 7 2 7 8
M  V30 8 1 8 9
M  V30 9 2 9 10
M  V30 10 1 10 11
M  V30 11 2 11 12
M  V30 12 1 12 13
M  V30 13 2 13 14
M  V30 14 1 14 15
M  V30 15 1 15 16
M  V30 16 1 16 17
M  V30 17 1 17 18
M  V30 18 1 18 19
M  V30 19 1 19 20
M  V30 20 1 20 21
M  V30 21 1 21 22
M  V30 22 1 14 23
M  V30 23 2 23 24
M  V30 24 1 2 25
M  V30 25 2 25 26
M  V30 26 1 26 27
M  V30 27 2 27 28
M  V30 28 1 28 29
M  V30 29 1 29 30
M  V30 30 1 30 31
M  V30 31 2 31 32
M  V30 32 1 32 33
M  V30 33 2 33 34
M  V30 34 1 34 35
M  V30 35 1 34 36
M  V30 36 1 36 37
M  V30 37 2 36 38
M  V30 38 1 29 39
M  V30 39 2 39 40
M  V30 40 1 24 7
M  V30 41 1 39 25
M  V30 42 1 23 10
M  V30 43 1 38 31
M  V30 44 1 22 17
M  V30 45 1 3 41
M  V30 46 1 4 42
M  V30 47 1 4 43
M  V30 48 1 8 44
M  V30 49 1 9 45
M  V30 50 1 12 46
M  V30 51 1 13 47
M  V30 52 1 16 48
M  V30 53 1 16 49
M  V30 54 1 17 50 CFG=1
M  V30 55 1 18 51
M  V30 56 1 18 52
M  V30 57 1 19 53
M  V30 58 1 19 54
M  V30 59 1 20 55
M  V30 60 1 20 56
M  V30 61 1 21 57
M  V30 62 1 22 58
M  V30 63 1 22 59
M  V30 64 1 24 60
M  V30 65 1 26 61
M  V30 66 1 27 62
M  V30 67 1 28 63
M  V30 68 1 30 64
M  V30 69 1 30 65
M  V30 70 1 32 66
M  V30 71 1 33 67
M  V30 72 1 38 68
M  V30 END BOND
M  V30 END CTAB
M  END
>  <Dataset>  (908) 
ChEMBL_Kinases

>  <Ligand_Instance>  (908) 
nan

>  <PDB_ID>  (908) 
nan

>  <Standardized_SMILES>  (908) 
O=C(NCC#Cc1ccc2nccc(OC[C@@H]3CCCNC3)c2c1)c1cccn(Cc2ccc(F)c(F)c2)c1=O

>  <Name>  (908) 
nan

>  <Pocket>  (908) 
nan

>  <ATP_Site>  (908) 
nan

>  <Peripheral>  (908) 
nan

>  <Num_H_Atoms_ProtBoundConf>  (908) 
nan

>  <Num_Resolved_Atoms>  (908) 
nan

>  <Num_Not_Resolved_Atoms>  (908) 
nan

$$$$
CHEMBL3689315
     RDKit          3D

  0  0  0  0  0  0  0  0  0  0999 V3000
M  V30 BEGIN CTAB
M  V30 COUNTS 77 81 0 0 0
M  V30 BEGIN ATOM
M  V30 1 C 3.961804 -4.085016 1.520872 0
M  V30 2 C 3.104668 -2.981696 2.069045 0
M  V30 3 C 1.775065 -3.031634 1.330936 0
M  V30 4 N 3.718591 -1.714724 1.851492 0
M  V30 5 C 4.990885 -1.511997 2.443463 0
M  V30 6 C 5.476384 -0.110478 2.201340 0
M  V30 7 C 4.563527 0.901477 2.859899 0
M  V30 8 C 3.269565 0.252673 3.175318 0 CFG=1
M  V30 9 C 2.188057 1.076888 3.764262 0
M  V30 10 O 1.741127 2.135197 3.066313 0
M  V30 11 C 2.073793 3.300629 2.577254 0
M  V30 12 C 3.159757 4.143961 2.546091 0
M  V30 13 C 3.309077 5.373960 1.961154 0
M  V30 14 N 2.204145 5.791401 1.328032 0
M  V30 15 C 1.056632 5.102349 1.254708 0
M  V30 16 C 0.048446 5.705493 0.540741 0
M  V30 17 C -1.138843 5.012015 0.430558 0
M  V30 18 C -1.307344 3.791076 0.999842 0
M  V30 19 C -2.517566 2.995008 0.894884 0
M  V30 20 C -3.508457 2.323523 0.794906 0
M  V30 21 C -4.726331 1.480206 0.649935 0
M  V30 22 N -4.485210 0.501006 -0.425120 0
M  V30 23 C -5.463928 -0.454646 -0.813627 0
M  V30 24 O -6.478632 -0.285146 -0.089189 0
M  V30 25 C -5.330783 -1.450596 -1.856157 0
M  V30 26 C -6.464003 -2.252127 -2.011644 0
M  V30 27 C -6.482867 -3.241627 -2.968642 0
M  V30 28 C -5.408763 -3.487553 -3.803857 0
M  V30 29 N -4.349120 -2.703370 -3.626013 0
M  V30 30 C -3.226362 -2.939312 -4.494281 0
M  V30 31 C -2.300263 -3.927015 -3.894689 0
M  V30 32 C -2.486798 -5.302733 -4.086166 0
M  V30 33 C -1.591599 -6.178777 -3.514010 0
M  V30 34 C -0.512530 -5.776015 -2.756143 0
M  V30 35 F 0.338337 -6.692220 -2.218356 0
M  V30 36 C -0.302302 -4.433564 -2.549344 0
M  V30 37 F 0.736489 -3.963955 -1.812185 0
M  V30 38 C -1.216157 -3.569447 -3.134763 0
M  V30 39 C -4.301433 -1.747201 -2.717148 0
M  V30 40 O -3.296516 -1.029303 -2.572054 0
M  V30 41 C -0.261874 3.240902 1.702801 0
M  V30 42 C 0.984833 3.852001 1.879511 0
M  V30 43 C 2.853456 -0.583056 1.984116 0
M  V30 44 H 4.372584 -3.800676 0.519350 0
M  V30 45 H 4.751946 -4.427107 2.206212 0
M  V30 46 H 3.274460 -4.955171 1.317641 0
M  V30 47 H 2.922380 -3.173824 3.154261 0
M  V30 48 H 0.925990 -2.934477 2.063196 0
M  V30 49 H 1.631346 -4.015725 0.822272 0
M  V30 50 H 1.736902 -2.251329 0.542767 0
M  V30 51 H 5.007777 -1.703585 3.536000 0
M  V30 52 H 5.763045 -2.236016 2.044325 0
M  V30 53 H 5.526486 0.034054 1.098602 0
M  V30 54 H 6.521937 -0.031752 2.616683 0
M  V30 55 H 5.043185 1.415341 3.710602 0
M  V30 56 H 4.354800 1.650336 2.033062 0
M  V30 57 H 3.507341 -0.523917 3.985380 0
M  V30 58 H 1.378855 0.366300 4.106628 0
M  V30 59 H 2.609291 1.423179 4.777714 0
M  V30 60 H 4.000254 3.706979 3.103845 0
M  V30 61 H 4.258606 5.875905 2.060005 0
M  V30 62 H 0.162549 6.663029 0.088243 0
M  V30 63 H -1.970832 5.424924 -0.114387 0
M  V30 64 H -4.903139 0.871123 1.561496 0
M  V30 65 H -5.543575 2.156020 0.404102 0
M  V30 66 H -3.556849 0.512474 -0.917904 0
M  V30 67 H -7.361441 -2.133150 -1.396268 0
M  V30 68 H -7.373889 -3.855937 -3.074543 0
M  V30 69 H -5.504290 -4.287512 -4.534853 0
M  V30 70 H -2.677432 -1.958904 -4.582577 0
M  V30 71 H -3.539856 -3.232670 -5.520079 0
M  V30 72 H -3.344346 -5.606295 -4.686851 0
M  V30 73 H -1.737863 -7.247516 -3.666095 0
M  V30 74 H -1.019184 -2.513266 -2.951760 0
M  V30 75 H -0.378892 2.270584 2.164549 0
M  V30 76 H 1.783806 -0.911358 2.117556 0
M  V30 77 H 2.842827 -0.009610 1.032419 0
M  V30 END ATOM
M  V30 BEGIN BOND
M  V30 1 1 1 2
M  V30 2 1 2 3
M  V30 3 1 2 4
M  V30 4 1 4 5
M  V30 5 1 5 6
M  V30 6 1 6 7
M  V30 7 1 7 8
M  V30 8 1 8 9
M  V30 9 1 9 10
M  V30 10 1 10 11
M  V30 11 2 11 12
M  V30 12 1 12 13
M  V30 13 2 13 14
M  V30 14 1 14 15
M  V30 15 2 15 16
M  V30 16 1 16 17
M  V30 17 2 17 18
M  V30 18 1 18 19
M  V30 19 3 19 20
M  V30 20 1 20 21
M  V30 21 1 21 22
M  V30 22 1 22 23
M  V30 23 2 23 24
M  V30 24 1 23 25
M  V30 25 2 25 26
M  V30 26 1 26 27
M  V30 27 2 27 28
M  V30 28 1 28 29
M  V30 29 1 29 30
M  V30 30 1 30 31
M  V30 31 2 31 32
M  V30 32 1 32 33
M  V30 33 2 33 34
M  V30 34 1 34 35
M  V30 35 1 34 36
M  V30 36 1 36 37
M  V30 37 2 36 38
M  V30 38 1 29 39
M  V30 39 2 39 40
M  V30 40 1 18 41
M  V30 41 2 41 42
M  V30 42 1 8 43
M  V30 43 1 43 4
M  V30 44 1 42 11
M  V30 45 1 42 15
M  V30 46 1 39 25
M  V30 47 1 38 31
M  V30 48 1 1 44
M  V30 49 1 1 45
M  V30 50 1 1 46
M  V30 51 1 2 47
M  V30 52 1 3 48
M  V30 53 1 3 49
M  V30 54 1 3 50
M  V30 55 1 5 51
M  V30 56 1 5 52
M  V30 57 1 6 53
M  V30 58 1 6 54
M  V30 59 1 7 55
M  V30 60 1 7 56
M  V30 61 1 8 57 CFG=1
M  V30 62 1 9 58
M  V30 63 1 9 59
M  V30 64 1 12 60
M  V30 65 1 13 61
M  V30 66 1 16 62
M  V30 67 1 17 63
M  V30 68 1 21 64
M  V30 69 1 21 65
M  V30 70 1 22 66
M  V30 71 1 26 67
M  V30 72 1 27 68
M  V30 73 1 28 69
M  V30 74 1 30 70
M  V30 75 1 30 71
M  V30 76 1 32 72
M  V30 77 1 33 73
M  V30 78 1 38 74
M  V30 79 1 41 75
M  V30 80 1 43 76
M  V30 81 1 43 77
M  V30 END BOND
M  V30 END CTAB
M  END
>  <Dataset>  (909) 
ChEMBL_Kinases

>  <Ligand_Instance>  (909) 
nan

>  <PDB_ID>  (909) 
nan

>  <Standardized_SMILES>  (909) 
CC(C)N1CCC[C@@H](COc2ccnc3ccc(C#CCNC(=O)c4cccn(Cc5ccc(F)c(F)c5)c4=O)cc23)C1

>  <Name>  (909) 
nan

>  <Pocket>  (909) 
nan

>  <ATP_Site>  (909) 
nan

>  <Peripheral>  (909) 
nan

>  <Num_H_Atoms_ProtBoundConf>  (909) 
nan

>  <Num_Resolved_Atoms>  (909) 
nan

>  <Num_Not_Resolved_Atoms>  (909) 
nan

$$$$
CHEMBL3689314
     RDKit          3D

  0  0  0  0  0  0  0  0  0  0999 V3000
M  V30 BEGIN CTAB
M  V30 COUNTS 75 79 0 0 0
M  V30 BEGIN ATOM
M  V30 1 C 1.232855 -4.527821 1.091497 0
M  V30 2 N 1.656066 -3.349478 0.357735 0
M  V30 3 C 2.341185 -3.809002 -0.837262 0
M  V30 4 C 2.629426 -2.623000 -1.721241 0
M  V30 5 C 2.833859 -1.366493 -0.869127 0
M  V30 6 C 3.551867 -1.799971 0.368359 0 CFG=1
M  V30 7 C 4.190155 -0.694272 1.140540 0
M  V30 8 O 3.308222 0.288418 1.598700 0
M  V30 9 C 3.877937 1.333158 2.323304 0
M  V30 10 C 5.223126 1.444365 2.602958 0
M  V30 11 C 5.742196 2.502576 3.327804 0
M  V30 12 N 4.896431 3.460027 3.776257 0
M  V30 13 C 3.560084 3.401307 3.529887 0
M  V30 14 C 2.740532 4.407149 4.011822 0
M  V30 15 C 1.362796 4.366199 3.769640 0
M  V30 16 C 0.890001 3.283057 3.036900 0
M  V30 17 C -0.518164 3.137702 2.726033 0
M  V30 18 C -1.696142 3.018636 2.444439 0
M  V30 19 C -3.112686 2.863889 2.090025 0
M  V30 20 N -3.279309 1.763523 1.157364 0
M  V30 21 C -2.839952 0.522922 1.678197 0
M  V30 22 O -2.399960 0.703102 2.865868 0
M  V30 23 C -2.851477 -0.779011 1.039750 0
M  V30 24 C -2.343932 -1.817344 1.825420 0
M  V30 25 C -2.289112 -3.107823 1.357775 0
M  V30 26 C -2.729731 -3.412228 0.110277 0
M  V30 27 N -3.226688 -2.402657 -0.662264 0
M  V30 28 C -3.684638 -2.761551 -1.978249 0
M  V30 29 C -5.173389 -3.076634 -1.844622 0
M  V30 30 O -5.747558 -3.440782 -3.050140 0
M  V30 31 C -3.489444 -1.717829 -2.998144 0
M  V30 32 C -4.359046 -0.766402 -3.502668 0
M  V30 33 C -3.948762 0.121918 -4.468872 0
M  V30 34 F -4.875434 1.007888 -4.891376 0
M  V30 35 C -2.663152 0.094126 -4.964694 0
M  V30 36 F -2.371139 1.014837 -5.912276 0
M  V30 37 C -1.765644 -0.847202 -4.480602 0
M  V30 38 F -0.519154 -0.827336 -5.003539 0
M  V30 39 C -2.195193 -1.738529 -3.503872 0
M  V30 40 C -3.283552 -1.141239 -0.213354 0
M  V30 41 O -3.732617 -0.208305 -0.901604 0
M  V30 42 C 1.701123 2.278803 2.554616 0
M  V30 43 C 3.056397 2.336464 2.803412 0
M  V30 44 C 2.613757 -2.647904 1.192849 0
M  V30 45 H 2.009376 -5.316367 0.918384 0
M  V30 46 H 0.277224 -4.953922 0.739069 0
M  V30 47 H 1.260942 -4.287837 2.168955 0
M  V30 48 H 1.772678 -4.546064 -1.405272 0
M  V30 49 H 3.300729 -4.300967 -0.549619 0
M  V30 50 H 1.866057 -2.478810 -2.497638 0
M  V30 51 H 3.597169 -2.826964 -2.231004 0
M  V30 52 H 3.496407 -0.694752 -1.489595 0
M  V30 53 H 1.860114 -0.874456 -0.678717 0
M  V30 54 H 4.369643 -2.477762 0.036295 0
M  V30 55 H 4.993058 -0.265617 0.485688 0
M  V30 56 H 4.705340 -1.117904 2.005809 0
M  V30 57 H 5.846983 0.655276 2.221906 0
M  V30 58 H 6.794696 2.568684 3.533871 0
M  V30 59 H 3.115078 5.250590 4.583472 0
M  V30 60 H 0.663078 5.123753 4.119631 0
M  V30 61 H -3.549786 3.797692 1.694126 0
M  V30 62 H -3.621496 2.554089 3.023342 0
M  V30 63 H -3.662628 1.776535 0.202419 0
M  V30 64 H -1.969175 -1.643151 2.846834 0
M  V30 65 H -1.894502 -3.880758 1.984711 0
M  V30 66 H -2.693130 -4.433585 -0.276660 0
M  V30 67 H -3.228759 -3.729921 -2.293473 0
M  V30 68 H -5.267454 -3.870734 -1.080548 0
M  V30 69 H -5.716647 -2.185684 -1.468698 0
M  V30 70 H -5.299277 -4.156869 -3.528497 0
M  V30 71 H -5.343079 -0.841552 -3.036887 0
M  V30 72 H -1.399789 -2.413817 -3.218049 0
M  V30 73 H 1.328173 1.454827 1.995099 0
M  V30 74 H 2.065574 -2.030506 1.954835 0
M  V30 75 H 3.167376 -3.421814 1.763534 0
M  V30 END ATOM
M  V30 BEGIN BOND
M  V30 1 1 1 2
M  V30 2 1 2 3
M  V30 3 1 3 4
M  V30 4 1 4 5
M  V30 5 1 5 6
M  V30 6 1 6 7
M  V30 7 1 7 8
M  V30 8 1 8 9
M  V30 9 2 9 10
M  V30 10 1 10 11
M  V30 11 2 11 12
M  V30 12 1 12 13
M  V30 13 2 13 14
M  V30 14 1 14 15
M  V30 15 2 15 16
M  V30 16 1 16 17
M  V30 17 3 17 18
M  V30 18 1 18 19
M  V30 19 1 19 20
M  V30 20 1 20 21
M  V30 21 2 21 22
M  V30 22 1 21 23
M  V30 23 2 23 24
M  V30 24 1 24 25
M  V30 25 2 25 26
M  V30 26 1 26 27
M  V30 27 1 27 28
M  V30 28 1 28 29
M  V30 29 1 29 30
M  V30 30 1 28 31
M  V30 31 2 31 32
M  V30 32 1 32 33
M  V30 33 1 33 34
M  V30 34 2 33 35
M  V30 35 1 35 36
M  V30 36 1 35 37
M  V30 37 1 37 38
M  V30 38 2 37 39
M  V30 39 1 27 40
M  V30 40 2 40 41
M  V30 41 1 16 42
M  V30 42 2 42 43
M  V30 43 1 6 44
M  V30 44 1 44 2
M  V30 45 1 43 9
M  V30 46 1 43 13
M  V30 47 1 40 23
M  V30 48 1 39 31
M  V30 49 1 1 45
M  V30 50 1 1 46
M  V30 51 1 1 47
M  V30 52 1 3 48
M  V30 53 1 3 49
M  V30 54 1 4 50
M  V30 55 1 4 51
M  V30 56 1 5 52
M  V30 57 1 5 53
M  V30 58 1 6 54 CFG=3
M  V30 59 1 7 55
M  V30 60 1 7 56
M  V30 61 1 10 57
M  V30 62 1 11 58
M  V30 63 1 14 59
M  V30 64 1 15 60
M  V30 65 1 19 61
M  V30 66 1 19 62
M  V30 67 1 20 63
M  V30 68 1 24 64
M  V30 69 1 25 65
M  V30 70 1 26 66
M  V30 71 1 28 67
M  V30 72 1 29 68
M  V30 73 1 29 69
M  V30 74 1 30 70
M  V30 75 1 32 71
M  V30 76 1 39 72
M  V30 77 1 42 73
M  V30 78 1 44 74
M  V30 79 1 44 75
M  V30 END BOND
M  V30 END CTAB
M  END
>  <Dataset>  (910) 
ChEMBL_Kinases

>  <Ligand_Instance>  (910) 
nan

>  <PDB_ID>  (910) 
nan

>  <Standardized_SMILES>  (910) 
CN1CCC[C@@H](COc2ccnc3ccc(C#CCNC(=O)c4cccn(C(CO)c5cc(F)c(F)c(F)c5)c4=O)cc23)C1

>  <Name>  (910) 
nan

>  <Pocket>  (910) 
nan

>  <ATP_Site>  (910) 
nan

>  <Peripheral>  (910) 
nan

>  <Num_H_Atoms_ProtBoundConf>  (910) 
nan

>  <Num_Resolved_Atoms>  (910) 
nan

>  <Num_Not_Resolved_Atoms>  (910) 
nan

$$$$
CHEMBL3689395
     RDKit          3D

  0  0  0  0  0  0  0  0  0  0999 V3000
M  V30 BEGIN CTAB
M  V30 COUNTS 48 52 0 0 0
M  V30 BEGIN ATOM
M  V30 1 C -4.974224 -4.678534 2.459274 0
M  V30 2 C -3.771731 -4.054611 2.422334 0
M  V30 3 C -3.171218 -3.719420 1.236216 0
M  V30 4 C -1.955968 -3.087083 1.109204 0
M  V30 5 C -1.492518 -2.821136 -0.159787 0
M  V30 6 C -0.160371 -2.123705 -0.270088 0
M  V30 7 N -0.235315 -0.712595 -0.312659 0
M  V30 8 C -0.984031 -0.214704 -1.419036 0
M  V30 9 C -0.879065 1.265133 -1.613637 0
M  V30 10 C -0.179583 1.986154 -0.506749 0
M  V30 11 C -0.445724 1.455063 0.869173 0
M  V30 12 N 0.414587 1.956077 1.884587 0
M  V30 13 C 1.813928 1.795929 2.029382 0
M  V30 14 C 2.561971 2.361177 3.073893 0
M  V30 15 C 3.920587 2.189216 3.203812 0
M  V30 16 C 4.626346 1.434916 2.290874 0
M  V30 17 N 5.931619 1.124700 2.201680 0
M  V30 18 N 6.106657 0.358057 1.120870 0
M  V30 19 C 4.905418 0.191262 0.536195 0
M  V30 20 C 3.932135 0.861056 1.249082 0
M  V30 21 C 2.577336 1.053184 1.150166 0
M  V30 22 C -0.423133 -0.054748 0.930850 0
M  V30 23 C -2.153238 -3.139637 -1.344044 0
M  V30 24 C -3.367651 -3.771992 -1.198132 0
M  V30 25 C -3.829387 -4.036966 0.073104 0
M  V30 26 S -5.354055 -4.837800 0.602416 0
M  V30 27 H -5.675023 -5.054778 3.106093 0
M  V30 28 H -3.412596 -3.888865 3.426249 0
M  V30 29 H -1.337890 -2.786174 1.969761 0
M  V30 30 H 0.460540 -2.531469 0.549675 0
M  V30 31 H 0.274228 -2.464480 -1.232368 0
M  V30 32 H -0.688499 -0.797480 -2.314878 0
M  V30 33 H -2.047816 -0.462893 -1.224498 0
M  V30 34 H -1.874324 1.682298 -1.868531 0
M  V30 35 H -0.265849 1.424304 -2.543598 0
M  V30 36 H 0.875434 2.251619 -0.712301 0
M  V30 37 H -0.674750 3.012717 -0.512017 0
M  V30 38 H -1.501919 1.738229 1.175748 0
M  V30 39 H 0.010533 2.545521 2.681299 0
M  V30 40 H 2.029348 2.958114 3.803694 0
M  V30 41 H 4.401173 2.669211 4.047051 0
M  V30 42 H 6.639397 1.445820 2.874729 0
M  V30 43 H 4.707900 -0.388813 -0.374625 0
M  V30 44 H 2.157887 0.560301 0.313848 0
M  V30 45 H -1.360984 -0.459635 1.422697 0
M  V30 46 H 0.385856 -0.393821 1.615281 0
M  V30 47 H -1.784771 -2.929242 -2.319268 0
M  V30 48 H -3.987220 -4.076691 -2.008299 0
M  V30 END ATOM
M  V30 BEGIN BOND
M  V30 1 2 1 2
M  V30 2 1 2 3
M  V30 3 2 3 4
M  V30 4 1 4 5
M  V30 5 1 5 6
M  V30 6 1 6 7
M  V30 7 1 7 8
M  V30 8 1 8 9
M  V30 9 1 9 10
M  V30 10 1 10 11
M  V30 11 1 11 12
M  V30 12 1 12 13
M  V30 13 2 13 14
M  V30 14 1 14 15
M  V30 15 2 15 16
M  V30 16 1 16 17
M  V30 17 1 17 18
M  V30 18 2 18 19
M  V30 19 1 19 20
M  V30 20 2 20 21
M  V30 21 1 11 22
M  V30 22 2 5 23
M  V30 23 1 23 24
M  V30 24 2 24 25
M  V30 25 1 25 26
M  V30 26 1 26 1
M  V30 27 1 25 3
M  V30 28 1 22 7
M  V30 29 1 21 13
M  V30 30 1 20 16
M  V30 31 1 1 27
M  V30 32 1 2 28
M  V30 33 1 4 29
M  V30 34 1 6 30
M  V30 35 1 6 31
M  V30 36 1 8 32
M  V30 37 1 8 33
M  V30 38 1 9 34
M  V30 39 1 9 35
M  V30 40 1 10 36
M  V30 41 1 10 37
M  V30 42 1 11 38
M  V30 43 1 12 39
M  V30 44 1 14 40
M  V30 45 1 15 41
M  V30 46 1 17 42
M  V30 47 1 19 43
M  V30 48 1 21 44
M  V30 49 1 22 45
M  V30 50 1 22 46
M  V30 51 1 23 47
M  V30 52 1 24 48
M  V30 END BOND
M  V30 END CTAB
M  END
>  <Dataset>  (911) 
ChEMBL_Kinases

>  <Ligand_Instance>  (911) 
nan

>  <PDB_ID>  (911) 
nan

>  <Standardized_SMILES>  (911) 
c1cc2cc(CN3CCCC(Nc4ccc5[nH]ncc5c4)C3)ccc2s1

>  <Name>  (911) 
nan

>  <Pocket>  (911) 
nan

>  <ATP_Site>  (911) 
nan

>  <Peripheral>  (911) 
nan

>  <Num_H_Atoms_ProtBoundConf>  (911) 
nan

>  <Num_Resolved_Atoms>  (911) 
nan

>  <Num_Not_Resolved_Atoms>  (911) 
nan

$$$$
CHEMBL3689297
     RDKit          3D

  0  0  0  0  0  0  0  0  0  0999 V3000
M  V30 BEGIN CTAB
M  V30 COUNTS 69 72 0 0 0
M  V30 BEGIN ATOM
M  V30 1 C 3.369333 -3.943020 -2.000925 0
M  V30 2 N 2.027093 -4.403652 -1.751245 0
M  V30 3 C 1.961685 -5.189952 -0.550827 0
M  V30 4 C 1.420841 -5.036315 -2.884494 0
M  V30 5 C 1.131616 -4.068633 -4.003460 0
M  V30 6 C 0.191711 -2.979676 -3.518045 0
M  V30 7 C -0.143603 -1.985025 -4.586180 0
M  V30 8 O -1.022801 -1.008076 -4.018535 0
M  V30 9 C -1.517120 0.039711 -4.750087 0
M  V30 10 C -1.279890 0.327207 -6.078386 0
M  V30 11 C -1.867501 1.439740 -6.670014 0
M  V30 12 N -2.668691 2.227927 -5.925489 0
M  V30 13 C -2.925636 1.990979 -4.645519 0
M  V30 14 C -3.766275 2.899568 -4.031105 0
M  V30 15 C -4.053604 2.676379 -2.679087 0
M  V30 16 C -3.497269 1.586254 -2.040395 0
M  V30 17 C -3.768545 1.322233 -0.641225 0
M  V30 18 C -3.980496 1.087279 0.532518 0
M  V30 19 C -4.217422 0.797308 1.953676 0
M  V30 20 N -3.069277 1.161498 2.786474 0
M  V30 21 C -1.931069 0.439440 2.380704 0
M  V30 22 O -2.261988 -0.315339 1.401188 0
M  V30 23 C -0.584681 0.489382 2.929108 0
M  V30 24 C 0.324301 -0.359405 2.292338 0
M  V30 25 N 1.611779 -0.460307 2.646338 0
M  V30 26 C 2.078792 0.281844 3.662708 0
M  V30 27 N 1.229122 1.111295 4.298849 0
M  V30 28 C 1.736001 1.909791 5.397822 0
M  V30 29 C 1.597059 1.163332 6.701568 0
M  V30 30 C 0.485089 1.250637 7.515345 0
M  V30 31 C 0.448940 0.516491 8.707803 0
M  V30 32 C 1.530305 -0.276540 9.037034 0
M  V30 33 F 1.531375 -1.009180 10.198223 0
M  V30 34 C 2.641796 -0.364376 8.224424 0
M  V30 35 F 3.678623 -1.174085 8.618261 0
M  V30 36 C 2.692747 0.358415 7.037276 0
M  V30 37 C -0.063909 1.231812 3.965204 0
M  V30 38 O -0.877309 1.976934 4.517800 0
M  V30 39 C -2.663231 0.710270 -2.705170 0
M  V30 40 C -2.351512 0.888890 -4.035579 0
M  V30 41 H 4.084001 -4.787863 -2.096344 0
M  V30 42 H 3.662658 -3.354482 -1.082954 0
M  V30 43 H 3.394064 -3.317907 -2.899454 0
M  V30 44 H 2.038604 -4.554021 0.372367 0
M  V30 45 H 2.755014 -5.964777 -0.595130 0
M  V30 46 H 0.938183 -5.651571 -0.481568 0
M  V30 47 H 2.071079 -5.871187 -3.215927 0
M  V30 48 H 0.453069 -5.472320 -2.570375 0
M  V30 49 H 0.612069 -4.661790 -4.803858 0
M  V30 50 H 2.071666 -3.642202 -4.391998 0
M  V30 51 H 0.730223 -2.487286 -2.674805 0
M  V30 52 H -0.710115 -3.452078 -3.081604 0
M  V30 53 H 0.775138 -1.509769 -4.955292 0
M  V30 54 H -0.598938 -2.506431 -5.440212 0
M  V30 55 H -0.629102 -0.356115 -6.595269 0
M  V30 56 H -1.637370 1.611586 -7.731846 0
M  V30 57 H -4.185254 3.740053 -4.556902 0
M  V30 58 H -4.707766 3.354676 -2.136572 0
M  V30 59 H -4.414046 -0.282565 2.010174 0
M  V30 60 H -5.074977 1.416022 2.333899 0
M  V30 61 H -2.951169 1.829516 3.588861 0
M  V30 62 H 0.057973 -1.010418 1.450809 0
M  V30 63 H 3.122761 0.191673 3.940717 0
M  V30 64 H 2.799258 2.186397 5.281722 0
M  V30 65 H 1.182842 2.868311 5.501449 0
M  V30 66 H -0.337116 1.892281 7.204933 0
M  V30 67 H -0.423326 0.582321 9.350771 0
M  V30 68 H 3.587005 0.241252 6.460410 0
M  V30 69 H -2.233970 -0.148120 -2.170575 0
M  V30 END ATOM
M  V30 BEGIN BOND
M  V30 1 1 1 2
M  V30 2 1 2 3
M  V30 3 1 2 4
M  V30 4 1 4 5
M  V30 5 1 5 6
M  V30 6 1 6 7
M  V30 7 1 7 8
M  V30 8 1 8 9
M  V30 9 2 9 10
M  V30 10 1 10 11
M  V30 11 2 11 12
M  V30 12 1 12 13
M  V30 13 2 13 14
M  V30 14 1 14 15
M  V30 15 2 15 16
M  V30 16 1 16 17
M  V30 17 3 17 18
M  V30 18 1 18 19
M  V30 19 1 19 20
M  V30 20 1 20 21
M  V30 21 2 21 22
M  V30 22 1 21 23
M  V30 23 2 23 24
M  V30 24 1 24 25
M  V30 25 2 25 26
M  V30 26 1 26 27
M  V30 27 1 27 28
M  V30 28 1 28 29
M  V30 29 2 29 30
M  V30 30 1 30 31
M  V30 31 2 31 32
M  V30 32 1 32 33
M  V30 33 1 32 34
M  V30 34 1 34 35
M  V30 35 2 34 36
M  V30 36 1 27 37
M  V30 37 2 37 38
M  V30 38 1 16 39
M  V30 39 2 39 40
M  V30 40 1 40 9
M  V30 41 1 40 13
M  V30 42 1 37 23
M  V30 43 1 36 29
M  V30 44 1 1 41
M  V30 45 1 1 42
M  V30 46 1 1 43
M  V30 47 1 3 44
M  V30 48 1 3 45
M  V30 49 1 3 46
M  V30 50 1 4 47
M  V30 51 1 4 48
M  V30 52 1 5 49
M  V30 53 1 5 50
M  V30 54 1 6 51
M  V30 55 1 6 52
M  V30 56 1 7 53
M  V30 57 1 7 54
M  V30 58 1 10 55
M  V30 59 1 11 56
M  V30 60 1 14 57
M  V30 61 1 15 58
M  V30 62 1 19 59
M  V30 63 1 19 60
M  V30 64 1 20 61
M  V30 65 1 24 62
M  V30 66 1 26 63
M  V30 67 1 28 64
M  V30 68 1 28 65
M  V30 69 1 30 66
M  V30 70 1 31 67
M  V30 71 1 36 68
M  V30 72 1 39 69
M  V30 END BOND
M  V30 END CTAB
M  END
>  <Dataset>  (912) 
ChEMBL_Kinases

>  <Ligand_Instance>  (912) 
nan

>  <PDB_ID>  (912) 
nan

>  <Standardized_SMILES>  (912) 
CN(C)CCCCOc1ccnc2ccc(C#CCNC(=O)c3cncn(Cc4ccc(F)c(F)c4)c3=O)cc12

>  <Name>  (912) 
nan

>  <Pocket>  (912) 
nan

>  <ATP_Site>  (912) 
nan

>  <Peripheral>  (912) 
nan

>  <Num_H_Atoms_ProtBoundConf>  (912) 
nan

>  <Num_Resolved_Atoms>  (912) 
nan

>  <Num_Not_Resolved_Atoms>  (912) 
nan

$$$$
CHEMBL3689298
     RDKit          3D

  0  0  0  0  0  0  0  0  0  0999 V3000
M  V30 BEGIN CTAB
M  V30 COUNTS 68 72 0 0 0
M  V30 BEGIN ATOM
M  V30 1 O 0.738592 -2.901154 5.725959 0
M  V30 2 C 0.511163 -2.865670 4.469797 0
M  V30 3 N 0.024135 -1.574694 4.138018 0
M  V30 4 C -0.118146 -0.593446 5.216365 0
M  V30 5 C -0.636656 0.630101 4.556800 0
M  V30 6 C -1.038888 1.630406 4.014254 0
M  V30 7 C -1.495734 2.825230 3.357279 0
M  V30 8 C -2.138340 3.854400 4.012091 0
M  V30 9 C -2.552202 4.967780 3.341468 0
M  V30 10 C -2.307204 5.030441 1.988512 0
M  V30 11 N -2.730176 6.139432 1.372388 0
M  V30 12 C -2.568861 6.351866 0.067116 0
M  V30 13 C -1.936868 5.359794 -0.624848 0
M  V30 14 C -1.452628 4.182176 -0.144848 0
M  V30 15 O -0.831550 3.124629 -0.620917 0
M  V30 16 C -0.331133 2.560071 -1.736943 0
M  V30 17 C -1.234116 2.234654 -2.871761 0
M  V30 18 C -1.967190 3.360050 -3.510981 0
M  V30 19 C -2.196544 2.835098 -4.925104 0
M  V30 20 O -1.220101 1.909708 -5.193021 0
M  V30 21 C -0.531615 1.579464 -4.054819 0
M  V30 22 C -1.664710 4.043349 1.232338 0
M  V30 23 C -1.282781 2.953036 2.003689 0
M  V30 24 C 0.741046 -4.003555 3.599280 0
M  V30 25 C 1.235048 -5.138273 4.249819 0
M  V30 26 C 1.502883 -6.291051 3.554866 0
M  V30 27 C 1.291364 -6.359464 2.195964 0
M  V30 28 N 0.808554 -5.245387 1.570167 0
M  V30 29 C 0.610732 -5.380935 0.161697 0
M  V30 30 C -0.332794 -4.414113 -0.470693 0
M  V30 31 O -1.588508 -4.553308 0.117045 0
M  V30 32 C 1.891532 -5.506076 -0.591354 0
M  V30 33 C 2.570097 -6.662330 -0.924341 0
M  V30 34 C 3.752233 -6.585174 -1.630702 0
M  V30 35 C 4.295356 -5.375352 -2.026220 0
M  V30 36 F 5.472358 -5.366737 -2.725694 0
M  V30 37 C 3.614867 -4.242155 -1.690768 0
M  V30 38 F 4.217134 -3.085296 -2.118584 0
M  V30 39 C 2.417317 -4.269523 -0.978216 0
M  V30 40 C 0.545543 -4.118183 2.243459 0
M  V30 41 O 0.110656 -3.114373 1.681294 0
M  V30 42 H -0.205922 -1.399292 3.137335 0
M  V30 43 H 0.817800 -0.389683 5.742365 0
M  V30 44 H -0.847641 -1.028409 5.910247 0
M  V30 45 H -2.274243 3.692266 5.072311 0
M  V30 46 H -3.047254 5.752467 3.865648 0
M  V30 47 H -2.906458 7.238013 -0.426356 0
M  V30 48 H -1.789410 5.510758 -1.663433 0
M  V30 49 H 0.138386 1.561038 -1.430089 0
M  V30 50 H 0.560800 3.094087 -2.180157 0
M  V30 51 H -1.937343 1.451014 -2.501133 0
M  V30 52 H -2.916194 3.595422 -3.002890 0
M  V30 53 H -1.339749 4.269906 -3.612168 0
M  V30 54 H -3.235543 2.473599 -5.054778 0
M  V30 55 H -2.079805 3.666415 -5.650169 0
M  V30 56 H -0.367844 0.501444 -3.890894 0
M  V30 57 H 0.480829 2.054258 -4.092375 0
M  V30 58 H -0.777835 2.146390 1.483459 0
M  V30 59 H 1.424795 -5.151137 5.323820 0
M  V30 60 H 1.884260 -7.150732 4.088801 0
M  V30 61 H 1.526452 -7.302622 1.722457 0
M  V30 62 H 0.118275 -6.390577 0.007001 0
M  V30 63 H -0.498168 -4.798744 -1.526780 0
M  V30 64 H 0.016058 -3.396492 -0.606501 0
M  V30 65 H -2.154424 -3.755397 0.070459 0
M  V30 66 H 2.097875 -7.566570 -0.589966 0
M  V30 67 H 4.261272 -7.504382 -1.877445 0
M  V30 68 H 2.039944 -3.279338 -0.813847 0
M  V30 END ATOM
M  V30 BEGIN BOND
M  V30 1 2 1 2
M  V30 2 1 2 3
M  V30 3 1 3 4
M  V30 4 1 4 5
M  V30 5 3 5 6
M  V30 6 1 6 7
M  V30 7 2 7 8
M  V30 8 1 8 9
M  V30 9 2 9 10
M  V30 10 1 10 11
M  V30 11 2 11 12
M  V30 12 1 12 13
M  V30 13 2 13 14
M  V30 14 1 14 15
M  V30 15 1 15 16
M  V30 16 1 16 17
M  V30 17 1 17 18
M  V30 18 1 18 19
M  V30 19 1 19 20
M  V30 20 1 20 21
M  V30 21 1 14 22
M  V30 22 2 22 23
M  V30 23 1 2 24
M  V30 24 2 24 25
M  V30 25 1 25 26
M  V30 26 2 26 27
M  V30 27 1 27 28
M  V30 28 1 28 29
M  V30 29 1 29 30
M  V30 30 1 30 31
M  V30 31 1 29 32
M  V30 32 2 32 33
M  V30 33 1 33 34
M  V30 34 2 34 35
M  V30 35 1 35 36
M  V30 36 1 35 37
M  V30 37 1 37 38
M  V30 38 2 37 39
M  V30 39 1 28 40
M  V30 40 2 40 41
M  V30 41 1 23 7
M  V30 42 1 40 24
M  V30 43 1 22 10
M  V30 44 1 39 32
M  V30 45 1 21 17
M  V30 46 1 3 42
M  V30 47 1 4 43
M  V30 48 1 4 44
M  V30 49 1 8 45
M  V30 50 1 9 46
M  V30 51 1 12 47
M  V30 52 1 13 48
M  V30 53 1 16 49
M  V30 54 1 16 50
M  V30 55 1 17 51
M  V30 56 1 18 52
M  V30 57 1 18 53
M  V30 58 1 19 54
M  V30 59 1 19 55
M  V30 60 1 21 56
M  V30 61 1 21 57
M  V30 62 1 23 58
M  V30 63 1 25 59
M  V30 64 1 26 60
M  V30 65 1 27 61
M  V30 66 1 29 62
M  V30 67 1 30 63
M  V30 68 1 30 64
M  V30 69 1 31 65
M  V30 70 1 33 66
M  V30 71 1 34 67
M  V30 72 1 39 68
M  V30 END BOND
M  V30 END CTAB
M  END
>  <Dataset>  (913) 
ChEMBL_Kinases

>  <Ligand_Instance>  (913) 
nan

>  <PDB_ID>  (913) 
nan

>  <Standardized_SMILES>  (913) 
O=C(NCC#Cc1ccc2nccc(OCC3CCOC3)c2c1)c1cccn(C(CO)c2ccc(F)c(F)c2)c1=O

>  <Name>  (913) 
nan

>  <Pocket>  (913) 
nan

>  <ATP_Site>  (913) 
nan

>  <Peripheral>  (913) 
nan

>  <Num_H_Atoms_ProtBoundConf>  (913) 
nan

>  <Num_Resolved_Atoms>  (913) 
nan

>  <Num_Not_Resolved_Atoms>  (913) 
nan

$$$$
CHEMBL3689299
     RDKit          3D

  0  0  0  0  0  0  0  0  0  0999 V3000
M  V30 BEGIN CTAB
M  V30 COUNTS 66 69 0 0 0
M  V30 BEGIN ATOM
M  V30 1 C 5.467219 -1.274011 3.589585 0
M  V30 2 N 4.867878 -2.532398 3.716719 0
M  V30 3 C 4.017241 -2.513306 4.923802 0
M  V30 4 C 4.108481 -3.112094 2.692910 0
M  V30 5 C 4.726441 -3.581063 1.442490 0
M  V30 6 C 5.399484 -2.468103 0.692866 0
M  V30 7 O 4.517407 -1.414187 0.409189 0
M  V30 8 C 4.973323 -0.325403 -0.295286 0
M  V30 9 C 6.216616 -0.073958 -0.839948 0
M  V30 10 C 6.486787 1.091425 -1.527082 0
M  V30 11 N 5.505335 2.002773 -1.664912 0
M  V30 12 C 4.286854 1.813674 -1.161649 0
M  V30 13 C 3.297847 2.760566 -1.283205 0
M  V30 14 C 2.001029 2.646571 -0.759081 0
M  V30 15 C 1.755952 1.479194 -0.083722 0
M  V30 16 C 0.481815 1.301813 0.527694 0
M  V30 17 C -0.587455 1.152027 1.066117 0
M  V30 18 C -1.927030 0.989574 1.753487 0
M  V30 19 N -2.428985 -0.278556 1.366191 0
M  V30 20 C -2.543648 -1.668015 1.128426 0
M  V30 21 O -1.429253 -1.977774 1.522988 0
M  V30 22 C -3.711709 -2.257741 0.577709 0
M  V30 23 C -3.693287 -3.588842 0.107915 0
M  V30 24 C -4.919394 -3.922023 -0.513074 0
M  V30 25 N -5.938869 -3.071463 -0.621256 0
M  V30 26 N -6.028124 -1.744491 -0.175230 0
M  V30 27 C -7.353812 -1.449840 -0.613461 0
M  V30 28 C -7.198809 -0.222381 -1.508834 0
M  V30 29 C -7.044013 0.021308 -2.853701 0
M  V30 30 C -6.902162 1.327206 -3.315495 0
M  V30 31 C -6.908424 2.407831 -2.489749 0
M  V30 32 F -6.752252 3.652464 -3.026435 0
M  V30 33 C -7.057876 2.280327 -1.114235 0
M  V30 34 F -7.049837 3.326008 -0.267473 0
M  V30 35 C -7.193327 0.957793 -0.700696 0
M  V30 36 C -4.939679 -1.998868 0.173782 0
M  V30 37 O -5.139778 -0.695649 0.569315 0
M  V30 38 C 2.692255 0.516932 0.065017 0
M  V30 39 C 3.977753 0.650867 -0.464420 0
M  V30 40 H 5.329108 -0.705870 4.562789 0
M  V30 41 H 6.575558 -1.259939 3.481930 0
M  V30 42 H 4.985979 -0.562536 2.854542 0
M  V30 43 H 2.945901 -2.392441 4.635415 0
M  V30 44 H 4.085012 -3.516439 5.397156 0
M  V30 45 H 4.258545 -1.682324 5.598061 0
M  V30 46 H 3.564898 -4.002264 3.177596 0
M  V30 47 H 3.216533 -2.456522 2.417318 0
M  V30 48 H 5.377863 -4.478585 1.548900 0
M  V30 49 H 3.873103 -3.910841 0.764101 0
M  V30 50 H 5.764574 -2.894568 -0.278742 0
M  V30 51 H 6.275819 -2.021470 1.252493 0
M  V30 52 H 6.927075 -0.883638 -0.656758 0
M  V30 53 H 7.478352 1.210338 -1.921229 0
M  V30 54 H 3.562616 3.647929 -1.838118 0
M  V30 55 H 1.273669 3.431899 -0.901116 0
M  V30 56 H -1.808861 1.214450 2.806864 0
M  V30 57 H -2.581846 1.818845 1.305873 0
M  V30 58 H -3.348392 0.164428 1.039673 0
M  V30 59 H -2.778267 -4.144478 0.274144 0
M  V30 60 H -4.864080 -4.991680 -0.885183 0
M  V30 61 H -8.017346 -1.148090 0.236997 0
M  V30 62 H -7.841453 -2.159039 -1.262285 0
M  V30 63 H -7.068708 -0.943762 -3.345024 0
M  V30 64 H -6.798641 1.356085 -4.398690 0
M  V30 65 H -7.309877 0.920881 0.381007 0
M  V30 66 H 2.447654 -0.392853 0.622263 0
M  V30 END ATOM
M  V30 BEGIN BOND
M  V30 1 1 1 2
M  V30 2 1 2 3
M  V30 3 1 2 4
M  V30 4 1 4 5
M  V30 5 1 5 6
M  V30 6 1 6 7
M  V30 7 1 7 8
M  V30 8 2 8 9
M  V30 9 1 9 10
M  V30 10 2 10 11
M  V30 11 1 11 12
M  V30 12 2 12 13
M  V30 13 1 13 14
M  V30 14 2 14 15
M  V30 15 1 15 16
M  V30 16 3 16 17
M  V30 17 1 17 18
M  V30 18 1 18 19
M  V30 19 1 19 20
M  V30 20 2 20 21
M  V30 21 1 20 22
M  V30 22 2 22 23
M  V30 23 1 23 24
M  V30 24 2 24 25
M  V30 25 1 25 26
M  V30 26 1 26 27
M  V30 27 1 27 28
M  V30 28 2 28 29
M  V30 29 1 29 30
M  V30 30 2 30 31
M  V30 31 1 31 32
M  V30 32 1 31 33
M  V30 33 1 33 34
M  V30 34 2 33 35
M  V30 35 1 26 36
M  V30 36 2 36 37
M  V30 37 1 15 38
M  V30 38 2 38 39
M  V30 39 1 39 8
M  V30 40 1 39 12
M  V30 41 1 36 22
M  V30 42 1 35 28
M  V30 43 1 1 40
M  V30 44 1 1 41
M  V30 45 1 1 42
M  V30 46 1 3 43
M  V30 47 1 3 44
M  V30 48 1 3 45
M  V30 49 1 4 46
M  V30 50 1 4 47
M  V30 51 1 5 48
M  V30 52 1 5 49
M  V30 53 1 6 50
M  V30 54 1 6 51
M  V30 55 1 9 52
M  V30 56 1 10 53
M  V30 57 1 13 54
M  V30 58 1 14 55
M  V30 59 1 18 56
M  V30 60 1 18 57
M  V30 61 1 19 58
M  V30 62 1 23 59
M  V30 63 1 24 60
M  V30 64 1 27 61
M  V30 65 1 27 62
M  V30 66 1 29 63
M  V30 67 1 30 64
M  V30 68 1 35 65
M  V30 69 1 38 66
M  V30 END BOND
M  V30 END CTAB
M  END
>  <Dataset>  (914) 
ChEMBL_Kinases

>  <Ligand_Instance>  (914) 
nan

>  <PDB_ID>  (914) 
nan

>  <Standardized_SMILES>  (914) 
CN(C)CCCOc1ccnc2ccc(C#CCNC(=O)c3ccnn(Cc4ccc(F)c(F)c4)c3=O)cc12

>  <Name>  (914) 
nan

>  <Pocket>  (914) 
nan

>  <ATP_Site>  (914) 
nan

>  <Peripheral>  (914) 
nan

>  <Num_H_Atoms_ProtBoundConf>  (914) 
nan

>  <Num_Resolved_Atoms>  (914) 
nan

>  <Num_Not_Resolved_Atoms>  (914) 
nan

$$$$
CHEMBL3689300
     RDKit          3D

  0  0  0  0  0  0  0  0  0  0999 V3000
M  V30 BEGIN CTAB
M  V30 COUNTS 66 70 0 0 0
M  V30 BEGIN ATOM
M  V30 1 O 3.676751 -3.938940 3.782924 0
M  V30 2 C 2.665381 -3.188627 3.657318 0
M  V30 3 N 2.748607 -2.458331 2.448559 0
M  V30 4 C 3.828244 -2.549664 1.489380 0
M  V30 5 C 3.601761 -1.660702 0.323310 0
M  V30 6 C 3.419298 -0.921083 -0.612749 0
M  V30 7 C 3.186505 -0.029220 -1.736522 0
M  V30 8 C 4.230347 0.614867 -2.355919 0
M  V30 9 C 4.004239 1.453787 -3.431806 0
M  V30 10 C 2.699487 1.626522 -3.865488 0
M  V30 11 N 2.519753 2.425733 -4.893746 0
M  V30 12 C 1.344370 2.684899 -5.420674 0
M  V30 13 C 0.271912 2.060943 -4.827821 0
M  V30 14 C 0.302951 1.201206 -3.751199 0
M  V30 15 O -0.591752 0.553071 -3.096008 0
M  V30 16 C -1.737687 0.049801 -2.670169 0
M  V30 17 C -2.431061 -0.816973 -3.697919 0
M  V30 18 C -3.741979 -1.358414 -3.162116 0
M  V30 19 C -4.234559 -2.407041 -4.118519 0
M  V30 20 O -3.547964 -2.391834 -5.327744 0
M  V30 21 C -3.492733 -1.116799 -5.876769 0
M  V30 22 C -2.678783 -0.157116 -5.015222 0
M  V30 23 C 1.606308 0.999419 -3.273053 0
M  V30 24 C 1.922311 0.170394 -2.194749 0
M  V30 25 C 1.599970 -3.120651 4.638105 0
M  V30 26 C 1.761444 -3.954212 5.754268 0
M  V30 27 N 0.861627 -3.989553 6.724674 0
M  V30 28 C -0.254030 -3.240354 6.708702 0
M  V30 29 N -0.442948 -2.431121 5.657247 0
M  V30 30 C -1.615268 -1.581964 5.555281 0
M  V30 31 C -1.373921 -0.254767 6.168054 0
M  V30 32 C -0.949707 0.886438 5.531302 0
M  V30 33 C -0.723473 2.104869 6.123831 0
M  V30 34 C -0.963645 2.116051 7.486532 0
M  V30 35 F -0.764014 3.276118 8.161733 0
M  V30 36 C -1.390431 1.005052 8.179778 0
M  V30 37 F -1.595579 1.119036 9.505340 0
M  V30 38 C -1.601824 -0.189379 7.540587 0
M  V30 39 C 0.451574 -2.381348 4.670568 0
M  V30 40 O 0.278974 -1.629628 3.691170 0
M  V30 41 H 1.983782 -1.791302 2.203855 0
M  V30 42 H 4.819857 -2.243532 1.925508 0
M  V30 43 H 3.978821 -3.568300 1.096065 0
M  V30 44 H 5.256273 0.485514 -2.020140 0
M  V30 45 H 4.835093 1.959442 -3.912490 0
M  V30 46 H 1.170870 3.336772 -6.263764 0
M  V30 47 H -0.730082 2.244254 -5.223020 0
M  V30 48 H -1.606897 -0.629829 -1.774157 0
M  V30 49 H -2.454885 0.850470 -2.315495 0
M  V30 50 H -1.797899 -1.715441 -3.867279 0
M  V30 51 H -4.474535 -0.528187 -3.143515 0
M  V30 52 H -3.591880 -1.786345 -2.125741 0
M  V30 53 H -5.321575 -2.311106 -4.330919 0
M  V30 54 H -4.068205 -3.402367 -3.663175 0
M  V30 55 H -2.926618 -1.235700 -6.831375 0
M  V30 56 H -4.470122 -0.712255 -6.159919 0
M  V30 57 H -1.733048 0.122804 -5.535613 0
M  V30 58 H -3.314345 0.745267 -4.895987 0
M  V30 59 H 1.077460 -0.315966 -1.733863 0
M  V30 60 H 2.589143 -4.613265 5.927202 0
M  V30 61 H -1.035592 -3.212547 7.464903 0
M  V30 62 H -2.465218 -2.109930 6.024582 0
M  V30 63 H -1.897840 -1.395753 4.496534 0
M  V30 64 H -0.789493 0.776784 4.462407 0
M  V30 65 H -0.392304 2.941486 5.537839 0
M  V30 66 H -1.934437 -1.045751 8.104325 0
M  V30 END ATOM
M  V30 BEGIN BOND
M  V30 1 2 1 2
M  V30 2 1 2 3
M  V30 3 1 3 4
M  V30 4 1 4 5
M  V30 5 3 5 6
M  V30 6 1 6 7
M  V30 7 2 7 8
M  V30 8 1 8 9
M  V30 9 2 9 10
M  V30 10 1 10 11
M  V30 11 2 11 12
M  V30 12 1 12 13
M  V30 13 2 13 14
M  V30 14 1 14 15
M  V30 15 1 15 16
M  V30 16 1 16 17
M  V30 17 1 17 18
M  V30 18 1 18 19
M  V30 19 1 19 20
M  V30 20 1 20 21
M  V30 21 1 21 22
M  V30 22 1 14 23
M  V30 23 2 23 24
M  V30 24 1 2 25
M  V30 25 2 25 26
M  V30 26 1 26 27
M  V30 27 2 27 28
M  V30 28 1 28 29
M  V30 29 1 29 30
M  V30 30 1 30 31
M  V30 31 2 31 32
M  V30 32 1 32 33
M  V30 33 2 33 34
M  V30 34 1 34 35
M  V30 35 1 34 36
M  V30 36 1 36 37
M  V30 37 2 36 38
M  V30 38 1 29 39
M  V30 39 2 39 40
M  V30 40 1 24 7
M  V30 41 1 39 25
M  V30 42 1 23 10
M  V30 43 1 38 31
M  V30 44 1 22 17
M  V30 45 1 3 41
M  V30 46 1 4 42
M  V30 47 1 4 43
M  V30 48 1 8 44
M  V30 49 1 9 45
M  V30 50 1 12 46
M  V30 51 1 13 47
M  V30 52 1 16 48
M  V30 53 1 16 49
M  V30 54 1 17 50
M  V30 55 1 18 51
M  V30 56 1 18 52
M  V30 57 1 19 53
M  V30 58 1 19 54
M  V30 59 1 21 55
M  V30 60 1 21 56
M  V30 61 1 22 57
M  V30 62 1 22 58
M  V30 63 1 24 59
M  V30 64 1 26 60
M  V30 65 1 28 61
M  V30 66 1 30 62
M  V30 67 1 30 63
M  V30 68 1 32 64
M  V30 69 1 33 65
M  V30 70 1 38 66
M  V30 END BOND
M  V30 END CTAB
M  END
>  <Dataset>  (915) 
ChEMBL_Kinases

>  <Ligand_Instance>  (915) 
nan

>  <PDB_ID>  (915) 
nan

>  <Standardized_SMILES>  (915) 
O=C(NCC#Cc1ccc2nccc(OCC3CCOCC3)c2c1)c1cncn(Cc2ccc(F)c(F)c2)c1=O

>  <Name>  (915) 
nan

>  <Pocket>  (915) 
nan

>  <ATP_Site>  (915) 
nan

>  <Peripheral>  (915) 
nan

>  <Num_H_Atoms_ProtBoundConf>  (915) 
nan

>  <Num_Resolved_Atoms>  (915) 
nan

>  <Num_Not_Resolved_Atoms>  (915) 
nan

$$$$
CHEMBL3689301
     RDKit          3D

  0  0  0  0  0  0  0  0  0  0999 V3000
M  V30 BEGIN CTAB
M  V30 COUNTS 64 67 0 0 0
M  V30 BEGIN ATOM
M  V30 1 C 3.240896 -0.346138 4.094255 0
M  V30 2 C 3.449085 -1.827699 3.949946 0
M  V30 3 N 2.205918 -2.561921 4.040097 0
M  V30 4 C 4.272799 -2.210086 2.742025 0
M  V30 5 C 3.679733 -1.781433 1.440533 0
M  V30 6 O 3.486956 -0.428553 1.260636 0
M  V30 7 C 4.356230 0.612084 1.233442 0
M  V30 8 C 5.723857 0.705846 1.369073 0
M  V30 9 C 6.426932 1.887525 1.308196 0
M  V30 10 N 5.720144 3.012196 1.102586 0
M  V30 11 C 4.383616 3.023026 0.957765 0
M  V30 12 C 3.819362 4.263495 0.750768 0
M  V30 13 C 2.450681 4.318782 0.593820 0
M  V30 14 C 1.699389 3.164118 0.646161 0
M  V30 15 C 0.265697 3.141088 0.486083 0
M  V30 16 C -0.932368 3.110133 0.334594 0
M  V30 17 C -2.401648 3.050484 0.134319 0
M  V30 18 N -2.837571 1.644374 0.155235 0
M  V30 19 C -2.191751 0.932354 -0.871003 0
M  V30 20 O -1.418111 1.719873 -1.516807 0
M  V30 21 C -2.321623 -0.459199 -1.210464 0
M  V30 22 C -1.546857 -0.903059 -2.291453 0
M  V30 23 C -1.580838 -2.214035 -2.713911 0
M  V30 24 C -2.374105 -3.148547 -2.097625 0
M  V30 25 N -3.105368 -2.713701 -1.071780 0
M  V30 26 C -3.954185 -3.680523 -0.403445 0
M  V30 27 C -5.279863 -3.686322 -1.074486 0
M  V30 28 C -6.393310 -2.933479 -0.781510 0
M  V30 29 C -7.552599 -3.068803 -1.516566 0
M  V30 30 C -7.566940 -3.991890 -2.568289 0
M  V30 31 F -8.713324 -4.127156 -3.296920 0
M  V30 32 C -6.474740 -4.767116 -2.897092 0
M  V30 33 F -6.542722 -5.646956 -3.926938 0
M  V30 34 C -5.338562 -4.596250 -2.133417 0
M  V30 35 C -3.088265 -1.454604 -0.647479 0
M  V30 36 O -3.785687 -1.092397 0.312530 0
M  V30 37 C 2.323529 1.957965 0.855971 0
M  V30 38 C 3.693984 1.829396 1.021652 0
M  V30 39 H 2.517782 0.089835 3.403948 0
M  V30 40 H 4.245277 0.136968 4.085786 0
M  V30 41 H 2.797010 -0.196656 5.119867 0
M  V30 42 H 4.055179 -2.151301 4.831347 0
M  V30 43 H 1.858101 -2.905345 3.137921 0
M  V30 44 H 1.525001 -1.983479 4.583014 0
M  V30 45 H 5.303218 -1.913212 2.918202 0
M  V30 46 H 4.272431 -3.329436 2.734480 0
M  V30 47 H 4.409289 -2.117704 0.650181 0
M  V30 48 H 2.719246 -2.366931 1.332632 0
M  V30 49 H 6.197272 -0.245837 1.523454 0
M  V30 50 H 7.500241 1.827964 1.430598 0
M  V30 51 H 4.366254 5.177549 0.704045 0
M  V30 52 H 1.893236 5.225450 0.426610 0
M  V30 53 H -2.915369 3.663375 0.884321 0
M  V30 54 H -2.587585 3.478544 -0.870691 0
M  V30 55 H -3.503782 1.128426 0.768691 0
M  V30 56 H -0.891318 -0.209034 -2.828799 0
M  V30 57 H -0.968260 -2.499329 -3.545431 0
M  V30 58 H -2.349952 -4.158156 -2.483178 0
M  V30 59 H -4.064820 -3.353646 0.657248 0
M  V30 60 H -3.522113 -4.692499 -0.349139 0
M  V30 61 H -6.260444 -2.257724 0.050384 0
M  V30 62 H -8.407177 -2.459055 -1.255145 0
M  V30 63 H -4.504633 -5.242394 -2.445823 0
M  V30 64 H 1.728010 1.035374 0.898692 0
M  V30 END ATOM
M  V30 BEGIN BOND
M  V30 1 1 1 2
M  V30 2 1 2 3
M  V30 3 1 2 4
M  V30 4 1 4 5
M  V30 5 1 5 6
M  V30 6 1 6 7
M  V30 7 2 7 8
M  V30 8 1 8 9
M  V30 9 2 9 10
M  V30 10 1 10 11
M  V30 11 2 11 12
M  V30 12 1 12 13
M  V30 13 2 13 14
M  V30 14 1 14 15
M  V30 15 3 15 16
M  V30 16 1 16 17
M  V30 17 1 17 18
M  V30 18 1 18 19
M  V30 19 2 19 20
M  V30 20 1 19 21
M  V30 21 2 21 22
M  V30 22 1 22 23
M  V30 23 2 23 24
M  V30 24 1 24 25
M  V30 25 1 25 26
M  V30 26 1 26 27
M  V30 27 2 27 28
M  V30 28 1 28 29
M  V30 29 2 29 30
M  V30 30 1 30 31
M  V30 31 1 30 32
M  V30 32 1 32 33
M  V30 33 2 32 34
M  V30 34 1 25 35
M  V30 35 2 35 36
M  V30 36 1 14 37
M  V30 37 2 37 38
M  V30 38 1 38 7
M  V30 39 1 38 11
M  V30 40 1 35 21
M  V30 41 1 34 27
M  V30 42 1 1 39
M  V30 43 1 1 40
M  V30 44 1 1 41
M  V30 45 1 2 42
M  V30 46 1 3 43
M  V30 47 1 3 44
M  V30 48 1 4 45
M  V30 49 1 4 46
M  V30 50 1 5 47
M  V30 51 1 5 48
M  V30 52 1 8 49
M  V30 53 1 9 50
M  V30 54 1 12 51
M  V30 55 1 13 52
M  V30 56 1 17 53
M  V30 57 1 17 54
M  V30 58 1 18 55
M  V30 59 1 22 56
M  V30 60 1 23 57
M  V30 61 1 24 58
M  V30 62 1 26 59
M  V30 63 1 26 60
M  V30 64 1 28 61
M  V30 65 1 29 62
M  V30 66 1 34 63
M  V30 67 1 37 64
M  V30 END BOND
M  V30 END CTAB
M  END
>  <Dataset>  (916) 
ChEMBL_Kinases

>  <Ligand_Instance>  (916) 
nan

>  <PDB_ID>  (916) 
nan

>  <Standardized_SMILES>  (916) 
CC(N)CCOc1ccnc2ccc(C#CCNC(=O)c3cccn(Cc4ccc(F)c(F)c4)c3=O)cc12

>  <Name>  (916) 
nan

>  <Pocket>  (916) 
nan

>  <ATP_Site>  (916) 
nan

>  <Peripheral>  (916) 
nan

>  <Num_H_Atoms_ProtBoundConf>  (916) 
nan

>  <Num_Resolved_Atoms>  (916) 
nan

>  <Num_Not_Resolved_Atoms>  (916) 
nan

$$$$
CHEMBL3689302
     RDKit          3D

  0  0  0  0  0  0  0  0  0  0999 V3000
M  V30 BEGIN CTAB
M  V30 COUNTS 67 71 0 0 0
M  V30 BEGIN ATOM
M  V30 1 O 3.753511 -5.121243 3.238364 0
M  V30 2 C 2.954958 -4.124174 3.005815 0
M  V30 3 N 3.496679 -3.760692 1.816532 0
M  V30 4 C 4.214019 -3.553181 0.597876 0
M  V30 5 C 3.799612 -2.477010 -0.269051 0
M  V30 6 C 3.448286 -1.590207 -0.999158 0
M  V30 7 C 3.015071 -0.534367 -1.894801 0
M  V30 8 C 3.846455 0.504489 -2.256813 0
M  V30 9 C 3.410719 1.474299 -3.138200 0
M  V30 10 C 2.122946 1.355832 -3.632326 0
M  V30 11 N 1.758069 2.310393 -4.494376 0
M  V30 12 C 0.543015 2.315575 -5.068168 0
M  V30 13 C -0.306335 1.287626 -4.722326 0
M  V30 14 C -0.033604 0.267579 -3.852960 0
M  V30 15 O -0.745474 -0.791557 -3.417043 0
M  V30 16 C -2.035359 -1.227678 -3.703497 0
M  V30 17 C -3.038920 -0.229685 -3.220419 0
M  V30 18 C -4.480208 -0.615417 -3.502620 0
M  V30 19 C -5.314906 0.601218 -3.063710 0
M  V30 20 C -4.634547 1.300828 -1.921783 0
M  V30 21 O -3.932302 0.464062 -1.099568 0
M  V30 22 C -2.929704 -0.259372 -1.681689 0
M  V30 23 C 1.252551 0.333941 -3.298720 0
M  V30 24 C 1.738784 -0.614828 -2.408949 0
M  V30 25 C 1.885189 -3.718175 3.896781 0
M  V30 26 C 1.812868 -4.514373 5.018835 0
M  V30 27 C 0.862620 -4.281892 5.971669 0
M  V30 28 C -0.026847 -3.241840 5.803425 0
M  V30 29 N 0.048628 -2.467029 4.705260 0
M  V30 30 C -0.879052 -1.381623 4.523431 0
M  V30 31 C -0.430355 -0.088706 5.090250 0
M  V30 32 C 0.283176 0.818456 4.331381 0
M  V30 33 C 0.688111 2.024103 4.877640 0
M  V30 34 C 0.380715 2.339920 6.207073 0
M  V30 35 F 0.703020 3.455978 6.874485 0
M  V30 36 C -0.338983 1.397775 6.935428 0
M  V30 37 F -0.686697 1.610000 8.238429 0
M  V30 38 C -0.765386 0.172033 6.422308 0
M  V30 39 C 0.970631 -2.700009 3.790252 0
M  V30 40 O 1.080851 -2.005354 2.748350 0
M  V30 41 H 2.813413 -2.932666 1.653991 0
M  V30 42 H 5.325265 -3.381736 0.804732 0
M  V30 43 H 4.245833 -4.483877 -0.034938 0
M  V30 44 H 4.864554 0.577603 -1.851380 0
M  V30 45 H 4.054924 2.294132 -3.428416 0
M  V30 46 H 0.202053 3.072742 -5.773089 0
M  V30 47 H -1.272877 1.277129 -5.193729 0
M  V30 48 H -2.187649 -1.412218 -4.795752 0
M  V30 49 H -2.235980 -2.226390 -3.230067 0
M  V30 50 H -2.819551 0.767825 -3.597639 0
M  V30 51 H -4.748998 -1.459034 -2.855412 0
M  V30 52 H -4.676406 -0.829808 -4.564765 0
M  V30 53 H -6.366569 0.313856 -2.825190 0
M  V30 54 H -5.311561 1.299034 -3.926669 0
M  V30 55 H -5.464816 1.731444 -1.293416 0
M  V30 56 H -4.060309 2.198412 -2.264369 0
M  V30 57 H -1.900384 0.008725 -1.363260 0
M  V30 58 H -3.072462 -1.331446 -1.407088 0
M  V30 59 H 1.091679 -1.432783 -2.118056 0
M  V30 60 H 2.479913 -5.365849 5.240011 0
M  V30 61 H 0.793102 -4.899511 6.861718 0
M  V30 62 H -0.803731 -3.039270 6.562365 0
M  V30 63 H -1.874120 -1.652244 4.963550 0
M  V30 64 H -1.045562 -1.223702 3.436852 0
M  V30 65 H 0.549042 0.632882 3.289298 0
M  V30 66 H 1.252330 2.794510 4.359681 0
M  V30 67 H -1.312178 -0.533677 7.008406 0
M  V30 END ATOM
M  V30 BEGIN BOND
M  V30 1 2 1 2
M  V30 2 1 2 3
M  V30 3 1 3 4
M  V30 4 1 4 5
M  V30 5 3 5 6
M  V30 6 1 6 7
M  V30 7 2 7 8
M  V30 8 1 8 9
M  V30 9 2 9 10
M  V30 10 1 10 11
M  V30 11 2 11 12
M  V30 12 1 12 13
M  V30 13 2 13 14
M  V30 14 1 14 15
M  V30 15 1 15 16
M  V30 16 1 16 17
M  V30 17 1 17 18
M  V30 18 1 18 19
M  V30 19 1 19 20
M  V30 20 1 20 21
M  V30 21 1 21 22
M  V30 22 1 14 23
M  V30 23 2 23 24
M  V30 24 1 2 25
M  V30 25 2 25 26
M  V30 26 1 26 27
M  V30 27 2 27 28
M  V30 28 1 28 29
M  V30 29 1 29 30
M  V30 30 1 30 31
M  V30 31 2 31 32
M  V30 32 1 32 33
M  V30 33 2 33 34
M  V30 34 1 34 35
M  V30 35 1 34 36
M  V30 36 1 36 37
M  V30 37 2 36 38
M  V30 38 1 29 39
M  V30 39 2 39 40
M  V30 40 1 24 7
M  V30 41 1 39 25
M  V30 42 1 23 10
M  V30 43 1 38 31
M  V30 44 1 22 17
M  V30 45 1 3 41
M  V30 46 1 4 42
M  V30 47 1 4 43
M  V30 48 1 8 44
M  V30 49 1 9 45
M  V30 50 1 12 46
M  V30 51 1 13 47
M  V30 52 1 16 48
M  V30 53 1 16 49
M  V30 54 1 17 50
M  V30 55 1 18 51
M  V30 56 1 18 52
M  V30 57 1 19 53
M  V30 58 1 19 54
M  V30 59 1 20 55
M  V30 60 1 20 56
M  V30 61 1 22 57
M  V30 62 1 22 58
M  V30 63 1 24 59
M  V30 64 1 26 60
M  V30 65 1 27 61
M  V30 66 1 28 62
M  V30 67 1 30 63
M  V30 68 1 30 64
M  V30 69 1 32 65
M  V30 70 1 33 66
M  V30 71 1 38 67
M  V30 END BOND
M  V30 END CTAB
M  END
>  <Dataset>  (917) 
ChEMBL_Kinases

>  <Ligand_Instance>  (917) 
nan

>  <PDB_ID>  (917) 
nan

>  <Standardized_SMILES>  (917) 
O=C(NCC#Cc1ccc2nccc(OCC3CCCOC3)c2c1)c1cccn(Cc2ccc(F)c(F)c2)c1=O

>  <Name>  (917) 
nan

>  <Pocket>  (917) 
nan

>  <ATP_Site>  (917) 
nan

>  <Peripheral>  (917) 
nan

>  <Num_H_Atoms_ProtBoundConf>  (917) 
nan

>  <Num_Resolved_Atoms>  (917) 
nan

>  <Num_Not_Resolved_Atoms>  (917) 
nan

$$$$
CHEMBL3689303
     RDKit          3D

  0  0  0  0  0  0  0  0  0  0999 V3000
M  V30 BEGIN CTAB
M  V30 COUNTS 68 72 0 0 0
M  V30 BEGIN ATOM
M  V30 1 C 2.073225 -4.137850 3.812307 0
M  V30 2 N 1.618336 -4.998799 2.735843 0
M  V30 3 C 2.523949 -6.090472 2.544535 0
M  V30 4 C 2.813778 -6.175872 1.062944 0
M  V30 5 C 2.674252 -4.739288 0.630740 0 CFG=2
M  V30 6 C 3.949207 -3.961852 0.773564 0
M  V30 7 O 3.843647 -2.611346 0.373385 0
M  V30 8 C 4.915317 -1.726092 0.430541 0
M  V30 9 C 6.122803 -2.211216 0.902603 0
M  V30 10 C 7.202024 -1.357183 0.970787 0
M  V30 11 N 7.038696 -0.071404 0.571683 0
M  V30 12 C 5.859571 0.389916 0.114066 0
M  V30 13 C 5.791419 1.713414 -0.269479 0
M  V30 14 C 4.569255 2.198492 -0.746472 0
M  V30 15 C 3.475170 1.339273 -0.817458 0
M  V30 16 C 2.269435 1.934622 -1.320354 0
M  V30 17 C 1.248405 2.438815 -1.769016 0
M  V30 18 C 0.058518 3.049275 -2.311539 0
M  V30 19 N -1.080322 2.747624 -1.508925 0
M  V30 20 C -1.454295 1.392802 -1.328608 0
M  V30 21 O -0.639517 0.646650 -1.967361 0
M  V30 22 C -2.573214 0.874843 -0.554108 0
M  V30 23 C -2.677109 -0.523227 -0.573286 0
M  V30 24 C -3.686749 -1.162103 0.113642 0
M  V30 25 C -4.617787 -0.448743 0.834808 0
M  V30 26 N -4.494923 0.888964 0.836292 0
M  V30 27 C -5.463025 1.661779 1.588908 0
M  V30 28 C -6.590455 1.969436 0.670811 0
M  V30 29 C -7.631319 1.037047 0.588724 0
M  V30 30 C -8.741914 1.226121 -0.241267 0
M  V30 31 F -9.735584 0.311146 -0.302256 0
M  V30 32 C -8.816844 2.353540 -0.996061 0
M  V30 33 F -9.862014 2.635603 -1.841850 0
M  V30 34 C -7.810026 3.282121 -0.933194 0
M  V30 35 F -7.850294 4.421769 -1.673308 0
M  V30 36 C -6.715941 3.095156 -0.115294 0
M  V30 37 C -3.531373 1.524756 0.182614 0
M  V30 38 O -3.423010 2.755165 0.187485 0
M  V30 39 C 3.520809 0.034154 -0.445259 0
M  V30 40 C 4.733429 -0.420751 0.020799 0
M  V30 41 C 1.576449 -4.218492 1.528955 0
M  V30 42 H 3.173125 -4.328457 3.920221 0
M  V30 43 H 1.528735 -4.320762 4.758353 0
M  V30 44 H 1.983496 -3.059496 3.556629 0
M  V30 45 H 2.113212 -7.066203 2.882404 0
M  V30 46 H 3.452390 -5.945119 3.150243 0
M  V30 47 H 2.009745 -6.798892 0.604862 0
M  V30 48 H 3.775614 -6.627770 0.810894 0
M  V30 49 H 2.311315 -4.733448 -0.415541 0
M  V30 50 H 4.722401 -4.477065 0.163820 0
M  V30 51 H 4.287302 -3.998411 1.820379 0
M  V30 52 H 6.236857 -3.243972 1.217837 0
M  V30 53 H 8.169630 -1.696174 1.335104 0
M  V30 54 H 6.627126 2.397002 -0.222724 0
M  V30 55 H 4.525614 3.243309 -1.046741 0
M  V30 56 H 0.247642 4.111651 -2.466153 0
M  V30 57 H -0.159923 2.641003 -3.342450 0
M  V30 58 H -1.656799 3.480214 -1.043852 0
M  V30 59 H -1.977926 -1.151135 -1.121868 0
M  V30 60 H -3.743041 -2.240979 0.081062 0
M  V30 61 H -5.425250 -0.938849 1.385538 0
M  V30 62 H -5.865703 1.037246 2.417374 0
M  V30 63 H -5.025440 2.604214 1.985253 0
M  V30 64 H -7.634526 0.115765 1.164381 0
M  V30 65 H -5.936944 3.813347 -0.063972 0
M  V30 66 H 2.661527 -0.612664 -0.508758 0
M  V30 67 H 0.580390 -4.315057 1.053853 0
M  V30 68 H 1.720229 -3.137955 1.697677 0
M  V30 END ATOM
M  V30 BEGIN BOND
M  V30 1 1 1 2
M  V30 2 1 2 3
M  V30 3 1 3 4
M  V30 4 1 4 5
M  V30 5 1 5 6
M  V30 6 1 6 7
M  V30 7 1 7 8
M  V30 8 2 8 9
M  V30 9 1 9 10
M  V30 10 2 10 11
M  V30 11 1 11 12
M  V30 12 2 12 13
M  V30 13 1 13 14
M  V30 14 2 14 15
M  V30 15 1 15 16
M  V30 16 3 16 17
M  V30 17 1 17 18
M  V30 18 1 18 19
M  V30 19 1 19 20
M  V30 20 2 20 21
M  V30 21 1 20 22
M  V30 22 2 22 23
M  V30 23 1 23 24
M  V30 24 2 24 25
M  V30 25 1 25 26
M  V30 26 1 26 27
M  V30 27 1 27 28
M  V30 28 2 28 29
M  V30 29 1 29 30
M  V30 30 1 30 31
M  V30 31 2 30 32
M  V30 32 1 32 33
M  V30 33 1 32 34
M  V30 34 1 34 35
M  V30 35 2 34 36
M  V30 36 1 26 37
M  V30 37 2 37 38
M  V30 38 1 15 39
M  V30 39 2 39 40
M  V30 40 1 5 41
M  V30 41 1 41 2
M  V30 42 1 40 8
M  V30 43 1 40 12
M  V30 44 1 37 22
M  V30 45 1 36 28
M  V30 46 1 1 42
M  V30 47 1 1 43
M  V30 48 1 1 44
M  V30 49 1 3 45
M  V30 50 1 3 46
M  V30 51 1 4 47
M  V30 52 1 4 48
M  V30 53 1 5 49 CFG=3
M  V30 54 1 6 50
M  V30 55 1 6 51
M  V30 56 1 9 52
M  V30 57 1 10 53
M  V30 58 1 13 54
M  V30 59 1 14 55
M  V30 60 1 18 56
M  V30 61 1 18 57
M  V30 62 1 19 58
M  V30 63 1 23 59
M  V30 64 1 24 60
M  V30 65 1 25 61
M  V30 66 1 27 62
M  V30 67 1 27 63
M  V30 68 1 29 64
M  V30 69 1 36 65
M  V30 70 1 39 66
M  V30 71 1 41 67
M  V30 72 1 41 68
M  V30 END BOND
M  V30 END CTAB
M  END
>  <Dataset>  (918) 
ChEMBL_Kinases

>  <Ligand_Instance>  (918) 
nan

>  <PDB_ID>  (918) 
nan

>  <Standardized_SMILES>  (918) 
CN1CC[C@H](COc2ccnc3ccc(C#CCNC(=O)c4cccn(Cc5cc(F)c(F)c(F)c5)c4=O)cc23)C1

>  <Name>  (918) 
nan

>  <Pocket>  (918) 
nan

>  <ATP_Site>  (918) 
nan

>  <Peripheral>  (918) 
nan

>  <Num_H_Atoms_ProtBoundConf>  (918) 
nan

>  <Num_Resolved_Atoms>  (918) 
nan

>  <Num_Not_Resolved_Atoms>  (918) 
nan

$$$$
CHEMBL3689313
     RDKit          3D

  0  0  0  0  0  0  0  0  0  0999 V3000
M  V30 BEGIN CTAB
M  V30 COUNTS 90 95 0 0 0
M  V30 BEGIN ATOM
M  V30 1 C 2.670359 -1.876712 3.486532 0
M  V30 2 C 3.177248 -0.667904 4.193771 0 CFG=1
M  V30 3 C 4.287291 -0.069566 3.384679 0
M  V30 4 C 5.451127 0.368903 3.997661 0
M  V30 5 C 6.518432 0.930392 3.334262 0
M  V30 6 F 7.640677 1.344839 3.987614 0
M  V30 7 C 6.399510 1.056856 1.953634 0
M  V30 8 F 7.423530 1.601951 1.265334 0
M  V30 9 C 5.271420 0.641954 1.281212 0
M  V30 10 F 5.189891 0.779176 -0.051536 0
M  V30 11 C 4.230434 0.082733 2.017747 0
M  V30 12 N 2.206334 0.338905 4.489712 0
M  V30 13 C 2.632300 1.344803 5.305673 0
M  V30 14 C 1.719147 2.323914 5.608690 0
M  V30 15 C 0.451708 2.275721 5.108438 0
M  V30 16 C 0.022465 1.251907 4.279661 0
M  V30 17 C -1.356860 1.356717 3.844196 0
M  V30 18 O -2.125367 2.314396 4.184634 0
M  V30 19 N -2.071000 0.464057 3.005216 0
M  V30 20 C -3.476422 0.680981 2.636533 0
M  V30 21 C -3.925122 -0.436677 1.764857 0
M  V30 22 C -4.280380 -1.357828 1.070590 0
M  V30 23 C -4.696618 -2.475785 0.257683 0
M  V30 24 C -5.713686 -3.335486 0.659081 0
M  V30 25 C -6.107733 -4.426901 -0.114889 0
M  V30 26 C -5.456983 -4.653423 -1.323786 0
M  V30 27 N -5.803841 -5.701842 -2.091545 0
M  V30 28 C -5.221355 -5.996321 -3.265404 0
M  V30 29 C -4.208430 -5.190674 -3.728154 0
M  V30 30 C -3.811856 -4.095829 -2.975814 0
M  V30 31 O -2.822438 -3.175674 -3.273790 0
M  V30 32 C -2.007432 -3.186461 -4.421785 0
M  V30 33 C -1.068047 -2.033705 -4.429838 0 CFG=2
M  V30 34 C -0.182489 -2.027369 -5.625884 0
M  V30 35 C 1.289345 -2.208919 -5.315764 0
M  V30 36 C 1.808981 -1.285922 -4.263325 0
M  V30 37 N 0.713891 -0.853795 -3.431303 0
M  V30 38 C 1.031698 0.089159 -2.442698 0
M  V30 39 C -0.144858 0.518095 -1.635963 0
M  V30 40 N 0.212584 1.540977 -0.649563 0
M  V30 41 C 0.576986 2.788000 -1.298660 0
M  V30 42 C -0.432573 3.212454 -2.327565 0
M  V30 43 O -1.735264 2.997220 -1.951706 0
M  V30 44 C -1.861857 2.889846 -0.588714 0
M  V30 45 C -1.037489 1.828718 0.058797 0
M  V30 46 C -0.235946 -1.881928 -3.169043 0
M  V30 47 C -4.430474 -3.803272 -1.751936 0
M  V30 48 C -4.089104 -2.743965 -0.942051 0
M  V30 49 C 0.965608 0.298299 4.004122 0
M  V30 50 O 0.589985 -0.619339 3.264276 0
M  V30 51 H 3.519939 -2.625405 3.511235 0
M  V30 52 H 2.429996 -1.763084 2.429008 0
M  V30 53 H 1.884036 -2.363442 4.105051 0
M  V30 54 H 3.651137 -1.023138 5.147347 0
M  V30 55 H 5.596479 0.291957 5.071822 0
M  V30 56 H 3.366096 -0.231597 1.480353 0
M  V30 57 H 3.616936 1.450862 5.739489 0
M  V30 58 H 2.010465 3.148046 6.256637 0
M  V30 59 H -0.218859 3.099110 5.399764 0
M  V30 60 H -1.579221 -0.374741 2.638560 0
M  V30 61 H -3.537756 1.645216 2.133116 0
M  V30 62 H -4.087249 0.621964 3.547589 0
M  V30 63 H -6.229086 -3.166685 1.603324 0
M  V30 64 H -6.911230 -5.070263 0.246492 0
M  V30 65 H -5.486233 -6.834566 -3.895293 0
M  V30 66 H -3.640949 -5.288913 -4.645588 0
M  V30 67 H -1.542030 -4.167902 -4.514449 0
M  V30 68 H -2.703133 -3.060101 -5.284090 0
M  V30 69 H -1.711918 -1.104754 -4.459691 0
M  V30 70 H -0.424977 -2.848702 -6.352504 0
M  V30 71 H -0.286823 -1.092051 -6.197929 0
M  V30 72 H 1.846388 -1.980662 -6.254499 0
M  V30 73 H 1.532032 -3.259868 -5.053452 0
M  V30 74 H 2.272299 -0.378973 -4.697060 0
M  V30 75 H 2.573636 -1.783804 -3.626081 0
M  V30 76 H 1.856451 -0.325263 -1.810407 0
M  V30 77 H 1.477734 1.040179 -2.873902 0
M  V30 78 H -1.004545 0.805389 -2.257781 0
M  V30 79 H -0.510454 -0.329674 -0.974018 0
M  V30 80 H 1.570986 2.775102 -1.748688 0
M  V30 81 H 0.611093 3.553550 -0.484530 0
M  V30 82 H -0.271120 4.310283 -2.516941 0
M  V30 83 H -0.163606 2.728920 -3.290334 0
M  V30 84 H -2.948368 2.656894 -0.389736 0
M  V30 85 H -1.699522 3.883459 -0.105274 0
M  V30 86 H -0.830874 2.148079 1.103927 0
M  V30 87 H -1.575135 0.851056 0.161662 0
M  V30 88 H 0.358473 -2.816985 -2.974179 0
M  V30 89 H -0.882975 -1.641363 -2.321494 0
M  V30 90 H -3.299191 -2.088887 -1.271832 0
M  V30 END ATOM
M  V30 BEGIN BOND
M  V30 1 1 1 2
M  V30 2 1 2 3
M  V30 3 2 3 4
M  V30 4 1 4 5
M  V30 5 1 5 6
M  V30 6 2 5 7
M  V30 7 1 7 8
M  V30 8 1 7 9
M  V30 9 1 9 10
M  V30 10 2 9 11
M  V30 11 1 2 12
M  V30 12 1 12 13
M  V30 13 2 13 14
M  V30 14 1 14 15
M  V30 15 2 15 16
M  V30 16 1 16 17
M  V30 17 2 17 18
M  V30 18 1 17 19
M  V30 19 1 19 20
M  V30 20 1 20 21
M  V30 21 3 21 22
M  V30 22 1 22 23
M  V30 23 2 23 24
M  V30 24 1 24 25
M  V30 25 2 25 26
M  V30 26 1 26 27
M  V30 27 2 27 28
M  V30 28 1 28 29
M  V30 29 2 29 30
M  V30 30 1 30 31
M  V30 31 1 31 32
M  V30 32 1 32 33
M  V30 33 1 33 34
M  V30 34 1 34 35
M  V30 35 1 35 36
M  V30 36 1 36 37
M  V30 37 1 37 38
M  V30 38 1 38 39
M  V30 39 1 39 40
M  V30 40 1 40 41
M  V30 41 1 41 42
M  V30 42 1 42 43
M  V30 43 1 43 44
M  V30 44 1 44 45
M  V30 45 1 37 46
M  V30 46 1 30 47
M  V30 47 2 47 48
M  V30 48 1 16 49
M  V30 49 2 49 50
M  V30 50 1 11 3
M  V30 51 1 49 12
M  V30 52 1 48 23
M  V30 53 1 47 26
M  V30 54 1 46 33
M  V30 55 1 45 40
M  V30 56 1 1 51
M  V30 57 1 1 52
M  V30 58 1 1 53
M  V30 59 1 2 54 CFG=1
M  V30 60 1 4 55
M  V30 61 1 11 56
M  V30 62 1 13 57
M  V30 63 1 14 58
M  V30 64 1 15 59
M  V30 65 1 19 60
M  V30 66 1 20 61
M  V30 67 1 20 62
M  V30 68 1 24 63
M  V30 69 1 25 64
M  V30 70 1 28 65
M  V30 71 1 29 66
M  V30 72 1 32 67
M  V30 73 1 32 68
M  V30 74 1 33 69 CFG=3
M  V30 75 1 34 70
M  V30 76 1 34 71
M  V30 77 1 35 72
M  V30 78 1 35 73
M  V30 79 1 36 74
M  V30 80 1 36 75
M  V30 81 1 38 76
M  V30 82 1 38 77
M  V30 83 1 39 78
M  V30 84 1 39 79
M  V30 85 1 41 80
M  V30 86 1 41 81
M  V30 87 1 42 82
M  V30 88 1 42 83
M  V30 89 1 44 84
M  V30 90 1 44 85
M  V30 91 1 45 86
M  V30 92 1 45 87
M  V30 93 1 46 88
M  V30 94 1 46 89
M  V30 95 1 48 90
M  V30 END BOND
M  V30 END CTAB
M  END
>  <Dataset>  (919) 
ChEMBL_Kinases

>  <Ligand_Instance>  (919) 
nan

>  <PDB_ID>  (919) 
nan

>  <Standardized_SMILES>  (919) 
C[C@@H](c1cc(F)c(F)c(F)c1)n1cccc(C(=O)NCC#Cc2ccc3nccc(OC[C@@H]4CCCN(CCN5CCOCC5)C4)c3c2)c1=O

>  <Name>  (919) 
nan

>  <Pocket>  (919) 
nan

>  <ATP_Site>  (919) 
nan

>  <Peripheral>  (919) 
nan

>  <Num_H_Atoms_ProtBoundConf>  (919) 
nan

>  <Num_Resolved_Atoms>  (919) 
nan

>  <Num_Not_Resolved_Atoms>  (919) 
nan

$$$$
CHEMBL3689305
     RDKit          3D

  0  0  0  0  0  0  0  0  0  0999 V3000
M  V30 BEGIN CTAB
M  V30 COUNTS 71 75 0 0 0
M  V30 BEGIN ATOM
M  V30 1 C 2.704749 0.944844 -0.674587 0
M  V30 2 C 3.384783 1.008816 -2.022442 0
M  V30 3 C 4.525006 0.055909 -2.124088 0
M  V30 4 C 5.768701 0.442445 -2.654366 0
M  V30 5 C 6.785110 -0.511899 -2.707066 0
M  V30 6 F 7.991692 -0.173190 -3.212841 0
M  V30 7 C 6.626087 -1.815210 -2.259294 0
M  V30 8 F 7.652572 -2.716297 -2.325945 0
M  V30 9 C 5.398823 -2.221921 -1.726726 0
M  V30 10 F 5.176312 -3.487565 -1.257682 0
M  V30 11 C 4.379501 -1.265639 -1.676376 0
M  V30 12 N 2.501200 0.952643 -3.144470 0
M  V30 13 C 2.920793 1.504602 -4.289045 0
M  V30 14 C 2.146979 1.509808 -5.447977 0
M  V30 15 C 0.903920 0.907607 -5.350174 0
M  V30 16 C 0.428173 0.322262 -4.188879 0
M  V30 17 C -0.890011 -0.263336 -4.289417 0
M  V30 18 O -1.546762 -0.220205 -5.382535 0
M  V30 19 N -1.639620 -0.938852 -3.296348 0
M  V30 20 C -2.988621 -1.495764 -3.524451 0
M  V30 21 C -3.470071 -2.126735 -2.307521 0
M  V30 22 C -3.876499 -2.665098 -1.232443 0
M  V30 23 C -4.363498 -3.352228 0.100740 0
M  V30 24 C -4.989460 -4.318931 -0.344826 0
M  V30 25 C -5.325029 -4.869928 0.945719 0
M  V30 26 C -4.932847 -4.287408 2.176006 0
M  V30 27 N -5.304676 -4.865122 3.368222 0
M  V30 28 C -4.948846 -4.309958 4.525354 0
M  V30 29 C -4.212068 -3.157705 4.649850 0
M  V30 30 C -3.868956 -2.621234 3.432759 0
M  V30 31 O -3.108014 -1.421858 3.460678 0
M  V30 32 C -2.745655 -0.843942 4.699949 0
M  V30 33 C -1.973231 0.423400 4.421532 0 CFG=1
M  V30 34 C -1.550091 1.112479 5.700035 0
M  V30 35 C -0.264090 1.837111 5.366587 0
M  V30 36 N 0.172675 1.354025 4.074033 0
M  V30 37 C -0.127751 2.383580 3.075088 0
M  V30 38 C -0.628365 0.173004 3.773862 0
M  V30 39 C -4.163201 -3.083229 2.137980 0
M  V30 40 C -3.736889 -2.392705 0.932693 0
M  V30 41 C 1.288229 0.381560 -3.118081 0
M  V30 42 O 0.876439 -0.143936 -2.056649 0
M  V30 43 H 3.359872 1.414398 0.114917 0
M  V30 44 H 2.484539 -0.065052 -0.318377 0
M  V30 45 H 1.800527 1.574582 -0.715338 0
M  V30 46 H 3.880090 2.028632 -2.044995 0
M  V30 47 H 5.904030 1.450087 -3.005506 0
M  V30 48 H 3.439489 -1.605550 -1.248327 0
M  V30 49 H 3.903146 1.979061 -4.341636 0
M  V30 50 H 2.494967 1.956081 -6.365735 0
M  V30 51 H 0.343502 0.949371 -6.286949 0
M  V30 52 H -1.179987 -1.034303 -2.359274 0
M  V30 53 H -2.989803 -2.271064 -4.308348 0
M  V30 54 H -3.689245 -0.683338 -3.764875 0
M  V30 55 H -5.307857 -4.795526 -1.213430 0
M  V30 56 H -5.914718 -5.802572 1.109990 0
M  V30 57 H -5.270256 -4.811901 5.418359 0
M  V30 58 H -3.902223 -2.679769 5.547383 0
M  V30 59 H -3.600055 -0.613748 5.347802 0
M  V30 60 H -2.070647 -1.573928 5.223707 0
M  V30 61 H -2.529676 1.101025 3.750122 0
M  V30 62 H -2.357125 1.806407 6.005640 0
M  V30 63 H -1.394058 0.387566 6.520142 0
M  V30 64 H -0.483501 2.944832 5.327992 0
M  V30 65 H 0.467132 1.693715 6.163755 0
M  V30 66 H -1.114967 2.139872 2.627607 0
M  V30 67 H -0.250048 3.347612 3.614316 0
M  V30 68 H 0.690958 2.498952 2.337076 0
M  V30 69 H -0.189727 -0.747585 4.186687 0
M  V30 70 H -0.678780 0.073870 2.680359 0
M  V30 71 H -3.185799 -1.535357 1.039674 0
M  V30 END ATOM
M  V30 BEGIN BOND
M  V30 1 1 1 2
M  V30 2 1 2 3
M  V30 3 2 3 4
M  V30 4 1 4 5
M  V30 5 1 5 6
M  V30 6 2 5 7
M  V30 7 1 7 8
M  V30 8 1 7 9
M  V30 9 1 9 10
M  V30 10 2 9 11
M  V30 11 1 2 12
M  V30 12 1 12 13
M  V30 13 2 13 14
M  V30 14 1 14 15
M  V30 15 2 15 16
M  V30 16 1 16 17
M  V30 17 2 17 18
M  V30 18 1 17 19
M  V30 19 1 19 20
M  V30 20 1 20 21
M  V30 21 3 21 22
M  V30 22 1 22 23
M  V30 23 2 23 24
M  V30 24 1 24 25
M  V30 25 2 25 26
M  V30 26 1 26 27
M  V30 27 2 27 28
M  V30 28 1 28 29
M  V30 29 2 29 30
M  V30 30 1 30 31
M  V30 31 1 31 32
M  V30 32 1 32 33
M  V30 33 1 33 34
M  V30 34 1 34 35
M  V30 35 1 35 36
M  V30 36 1 36 37
M  V30 37 1 36 38
M  V30 38 1 30 39
M  V30 39 2 39 40
M  V30 40 1 16 41
M  V30 41 2 41 42
M  V30 42 1 11 3
M  V30 43 1 41 12
M  V30 44 1 40 23
M  V30 45 1 39 26
M  V30 46 1 38 33
M  V30 47 1 1 43
M  V30 48 1 1 44
M  V30 49 1 1 45
M  V30 50 1 2 46
M  V30 51 1 4 47
M  V30 52 1 11 48
M  V30 53 1 13 49
M  V30 54 1 14 50
M  V30 55 1 15 51
M  V30 56 1 19 52
M  V30 57 1 20 53
M  V30 58 1 20 54
M  V30 59 1 24 55
M  V30 60 1 25 56
M  V30 61 1 28 57
M  V30 62 1 29 58
M  V30 63 1 32 59
M  V30 64 1 32 60
M  V30 65 1 33 61 CFG=3
M  V30 66 1 34 62
M  V30 67 1 34 63
M  V30 68 1 35 64
M  V30 69 1 35 65
M  V30 70 1 37 66
M  V30 71 1 37 67
M  V30 72 1 37 68
M  V30 73 1 38 69
M  V30 74 1 38 70
M  V30 75 1 40 71
M  V30 END BOND
M  V30 END CTAB
M  END
>  <Dataset>  (920) 
ChEMBL_Kinases

>  <Ligand_Instance>  (920) 
nan

>  <PDB_ID>  (920) 
nan

>  <Standardized_SMILES>  (920) 
CC(c1cc(F)c(F)c(F)c1)n1cccc(C(=O)NCC#Cc2ccc3nccc(OC[C@H]4CCN(C)C4)c3c2)c1=O

>  <Name>  (920) 
nan

>  <Pocket>  (920) 
nan

>  <ATP_Site>  (920) 
nan

>  <Peripheral>  (920) 
nan

>  <Num_H_Atoms_ProtBoundConf>  (920) 
nan

>  <Num_Resolved_Atoms>  (920) 
nan

>  <Num_Not_Resolved_Atoms>  (920) 
nan

$$$$
CHEMBL3689306
     RDKit          3D

  0  0  0  0  0  0  0  0  0  0999 V3000
M  V30 BEGIN CTAB
M  V30 COUNTS 68 72 0 0 0
M  V30 BEGIN ATOM
M  V30 1 C 3.344816 -4.416886 3.822688 0
M  V30 2 N 4.199223 -4.972625 2.813242 0
M  V30 3 C 3.642344 -6.077545 2.094746 0
M  V30 4 C 4.003470 -5.894203 0.638686 0
M  V30 5 C 4.307334 -4.416520 0.493613 0 CFG=1
M  V30 6 C 3.064121 -3.728692 0.053684 0
M  V30 7 O 3.116966 -2.368039 -0.140866 0
M  V30 8 C 3.838023 -1.591994 -0.989481 0
M  V30 9 C 4.767770 -1.836860 -1.969824 0
M  V30 10 C 5.389106 -0.875388 -2.729028 0
M  V30 11 N 5.071237 0.409937 -2.505560 0
M  V30 12 C 4.162291 0.749516 -1.557003 0
M  V30 13 C 3.935422 2.100665 -1.438057 0
M  V30 14 C 3.032042 2.518744 -0.502798 0
M  V30 15 C 2.382051 1.594687 0.284076 0
M  V30 16 C 1.434446 2.044342 1.263996 0
M  V30 17 C 0.638662 2.418026 2.097048 0
M  V30 18 C -0.333685 2.858048 3.121353 0
M  V30 19 N -1.630186 2.512648 2.606601 0
M  V30 20 C -1.958972 1.170730 2.314848 0
M  V30 21 O -0.948403 0.433975 2.586845 0
M  V30 22 C -3.213526 0.646252 1.792243 0
M  V30 23 C -3.220419 -0.743547 1.611209 0
M  V30 24 C -4.336428 -1.383534 1.124033 0
M  V30 25 C -5.492553 -0.709771 0.791043 0
M  V30 26 N -5.437049 0.620295 0.982019 0
M  V30 27 C -6.623987 1.384781 0.647652 0
M  V30 28 C -6.500043 1.776599 -0.781257 0
M  V30 29 C -7.014826 0.848291 -1.693409 0
M  V30 30 C -6.992538 1.037798 -3.075465 0
M  V30 31 F -7.507246 0.101058 -3.905978 0
M  V30 32 C -6.432581 2.204935 -3.581634 0
M  V30 33 F -6.400045 2.408506 -4.903738 0
M  V30 34 C -5.931253 3.106148 -2.665982 0
M  V30 35 F -5.383346 4.246169 -3.142585 0
M  V30 36 C -5.949299 2.927027 -1.301862 0
M  V30 37 C -4.386958 1.279920 1.447849 0
M  V30 38 O -4.357031 2.505790 1.616417 0
M  V30 39 C 2.632855 0.263644 0.137450 0
M  V30 40 C 3.542465 -0.237678 -0.796782 0
M  V30 41 C 4.740959 -4.023960 1.888097 0
M  V30 42 H 3.559603 -3.343767 4.007227 0
M  V30 43 H 2.273229 -4.587459 3.569110 0
M  V30 44 H 3.565378 -4.942166 4.791031 0
M  V30 45 H 2.525549 -6.036399 2.244291 0
M  V30 46 H 4.058414 -7.035452 2.444310 0
M  V30 47 H 4.893247 -6.473177 0.335306 0
M  V30 48 H 3.141169 -6.211578 0.018154 0
M  V30 49 H 5.123319 -4.221376 -0.198877 0
M  V30 50 H 2.191590 -3.958747 0.727261 0
M  V30 51 H 2.773873 -4.216918 -0.928037 0
M  V30 52 H 4.971194 -2.885454 -2.104440 0
M  V30 53 H 6.100128 -1.240727 -3.461790 0
M  V30 54 H 4.423915 2.836229 -2.033246 0
M  V30 55 H 2.835461 3.576898 -0.389253 0
M  V30 56 H -0.096082 2.411962 4.108263 0
M  V30 57 H -0.279774 3.954015 3.257748 0
M  V30 58 H -2.357567 3.238967 2.436060 0
M  V30 59 H -2.343917 -1.366452 1.849226 0
M  V30 60 H -4.305130 -2.456013 0.997629 0
M  V30 61 H -6.346554 -1.249715 0.411773 0
M  V30 62 H -7.539518 0.810592 0.846233 0
M  V30 63 H -6.637058 2.362573 1.213116 0
M  V30 64 H -7.463317 -0.078463 -1.364744 0
M  V30 65 H -5.568992 3.609793 -0.581431 0
M  V30 66 H 2.127636 -0.462757 0.749825 0
M  V30 67 H 5.856369 -4.131201 1.931281 0
M  V30 68 H 4.505381 -2.975363 2.110611 0
M  V30 END ATOM
M  V30 BEGIN BOND
M  V30 1 1 1 2
M  V30 2 1 2 3
M  V30 3 1 3 4
M  V30 4 1 4 5
M  V30 5 1 5 6
M  V30 6 1 6 7
M  V30 7 1 7 8
M  V30 8 2 8 9
M  V30 9 1 9 10
M  V30 10 2 10 11
M  V30 11 1 11 12
M  V30 12 2 12 13
M  V30 13 1 13 14
M  V30 14 2 14 15
M  V30 15 1 15 16
M  V30 16 3 16 17
M  V30 17 1 17 18
M  V30 18 1 18 19
M  V30 19 1 19 20
M  V30 20 2 20 21
M  V30 21 1 20 22
M  V30 22 2 22 23
M  V30 23 1 23 24
M  V30 24 2 24 25
M  V30 25 1 25 26
M  V30 26 1 26 27
M  V30 27 1 27 28
M  V30 28 2 28 29
M  V30 29 1 29 30
M  V30 30 1 30 31
M  V30 31 2 30 32
M  V30 32 1 32 33
M  V30 33 1 32 34
M  V30 34 1 34 35
M  V30 35 2 34 36
M  V30 36 1 26 37
M  V30 37 2 37 38
M  V30 38 1 15 39
M  V30 39 2 39 40
M  V30 40 1 5 41
M  V30 41 1 41 2
M  V30 42 1 40 8
M  V30 43 1 40 12
M  V30 44 1 37 22
M  V30 45 1 36 28
M  V30 46 1 1 42
M  V30 47 1 1 43
M  V30 48 1 1 44
M  V30 49 1 3 45
M  V30 50 1 3 46
M  V30 51 1 4 47
M  V30 52 1 4 48
M  V30 53 1 5 49 CFG=3
M  V30 54 1 6 50
M  V30 55 1 6 51
M  V30 56 1 9 52
M  V30 57 1 10 53
M  V30 58 1 13 54
M  V30 59 1 14 55
M  V30 60 1 18 56
M  V30 61 1 18 57
M  V30 62 1 19 58
M  V30 63 1 23 59
M  V30 64 1 24 60
M  V30 65 1 25 61
M  V30 66 1 27 62
M  V30 67 1 27 63
M  V30 68 1 29 64
M  V30 69 1 36 65
M  V30 70 1 39 66
M  V30 71 1 41 67
M  V30 72 1 41 68
M  V30 END BOND
M  V30 END CTAB
M  END
>  <Dataset>  (921) 
ChEMBL_Kinases

>  <Ligand_Instance>  (921) 
nan

>  <PDB_ID>  (921) 
nan

>  <Standardized_SMILES>  (921) 
CN1CC[C@@H](COc2ccnc3ccc(C#CCNC(=O)c4cccn(Cc5cc(F)c(F)c(F)c5)c4=O)cc23)C1

>  <Name>  (921) 
nan

>  <Pocket>  (921) 
nan

>  <ATP_Site>  (921) 
nan

>  <Peripheral>  (921) 
nan

>  <Num_H_Atoms_ProtBoundConf>  (921) 
nan

>  <Num_Resolved_Atoms>  (921) 
nan

>  <Num_Not_Resolved_Atoms>  (921) 
nan

$$$$
CHEMBL3689307
     RDKit          3D

  0  0  0  0  0  0  0  0  0  0999 V3000
M  V30 BEGIN CTAB
M  V30 COUNTS 72 75 0 0 0
M  V30 BEGIN ATOM
M  V30 1 C 2.105889 -4.974109 2.644769 0
M  V30 2 C 1.940793 -3.660080 1.959950 0
M  V30 3 N 3.107013 -3.360004 1.067183 0
M  V30 4 C 4.248243 -3.137237 1.918879 0
M  V30 5 C 5.572945 -2.983766 1.247915 0
M  V30 6 C 2.670386 -2.186695 0.364798 0
M  V30 7 C 3.523198 -1.648611 -0.716218 0
M  V30 8 C 2.821282 -0.433489 -1.301942 0
M  V30 9 O 2.574258 0.597479 -0.411885 0
M  V30 10 C 3.455973 1.339301 0.281499 0
M  V30 11 C 4.818522 1.389982 0.380174 0
M  V30 12 C 5.517929 2.263682 1.180341 0
M  V30 13 N 4.827202 3.130990 1.919543 0
M  V30 14 C 3.500490 3.167167 1.898762 0
M  V30 15 C 2.922379 4.103252 2.706905 0
M  V30 16 C 1.539652 4.190621 2.734241 0
M  V30 17 C 0.773681 3.346843 1.959347 0
M  V30 18 C -0.664416 3.355145 1.924228 0
M  V30 19 C -1.871876 3.347022 1.879799 0
M  V30 20 C -3.361225 3.311509 1.821585 0
M  V30 21 N -3.739094 2.002666 1.248450 0
M  V30 22 C -5.082482 1.631797 1.053601 0
M  V30 23 O -5.872402 2.550924 1.426524 0
M  V30 24 C -5.591655 0.389897 0.507460 0
M  V30 25 C -6.985928 0.263991 0.410559 0
M  V30 26 N -7.535923 -0.857294 -0.087967 0
M  V30 27 C -6.795418 -1.896419 -0.511475 0
M  V30 28 N -5.458940 -1.840978 -0.446471 0
M  V30 29 C -4.592832 -2.915802 -0.882135 0
M  V30 30 C -4.256010 -2.747128 -2.315097 0
M  V30 31 C -5.150841 -3.347205 -3.200511 0
M  V30 32 C -4.974113 -3.282420 -4.573694 0
M  V30 33 C -3.881564 -2.604840 -5.088955 0
M  V30 34 F -3.706514 -2.540562 -6.435869 0
M  V30 35 C -2.989314 -2.007429 -4.233890 0
M  V30 36 F -1.910948 -1.339405 -4.707341 0
M  V30 37 C -3.185950 -2.085500 -2.872969 0
M  V30 38 C -4.924449 -0.720978 0.050822 0
M  V30 39 O -3.675593 -0.654414 0.118109 0
M  V30 40 C 1.421020 2.425038 1.165455 0
M  V30 41 C 2.792190 2.276282 1.083602 0
M  V30 42 H 1.186238 -5.597601 2.442968 0
M  V30 43 H 2.972981 -5.572987 2.276460 0
M  V30 44 H 2.115736 -4.868520 3.765810 0
M  V30 45 H 1.850577 -2.855576 2.690372 0
M  V30 46 H 1.066391 -3.653005 1.299414 0
M  V30 47 H 4.000689 -2.255750 2.573029 0
M  V30 48 H 4.285983 -4.030478 2.606758 0
M  V30 49 H 5.968066 -1.933042 1.262887 0
M  V30 50 H 6.357408 -3.532665 1.872885 0
M  V30 51 H 5.635250 -3.401822 0.222576 0
M  V30 52 H 1.627507 -2.424338 -0.003650 0
M  V30 53 H 2.505395 -1.374969 1.142104 0
M  V30 54 H 3.484953 -2.410495 -1.556483 0
M  V30 55 H 4.566646 -1.481072 -0.525248 0
M  V30 56 H 1.875585 -0.847906 -1.752776 0
M  V30 57 H 3.402916 -0.099393 -2.211827 0
M  V30 58 H 5.326190 0.689568 -0.229607 0
M  V30 59 H 6.582585 2.225827 1.188415 0
M  V30 60 H 3.504170 4.780454 3.325530 0
M  V30 61 H 1.010950 4.906511 3.350501 0
M  V30 62 H -3.816137 3.481190 2.794509 0
M  V30 63 H -3.632731 4.137487 1.134046 0
M  V30 64 H -2.996752 1.325889 0.975305 0
M  V30 65 H -7.686421 1.029732 0.718041 0
M  V30 66 H -7.279499 -2.772630 -0.903187 0
M  V30 67 H -4.980095 -3.927185 -0.652377 0
M  V30 68 H -3.610007 -2.797533 -0.337050 0
M  V30 69 H -6.031662 -3.897434 -2.873507 0
M  V30 70 H -5.657265 -3.741321 -5.285300 0
M  V30 71 H -2.512660 -1.635070 -2.158034 0
M  V30 72 H 0.833723 1.756779 0.549988 0
M  V30 END ATOM
M  V30 BEGIN BOND
M  V30 1 1 1 2
M  V30 2 1 2 3
M  V30 3 1 3 4
M  V30 4 1 4 5
M  V30 5 1 3 6
M  V30 6 1 6 7
M  V30 7 1 7 8
M  V30 8 1 8 9
M  V30 9 1 9 10
M  V30 10 2 10 11
M  V30 11 1 11 12
M  V30 12 2 12 13
M  V30 13 1 13 14
M  V30 14 2 14 15
M  V30 15 1 15 16
M  V30 16 2 16 17
M  V30 17 1 17 18
M  V30 18 3 18 19
M  V30 19 1 19 20
M  V30 20 1 20 21
M  V30 21 1 21 22
M  V30 22 2 22 23
M  V30 23 1 22 24
M  V30 24 2 24 25
M  V30 25 1 25 26
M  V30 26 2 26 27
M  V30 27 1 27 28
M  V30 28 1 28 29
M  V30 29 1 29 30
M  V30 30 2 30 31
M  V30 31 1 31 32
M  V30 32 2 32 33
M  V30 33 1 33 34
M  V30 34 1 33 35
M  V30 35 1 35 36
M  V30 36 2 35 37
M  V30 37 1 28 38
M  V30 38 2 38 39
M  V30 39 1 17 40
M  V30 40 2 40 41
M  V30 41 1 41 10
M  V30 42 1 41 14
M  V30 43 1 38 24
M  V30 44 1 37 30
M  V30 45 1 1 42
M  V30 46 1 1 43
M  V30 47 1 1 44
M  V30 48 1 2 45
M  V30 49 1 2 46
M  V30 50 1 4 47
M  V30 51 1 4 48
M  V30 52 1 5 49
M  V30 53 1 5 50
M  V30 54 1 5 51
M  V30 55 1 6 52
M  V30 56 1 6 53
M  V30 57 1 7 54
M  V30 58 1 7 55
M  V30 59 1 8 56
M  V30 60 1 8 57
M  V30 61 1 11 58
M  V30 62 1 12 59
M  V30 63 1 15 60
M  V30 64 1 16 61
M  V30 65 1 20 62
M  V30 66 1 20 63
M  V30 67 1 21 64
M  V30 68 1 25 65
M  V30 69 1 27 66
M  V30 70 1 29 67
M  V30 71 1 29 68
M  V30 72 1 31 69
M  V30 73 1 32 70
M  V30 74 1 37 71
M  V30 75 1 40 72
M  V30 END BOND
M  V30 END CTAB
M  END
>  <Dataset>  (922) 
ChEMBL_Kinases

>  <Ligand_Instance>  (922) 
nan

>  <PDB_ID>  (922) 
nan

>  <Standardized_SMILES>  (922) 
CCN(CC)CCCOc1ccnc2ccc(C#CCNC(=O)c3cncn(Cc4ccc(F)c(F)c4)c3=O)cc12

>  <Name>  (922) 
nan

>  <Pocket>  (922) 
nan

>  <ATP_Site>  (922) 
nan

>  <Peripheral>  (922) 
nan

>  <Num_H_Atoms_ProtBoundConf>  (922) 
nan

>  <Num_Resolved_Atoms>  (922) 
nan

>  <Num_Not_Resolved_Atoms>  (922) 
nan

$$$$
CHEMBL3689308
     RDKit          3D

  0  0  0  0  0  0  0  0  0  0999 V3000
M  V30 BEGIN CTAB
M  V30 COUNTS 69 72 0 0 0
M  V30 BEGIN ATOM
M  V30 1 C 4.127555 -4.446047 1.644352 0
M  V30 2 C 4.073960 -3.262795 0.681475 0
M  V30 3 C 2.617478 -3.147663 0.256298 0
M  V30 4 C 4.929955 -3.477664 -0.508998 0
M  V30 5 C 4.379309 -2.048458 1.517180 0
M  V30 6 O 4.374353 -0.884205 0.871068 0
M  V30 7 C 4.900543 -0.121525 -0.066278 0
M  V30 8 C 5.917938 -0.209316 -0.985437 0
M  V30 9 C 6.308614 0.738632 -1.896864 0
M  V30 10 N 5.605640 1.876159 -1.873642 0
M  V30 11 C 4.588511 2.100390 -1.031575 0
M  V30 12 C 3.987887 3.332618 -1.159360 0
M  V30 13 C 2.934963 3.613821 -0.315516 0
M  V30 14 C 2.509436 2.692578 0.613627 0
M  V30 15 C 1.415660 2.936780 1.517546 0
M  V30 16 C 0.502836 3.124080 2.286098 0
M  V30 17 C -0.617593 3.328775 3.235431 0
M  V30 18 N -1.791868 2.652029 2.671397 0
M  V30 19 C -1.512992 1.291325 2.521978 0
M  V30 20 O -0.333410 1.052071 2.917251 0
M  V30 21 C -2.354800 0.226052 2.009736 0
M  V30 22 C -1.800733 -1.049695 1.978095 0
M  V30 23 C -2.513967 -2.129386 1.510739 0
M  V30 24 C -3.811374 -1.943820 1.061850 0
M  V30 25 N -4.350160 -0.692994 1.094517 0
M  V30 26 C -5.700509 -0.673680 0.595760 0
M  V30 27 C -6.218410 0.695827 0.252166 0
M  V30 28 O -5.479560 1.351729 -0.711241 0
M  V30 29 C -5.796218 -1.536079 -0.607417 0
M  V30 30 C -5.382679 -1.302482 -1.877425 0
M  V30 31 C -5.529768 -2.172507 -2.922594 0
M  V30 32 C -6.135984 -3.392397 -2.728478 0
M  V30 33 F -6.264731 -4.225397 -3.779799 0
M  V30 34 C -6.581981 -3.707101 -1.476956 0
M  V30 35 F -7.183897 -4.897464 -1.243343 0
M  V30 36 C -6.401190 -2.784908 -0.473066 0
M  V30 37 C -3.633757 0.321059 1.550788 0
M  V30 38 O -4.170265 1.433536 1.558565 0
M  V30 39 C 3.156025 1.483229 0.684594 0
M  V30 40 C 4.228363 1.111624 -0.126357 0
M  V30 41 H 3.580421 -5.287310 1.186610 0
M  V30 42 H 3.581052 -4.100098 2.553753 0
M  V30 43 H 5.151506 -4.688285 1.951354 0
M  V30 44 H 2.187502 -4.149422 0.055298 0
M  V30 45 H 2.073178 -2.640451 1.073300 0
M  V30 46 H 2.573744 -2.473525 -0.644362 0
M  V30 47 H 6.005019 -3.359547 -0.283369 0
M  V30 48 H 4.724954 -4.517583 -0.869881 0
M  V30 49 H 4.645324 -2.758802 -1.300007 0
M  V30 50 H 5.342569 -2.205953 2.098433 0
M  V30 51 H 3.603785 -2.113806 2.364090 0
M  V30 52 H 6.451888 -1.134001 -0.951559 0
M  V30 53 H 7.125709 0.521909 -2.552510 0
M  V30 54 H 4.313207 4.062635 -1.884417 0
M  V30 55 H 2.391392 4.539736 -0.323595 0
M  V30 56 H -0.822231 4.408866 3.331621 0
M  V30 57 H -0.339594 2.869345 4.197168 0
M  V30 58 H -2.735482 2.988228 2.382047 0
M  V30 59 H -0.776596 -1.210899 2.329691 0
M  V30 60 H -2.007533 -3.098795 1.518541 0
M  V30 61 H -4.257104 -2.871563 0.722801 0
M  V30 62 H -6.410967 -1.076149 1.379861 0
M  V30 63 H -6.436534 1.304529 1.160041 0
M  V30 64 H -7.254444 0.538661 -0.191009 0
M  V30 65 H -6.078311 1.987740 -1.181848 0
M  V30 66 H -4.895602 -0.361680 -2.079865 0
M  V30 67 H -5.164387 -1.893947 -3.908530 0
M  V30 68 H -6.782484 -3.098822 0.512057 0
M  V30 69 H 2.825675 0.756485 1.412444 0
M  V30 END ATOM
M  V30 BEGIN BOND
M  V30 1 1 1 2
M  V30 2 1 2 3
M  V30 3 1 2 4
M  V30 4 1 2 5
M  V30 5 1 5 6
M  V30 6 1 6 7
M  V30 7 2 7 8
M  V30 8 1 8 9
M  V30 9 2 9 10
M  V30 10 1 10 11
M  V30 11 2 11 12
M  V30 12 1 12 13
M  V30 13 2 13 14
M  V30 14 1 14 15
M  V30 15 3 15 16
M  V30 16 1 16 17
M  V30 17 1 17 18
M  V30 18 1 18 19
M  V30 19 2 19 20
M  V30 20 1 19 21
M  V30 21 2 21 22
M  V30 22 1 22 23
M  V30 23 2 23 24
M  V30 24 1 24 25
M  V30 25 1 25 26
M  V30 26 1 26 27
M  V30 27 1 27 28
M  V30 28 1 26 29
M  V30 29 2 29 30
M  V30 30 1 30 31
M  V30 31 2 31 32
M  V30 32 1 32 33
M  V30 33 1 32 34
M  V30 34 1 34 35
M  V30 35 2 34 36
M  V30 36 1 25 37
M  V30 37 2 37 38
M  V30 38 1 14 39
M  V30 39 2 39 40
M  V30 40 1 40 7
M  V30 41 1 40 11
M  V30 42 1 37 21
M  V30 43 1 36 29
M  V30 44 1 1 41
M  V30 45 1 1 42
M  V30 46 1 1 43
M  V30 47 1 3 44
M  V30 48 1 3 45
M  V30 49 1 3 46
M  V30 50 1 4 47
M  V30 51 1 4 48
M  V30 52 1 4 49
M  V30 53 1 5 50
M  V30 54 1 5 51
M  V30 55 1 8 52
M  V30 56 1 9 53
M  V30 57 1 12 54
M  V30 58 1 13 55
M  V30 59 1 17 56
M  V30 60 1 17 57
M  V30 61 1 18 58
M  V30 62 1 22 59
M  V30 63 1 23 60
M  V30 64 1 24 61
M  V30 65 1 26 62
M  V30 66 1 27 63
M  V30 67 1 27 64
M  V30 68 1 28 65
M  V30 69 1 30 66
M  V30 70 1 31 67
M  V30 71 1 36 68
M  V30 72 1 39 69
M  V30 END BOND
M  V30 END CTAB
M  END
>  <Dataset>  (923) 
ChEMBL_Kinases

>  <Ligand_Instance>  (923) 
nan

>  <PDB_ID>  (923) 
nan

>  <Standardized_SMILES>  (923) 
CC(C)(C)COc1ccnc2ccc(C#CCNC(=O)c3cccn(C(CO)c4ccc(F)c(F)c4)c3=O)cc12

>  <Name>  (923) 
nan

>  <Pocket>  (923) 
nan

>  <ATP_Site>  (923) 
nan

>  <Peripheral>  (923) 
nan

>  <Num_H_Atoms_ProtBoundConf>  (923) 
nan

>  <Num_Resolved_Atoms>  (923) 
nan

>  <Num_Not_Resolved_Atoms>  (923) 
nan

$$$$
CHEMBL3689309
     RDKit          3D

  0  0  0  0  0  0  0  0  0  0999 V3000
M  V30 BEGIN CTAB
M  V30 COUNTS 71 75 0 0 0
M  V30 BEGIN ATOM
M  V30 1 O 0.793230 -0.781301 6.283471 0
M  V30 2 C 0.042484 -0.899079 5.264368 0
M  V30 3 N 0.838340 -0.696793 4.105625 0
M  V30 4 C 2.237559 -0.419519 4.355908 0
M  V30 5 C 2.942636 -0.234273 3.064242 0
M  V30 6 C 3.511577 -0.104453 2.010208 0
M  V30 7 C 4.185325 0.050230 0.743666 0
M  V30 8 C 5.543394 0.213355 0.639372 0
M  V30 9 C 6.133747 0.351279 -0.595580 0
M  V30 10 C 5.329829 0.321449 -1.714138 0
M  V30 11 N 5.965329 0.456543 -2.864416 0
M  V30 12 C 5.350540 0.448878 -4.051529 0
M  V30 13 C 3.992339 0.287976 -3.977666 0
M  V30 14 C 3.188557 0.135957 -2.878777 0
M  V30 15 O 1.912780 -0.024640 -2.589492 0
M  V30 16 C 0.673538 -0.153174 -3.080359 0
M  V30 17 C 0.342360 -1.348014 -3.916910 0
M  V30 18 C -1.110347 -1.247302 -4.332688 0
M  V30 19 C -1.221689 -1.337675 -5.823854 0
M  V30 20 O -0.397117 -0.473061 -6.505611 0
M  V30 21 C 0.929608 -0.498322 -6.159511 0
M  V30 22 C 1.176857 -1.565830 -5.126644 0
M  V30 23 C 3.939861 0.159224 -1.688323 0
M  V30 24 C 3.439124 0.028898 -0.401612 0
M  V30 25 C -1.379778 -1.190972 5.319903 0
M  V30 26 C -1.856528 -1.333683 6.628345 0
M  V30 27 C -3.181198 -1.612206 6.875098 0
M  V30 28 C -3.996069 -1.739742 5.771633 0
M  V30 29 N -3.580641 -1.610071 4.480203 0
M  V30 30 C -4.468930 -1.751444 3.379915 0
M  V30 31 C -4.338973 -3.030867 2.615157 0
M  V30 32 O -3.090613 -3.253178 2.054695 0
M  V30 33 C -4.355595 -0.570223 2.497603 0
M  V30 34 C -4.972281 0.564081 3.040891 0
M  V30 35 C -5.027529 1.801067 2.434922 0
M  V30 36 C -4.428825 1.941395 1.192124 0
M  V30 37 F -4.417955 3.106471 0.498294 0
M  V30 38 C -3.805984 0.831860 0.622007 0
M  V30 39 F -3.188037 0.863249 -0.596169 0
M  V30 40 C -3.774299 -0.386700 1.263247 0
M  V30 41 C -2.280691 -1.339613 4.318400 0
M  V30 42 O -1.846386 -1.211543 3.173844 0
M  V30 43 H 0.375634 -0.760139 3.174779 0
M  V30 44 H 2.331975 0.518503 4.963496 0
M  V30 45 H 2.661884 -1.304428 4.875409 0
M  V30 46 H 6.128294 0.229084 1.544443 0
M  V30 47 H 7.201837 0.477626 -0.648108 0
M  V30 48 H 5.790042 0.552125 -5.032342 0
M  V30 49 H 3.411434 0.282502 -4.889073 0
M  V30 50 H 0.360776 0.761523 -3.680767 0
M  V30 51 H -0.100354 -0.181899 -2.235264 0
M  V30 52 H 0.448443 -2.246398 -3.232933 0
M  V30 53 H -1.717420 -2.043479 -3.855340 0
M  V30 54 H -1.563425 -0.285649 -3.964359 0
M  V30 55 H -1.092216 -2.420319 -6.119544 0
M  V30 56 H -2.273558 -1.031470 -6.121348 0
M  V30 57 H 1.245358 0.518689 -5.823860 0
M  V30 58 H 1.548735 -0.795030 -7.052078 0
M  V30 59 H 2.252411 -1.735401 -4.915225 0
M  V30 60 H 0.793179 -2.525535 -5.609334 0
M  V30 61 H 2.365859 -0.099465 -0.320145 0
M  V30 62 H -1.227846 -1.236321 7.526277 0
M  V30 63 H -3.548929 -1.722348 7.879159 0
M  V30 64 H -5.055260 -1.962680 5.969924 0
M  V30 65 H -5.514655 -1.787097 3.822012 0
M  V30 66 H -5.034280 -2.950655 1.738451 0
M  V30 67 H -4.733229 -3.881119 3.204067 0
M  V30 68 H -2.867598 -4.213525 1.987820 0
M  V30 69 H -5.480977 0.580638 4.017962 0
M  V30 70 H -5.503294 2.669582 2.857895 0
M  V30 71 H -3.315095 -1.284982 0.877766 0
M  V30 END ATOM
M  V30 BEGIN BOND
M  V30 1 2 1 2
M  V30 2 1 2 3
M  V30 3 1 3 4
M  V30 4 1 4 5
M  V30 5 3 5 6
M  V30 6 1 6 7
M  V30 7 2 7 8
M  V30 8 1 8 9
M  V30 9 2 9 10
M  V30 10 1 10 11
M  V30 11 2 11 12
M  V30 12 1 12 13
M  V30 13 2 13 14
M  V30 14 1 14 15
M  V30 15 1 15 16
M  V30 16 1 16 17
M  V30 17 1 17 18
M  V30 18 1 18 19
M  V30 19 1 19 20
M  V30 20 1 20 21
M  V30 21 1 21 22
M  V30 22 1 14 23
M  V30 23 2 23 24
M  V30 24 1 2 25
M  V30 25 2 25 26
M  V30 26 1 26 27
M  V30 27 2 27 28
M  V30 28 1 28 29
M  V30 29 1 29 30
M  V30 30 1 30 31
M  V30 31 1 31 32
M  V30 32 1 30 33
M  V30 33 2 33 34
M  V30 34 1 34 35
M  V30 35 2 35 36
M  V30 36 1 36 37
M  V30 37 1 36 38
M  V30 38 1 38 39
M  V30 39 2 38 40
M  V30 40 1 29 41
M  V30 41 2 41 42
M  V30 42 1 24 7
M  V30 43 1 41 25
M  V30 44 1 23 10
M  V30 45 1 40 33
M  V30 46 1 22 17
M  V30 47 1 3 43
M  V30 48 1 4 44
M  V30 49 1 4 45
M  V30 50 1 8 46
M  V30 51 1 9 47
M  V30 52 1 12 48
M  V30 53 1 13 49
M  V30 54 1 16 50
M  V30 55 1 16 51
M  V30 56 1 17 52
M  V30 57 1 18 53
M  V30 58 1 18 54
M  V30 59 1 19 55
M  V30 60 1 19 56
M  V30 61 1 21 57
M  V30 62 1 21 58
M  V30 63 1 22 59
M  V30 64 1 22 60
M  V30 65 1 24 61
M  V30 66 1 26 62
M  V30 67 1 27 63
M  V30 68 1 28 64
M  V30 69 1 30 65
M  V30 70 1 31 66
M  V30 71 1 31 67
M  V30 72 1 32 68
M  V30 73 1 34 69
M  V30 74 1 35 70
M  V30 75 1 40 71
M  V30 END BOND
M  V30 END CTAB
M  END
>  <Dataset>  (924) 
ChEMBL_Kinases

>  <Ligand_Instance>  (924) 
nan

>  <PDB_ID>  (924) 
nan

>  <Standardized_SMILES>  (924) 
O=C(NCC#Cc1ccc2nccc(OCC3CCOCC3)c2c1)c1cccn(C(CO)c2ccc(F)c(F)c2)c1=O

>  <Name>  (924) 
nan

>  <Pocket>  (924) 
nan

>  <ATP_Site>  (924) 
nan

>  <Peripheral>  (924) 
nan

>  <Num_H_Atoms_ProtBoundConf>  (924) 
nan

>  <Num_Resolved_Atoms>  (924) 
nan

>  <Num_Not_Resolved_Atoms>  (924) 
nan

$$$$
CHEMBL3689310
     RDKit          3D

  0  0  0  0  0  0  0  0  0  0999 V3000
M  V30 BEGIN CTAB
M  V30 COUNTS 71 75 0 0 0
M  V30 BEGIN ATOM
M  V30 1 C -0.508394 -6.715581 0.284473 0
M  V30 2 N -0.633033 -6.941472 -1.106926 0
M  V30 3 C 0.132944 -7.980762 -1.686770 0
M  V30 4 C -0.484453 -8.532753 -2.960754 0
M  V30 5 C -1.090047 -7.413768 -3.788686 0
M  V30 6 C -0.482014 -6.095918 -3.334762 0 CFG=1
M  V30 7 C -0.938875 -4.942786 -4.151163 0
M  V30 8 O -0.365449 -3.743106 -3.732746 0
M  V30 9 C 0.946481 -3.383877 -3.743365 0
M  V30 10 C 2.115578 -3.981758 -4.143858 0
M  V30 11 C 3.372376 -3.433522 -4.069665 0
M  V30 12 N 3.456882 -2.207904 -3.561726 0
M  V30 13 C 2.392264 -1.530156 -3.141223 0
M  V30 14 C 2.645503 -0.273826 -2.639697 0
M  V30 15 C 1.598155 0.480147 -2.186602 0
M  V30 16 C 0.338124 -0.036436 -2.246241 0
M  V30 17 C -0.716215 0.798179 -1.748161 0
M  V30 18 C -1.597920 1.507867 -1.308037 0
M  V30 19 C -2.664783 2.376632 -0.746384 0
M  V30 20 N -2.355324 2.711841 0.631769 0
M  V30 21 C -3.139666 3.514506 1.490284 0
M  V30 22 O -4.187434 3.922030 0.893101 0
M  V30 23 C -2.874633 3.878778 2.870335 0
M  V30 24 C -3.809296 4.671782 3.504165 0
M  V30 25 C -3.664736 5.072208 4.813132 0
M  V30 26 C -2.551115 4.670919 5.520009 0
M  V30 27 N -1.622299 3.898538 4.931502 0
M  V30 28 C -0.460341 3.476893 5.657216 0
M  V30 29 C 0.683619 4.419031 5.548074 0
M  V30 30 C 1.668361 4.362226 4.584722 0
M  V30 31 C 2.719476 5.248541 4.504846 0
M  V30 32 F 3.662047 5.141608 3.531553 0
M  V30 33 C 2.807272 6.274967 5.451539 0
M  V30 34 F 3.863648 7.116433 5.322855 0
M  V30 35 C 1.829725 6.342630 6.419202 0
M  V30 36 F 2.035262 7.385464 7.273525 0
M  V30 37 C 0.786543 5.437262 6.473057 0
M  V30 38 C -1.790332 3.514883 3.629807 0
M  V30 39 O -0.916364 2.807295 3.127269 0
M  V30 40 C 0.103337 -1.290852 -2.749743 0
M  V30 41 C 1.119921 -2.104967 -3.224337 0
M  V30 42 C -1.062379 -5.877971 -1.925762 0
M  V30 43 H 0.406040 -6.126906 0.494989 0
M  V30 44 H -1.360415 -6.049397 0.595422 0
M  V30 45 H -0.606310 -7.631165 0.905865 0
M  V30 46 H 0.144610 -8.837011 -0.957206 0
M  V30 47 H 1.200871 -7.724413 -1.821707 0
M  V30 48 H -1.204801 -9.313622 -2.692223 0
M  V30 49 H 0.336105 -9.010852 -3.531495 0
M  V30 50 H -2.181998 -7.428506 -3.616780 0
M  V30 51 H -0.793975 -7.562987 -4.839351 0
M  V30 52 H 0.589762 -6.255985 -3.297111 0
M  V30 53 H -2.051710 -4.919396 -4.119023 0
M  V30 54 H -0.618004 -5.170658 -5.215406 0
M  V30 55 H 1.990371 -4.966094 -4.562440 0
M  V30 56 H 4.188731 -4.017579 -4.419981 0
M  V30 57 H 3.644227 0.133496 -2.593092 0
M  V30 58 H 1.796389 1.469774 -1.791905 0
M  V30 59 H -3.608405 1.836494 -0.861698 0
M  V30 60 H -2.675237 3.298201 -1.326532 0
M  V30 61 H -1.481906 2.322028 1.005415 0
M  V30 62 H -4.710801 5.032661 3.027560 0
M  V30 63 H -4.396666 5.693408 5.309829 0
M  V30 64 H -2.399942 4.963861 6.550556 0
M  V30 65 H -0.727582 3.407407 6.733145 0
M  V30 66 H -0.083099 2.476987 5.307270 0
M  V30 67 H 1.614272 3.585264 3.856380 0
M  V30 68 H 0.072566 5.583155 7.276638 0
M  V30 69 H -0.905702 -1.686575 -2.790463 0
M  V30 70 H -2.178337 -5.870927 -2.098089 0
M  V30 71 H -0.724197 -4.903338 -1.524793 0
M  V30 END ATOM
M  V30 BEGIN BOND
M  V30 1 1 1 2
M  V30 2 1 2 3
M  V30 3 1 3 4
M  V30 4 1 4 5
M  V30 5 1 5 6
M  V30 6 1 6 7
M  V30 7 1 7 8
M  V30 8 1 8 9
M  V30 9 2 9 10
M  V30 10 1 10 11
M  V30 11 2 11 12
M  V30 12 1 12 13
M  V30 13 2 13 14
M  V30 14 1 14 15
M  V30 15 2 15 16
M  V30 16 1 16 17
M  V30 17 3 17 18
M  V30 18 1 18 19
M  V30 19 1 19 20
M  V30 20 1 20 21
M  V30 21 2 21 22
M  V30 22 1 21 23
M  V30 23 2 23 24
M  V30 24 1 24 25
M  V30 25 2 25 26
M  V30 26 1 26 27
M  V30 27 1 27 28
M  V30 28 1 28 29
M  V30 29 2 29 30
M  V30 30 1 30 31
M  V30 31 1 31 32
M  V30 32 2 31 33
M  V30 33 1 33 34
M  V30 34 1 33 35
M  V30 35 1 35 36
M  V30 36 2 35 37
M  V30 37 1 27 38
M  V30 38 2 38 39
M  V30 39 1 16 40
M  V30 40 2 40 41
M  V30 41 1 6 42
M  V30 42 1 42 2
M  V30 43 1 41 9
M  V30 44 1 41 13
M  V30 45 1 38 23
M  V30 46 1 37 29
M  V30 47 1 1 43
M  V30 48 1 1 44
M  V30 49 1 1 45
M  V30 50 1 3 46
M  V30 51 1 3 47
M  V30 52 1 4 48
M  V30 53 1 4 49
M  V30 54 1 5 50
M  V30 55 1 5 51
M  V30 56 1 6 52 CFG=1
M  V30 57 1 7 53
M  V30 58 1 7 54
M  V30 59 1 10 55
M  V30 60 1 11 56
M  V30 61 1 14 57
M  V30 62 1 15 58
M  V30 63 1 19 59
M  V30 64 1 19 60
M  V30 65 1 20 61
M  V30 66 1 24 62
M  V30 67 1 25 63
M  V30 68 1 26 64
M  V30 69 1 28 65
M  V30 70 1 28 66
M  V30 71 1 30 67
M  V30 72 1 37 68
M  V30 73 1 40 69
M  V30 74 1 42 70
M  V30 75 1 42 71
M  V30 END BOND
M  V30 END CTAB
M  END
>  <Dataset>  (925) 
ChEMBL_Kinases

>  <Ligand_Instance>  (925) 
nan

>  <PDB_ID>  (925) 
nan

>  <Standardized_SMILES>  (925) 
CN1CCC[C@@H](COc2ccnc3ccc(C#CCNC(=O)c4cccn(Cc5cc(F)c(F)c(F)c5)c4=O)cc23)C1

>  <Name>  (925) 
nan

>  <Pocket>  (925) 
nan

>  <ATP_Site>  (925) 
nan

>  <Peripheral>  (925) 
nan

>  <Num_H_Atoms_ProtBoundConf>  (925) 
nan

>  <Num_Resolved_Atoms>  (925) 
nan

>  <Num_Not_Resolved_Atoms>  (925) 
nan

$$$$
CHEMBL3689311
     RDKit          3D

  0  0  0  0  0  0  0  0  0  0999 V3000
M  V30 BEGIN CTAB
M  V30 COUNTS 74 78 0 0 0
M  V30 BEGIN ATOM
M  V30 1 C 2.507960 3.396782 1.433998 0
M  V30 2 C 3.854957 3.000603 0.875530 0
M  V30 3 C 4.378752 1.756528 1.419972 0
M  V30 4 C 5.769961 1.597885 1.476934 0
M  V30 5 C 6.328060 0.424527 1.995815 0
M  V30 6 F 7.655747 0.222101 2.073224 0
M  V30 7 C 5.542433 -0.605261 2.463995 0
M  V30 8 F 6.077121 -1.742698 2.966912 0
M  V30 9 C 4.159674 -0.470079 2.417542 0
M  V30 10 F 3.349904 -1.457200 2.867159 0
M  V30 11 C 3.643864 0.700500 1.899533 0
M  V30 12 N 3.858825 3.100651 -0.567169 0
M  V30 13 C 4.508078 4.106575 -1.225055 0
M  V30 14 C 4.535381 4.235695 -2.587573 0
M  V30 15 C 3.865533 3.288805 -3.305915 0
M  V30 16 C 3.183071 2.237076 -2.699671 0
M  V30 17 C 2.530236 1.328109 -3.617723 0
M  V30 18 O 2.569632 1.468375 -4.880049 0
M  V30 19 N 1.767272 0.175574 -3.301892 0
M  V30 20 C 1.153374 -0.671063 -4.300057 0
M  V30 21 C 0.427186 -1.788276 -3.674595 0
M  V30 22 C -0.157724 -2.702442 -3.144473 0
M  V30 23 C -0.839253 -3.800996 -2.494607 0
M  V30 24 C -0.459872 -5.112232 -2.688550 0
M  V30 25 C -1.139331 -6.125273 -2.046862 0
M  V30 26 C -2.188445 -5.786051 -1.222767 0
M  V30 27 N -2.798519 -6.827165 -0.634453 0
M  V30 28 C -3.835168 -6.639513 0.192986 0
M  V30 29 C -4.248077 -5.354842 0.416114 0
M  V30 30 C -3.695183 -4.221811 -0.133253 0
M  V30 31 O -3.948652 -2.905330 -0.043762 0
M  V30 32 C -4.861609 -2.143900 0.640472 0
M  V30 33 C -4.805925 -2.224340 2.152257 0 CFG=2
M  V30 34 C -5.849399 -1.345272 2.764246 0
M  V30 35 C -5.365335 -0.035194 3.285972 0
M  V30 36 C -3.945823 -0.032944 3.764155 0
M  V30 37 N -3.032917 -0.644299 2.853734 0
M  V30 38 C -2.756763 0.111002 1.676708 0
M  V30 39 C -3.422948 -2.000500 2.659829 0
M  V30 40 C -2.613767 -4.475615 -0.991484 0
M  V30 41 C -1.891846 -3.489456 -1.665329 0
M  V30 42 C 3.234015 2.223272 -1.326203 0
M  V30 43 O 2.631218 1.293973 -0.785692 0
M  V30 44 H 2.280041 4.417970 1.014617 0
M  V30 45 H 2.539387 3.552035 2.530966 0
M  V30 46 H 1.710401 2.693004 1.213995 0
M  V30 47 H 4.546184 3.815226 1.234539 0
M  V30 48 H 6.494249 2.350812 1.133628 0
M  V30 49 H 2.586726 0.765313 1.886639 0
M  V30 50 H 5.035522 4.850490 -0.629244 0
M  V30 51 H 5.053385 5.036346 -3.080202 0
M  V30 52 H 3.895870 3.403751 -4.398973 0
M  V30 53 H 1.641437 -0.075683 -2.299785 0
M  V30 54 H 0.427675 -0.097457 -4.938643 0
M  V30 55 H 1.933432 -1.086313 -4.969104 0
M  V30 56 H 0.377374 -5.271909 -3.355936 0
M  V30 57 H -0.829997 -7.147025 -2.208924 0
M  V30 58 H -4.362669 -7.436544 0.692839 0
M  V30 59 H -5.069129 -5.165561 1.058711 0
M  V30 60 H -4.705900 -1.060836 0.340874 0
M  V30 61 H -5.927398 -2.322688 0.291952 0
M  V30 62 H -5.068183 -3.265634 2.415483 0
M  V30 63 H -6.625859 -1.146066 1.995216 0
M  V30 64 H -6.388566 -1.868282 3.592771 0
M  V30 65 H -5.967962 0.318695 4.152639 0
M  V30 66 H -5.456035 0.766966 2.518562 0
M  V30 67 H -3.824352 -0.450385 4.781322 0
M  V30 68 H -3.630049 1.047611 3.867036 0
M  V30 69 H -3.596964 0.762965 1.431087 0
M  V30 70 H -1.875715 0.774655 1.915872 0
M  V30 71 H -2.418587 -0.561606 0.863096 0
M  V30 72 H -3.319771 -2.497601 3.668719 0
M  V30 73 H -2.697649 -2.518046 2.019536 0
M  V30 74 H -2.196388 -2.465694 -1.507779 0
M  V30 END ATOM
M  V30 BEGIN BOND
M  V30 1 1 1 2
M  V30 2 1 2 3
M  V30 3 2 3 4
M  V30 4 1 4 5
M  V30 5 1 5 6
M  V30 6 2 5 7
M  V30 7 1 7 8
M  V30 8 1 7 9
M  V30 9 1 9 10
M  V30 10 2 9 11
M  V30 11 1 2 12
M  V30 12 1 12 13
M  V30 13 2 13 14
M  V30 14 1 14 15
M  V30 15 2 15 16
M  V30 16 1 16 17
M  V30 17 2 17 18
M  V30 18 1 17 19
M  V30 19 1 19 20
M  V30 20 1 20 21
M  V30 21 3 21 22
M  V30 22 1 22 23
M  V30 23 2 23 24
M  V30 24 1 24 25
M  V30 25 2 25 26
M  V30 26 1 26 27
M  V30 27 2 27 28
M  V30 28 1 28 29
M  V30 29 2 29 30
M  V30 30 1 30 31
M  V30 31 1 31 32
M  V30 32 1 32 33
M  V30 33 1 33 34
M  V30 34 1 34 35
M  V30 35 1 35 36
M  V30 36 1 36 37
M  V30 37 1 37 38
M  V30 38 1 37 39
M  V30 39 1 30 40
M  V30 40 2 40 41
M  V30 41 1 16 42
M  V30 42 2 42 43
M  V30 43 1 11 3
M  V30 44 1 42 12
M  V30 45 1 41 23
M  V30 46 1 40 26
M  V30 47 1 39 33
M  V30 48 1 1 44
M  V30 49 1 1 45
M  V30 50 1 1 46
M  V30 51 1 2 47
M  V30 52 1 4 48
M  V30 53 1 11 49
M  V30 54 1 13 50
M  V30 55 1 14 51
M  V30 56 1 15 52
M  V30 57 1 19 53
M  V30 58 1 20 54
M  V30 59 1 20 55
M  V30 60 1 24 56
M  V30 61 1 25 57
M  V30 62 1 28 58
M  V30 63 1 29 59
M  V30 64 1 32 60
M  V30 65 1 32 61
M  V30 66 1 33 62 CFG=3
M  V30 67 1 34 63
M  V30 68 1 34 64
M  V30 69 1 35 65
M  V30 70 1 35 66
M  V30 71 1 36 67
M  V30 72 1 36 68
M  V30 73 1 38 69
M  V30 74 1 38 70
M  V30 75 1 38 71
M  V30 76 1 39 72
M  V30 77 1 39 73
M  V30 78 1 41 74
M  V30 END BOND
M  V30 END CTAB
M  END
>  <Dataset>  (926) 
ChEMBL_Kinases

>  <Ligand_Instance>  (926) 
nan

>  <PDB_ID>  (926) 
nan

>  <Standardized_SMILES>  (926) 
CC(c1cc(F)c(F)c(F)c1)n1cccc(C(=O)NCC#Cc2ccc3nccc(OC[C@@H]4CCCN(C)C4)c3c2)c1=O

>  <Name>  (926) 
nan

>  <Pocket>  (926) 
nan

>  <ATP_Site>  (926) 
nan

>  <Peripheral>  (926) 
nan

>  <Num_H_Atoms_ProtBoundConf>  (926) 
nan

>  <Num_Resolved_Atoms>  (926) 
nan

>  <Num_Not_Resolved_Atoms>  (926) 
nan

$$$$
CHEMBL3689312
     RDKit          3D

  0  0  0  0  0  0  0  0  0  0999 V3000
M  V30 BEGIN CTAB
M  V30 COUNTS 87 92 0 0 0
M  V30 BEGIN ATOM
M  V30 1 O -2.360800 -5.473870 0.692670 0
M  V30 2 C -1.373001 -4.643737 0.776901 0
M  V30 3 N -1.215975 -4.343008 -0.585139 0
M  V30 4 C -1.373799 -4.305110 -1.982794 0
M  V30 5 C -0.466809 -3.326522 -2.612334 0
M  V30 6 C 0.281281 -2.495784 -3.123320 0
M  V30 7 C 1.157140 -1.520656 -3.694726 0
M  V30 8 C 2.203206 -1.807257 -4.564053 0
M  V30 9 C 2.888324 -0.659314 -4.939349 0
M  V30 10 C 2.648241 0.626388 -4.564866 0
M  V30 11 N 3.392481 1.658223 -5.005528 0
M  V30 12 C 3.077875 2.918265 -4.579307 0
M  V30 13 C 2.046558 3.247393 -3.720155 0
M  V30 14 C 1.314311 2.149484 -3.297820 0
M  V30 15 O 0.236984 2.388364 -2.419921 0
M  V30 16 C -0.091545 3.689554 -1.975316 0
M  V30 17 C -1.302505 3.596409 -1.063785 0 CFG=2
M  V30 18 C -1.692697 4.938426 -0.558398 0
M  V30 19 C -1.732989 5.130170 0.909327 0
M  V30 20 C -2.354983 3.977192 1.656022 0
M  V30 21 N -2.139405 2.731154 0.994982 0
M  V30 22 C -2.823638 1.599873 1.416530 0
M  V30 23 C -2.580040 0.323786 0.663205 0
M  V30 24 N -2.943550 0.473983 -0.729599 0
M  V30 25 C -2.720196 -0.782025 -1.434857 0
M  V30 26 C -3.065359 -0.586324 -2.887260 0
M  V30 27 O -4.383242 -0.159880 -3.053972 0
M  V30 28 C -4.494916 1.077019 -2.453345 0
M  V30 29 C -4.293861 0.873518 -0.954425 0
M  V30 30 C -1.060711 2.678815 0.107180 0
M  V30 31 C 1.597440 0.862718 -3.701725 0
M  V30 32 C 0.863962 -0.219353 -3.276972 0
M  V30 33 C -0.782173 -4.293929 2.046632 0
M  V30 34 C -1.359960 -4.883354 3.132728 0
M  V30 35 C -0.838603 -4.562934 4.363935 0
M  V30 36 C 0.220128 -3.682534 4.456587 0
M  V30 37 N 0.775374 -3.112889 3.371447 0
M  V30 38 C 1.904693 -2.206618 3.494606 0
M  V30 39 C 3.185076 -2.921809 3.512150 0
M  V30 40 C 3.717823 -3.200505 4.777216 0
M  V30 41 C 4.911544 -3.874096 4.826379 0
M  V30 42 F 5.491971 -4.179352 6.039869 0
M  V30 43 C 5.640330 -4.306097 3.741467 0
M  V30 44 F 6.799001 -4.960968 3.846502 0
M  V30 45 C 5.133499 -4.044112 2.447125 0
M  V30 46 F 5.749161 -4.413826 1.314335 0
M  V30 47 C 3.929682 -3.361908 2.457229 0
M  V30 48 C 0.269977 -3.418505 2.132593 0
M  V30 49 O 0.836802 -2.849807 1.184341 0
M  V30 50 H -0.391601 -3.679171 -0.436367 0
M  V30 51 H -2.429756 -4.097353 -2.276821 0
M  V30 52 H -1.124653 -5.292409 -2.476003 0
M  V30 53 H 2.353286 -2.821071 -4.828152 0
M  V30 54 H 3.722614 -0.843744 -5.622079 0
M  V30 55 H 3.709218 3.725313 -4.963606 0
M  V30 56 H 1.864823 4.267494 -3.433809 0
M  V30 57 H 0.739458 4.245617 -1.547071 0
M  V30 58 H -0.425766 4.257543 -2.892357 0
M  V30 59 H -2.145249 3.215955 -1.705119 0
M  V30 60 H -2.683988 5.238216 -1.000688 0
M  V30 61 H -0.977843 5.697305 -1.000900 0
M  V30 62 H -2.276035 6.085501 1.114458 0
M  V30 63 H -0.703544 5.271616 1.289592 0
M  V30 64 H -1.978520 3.910443 2.687926 0
M  V30 65 H -3.443924 4.161045 1.704799 0
M  V30 66 H -3.933964 1.839036 1.400885 0
M  V30 67 H -2.586416 1.405784 2.516601 0
M  V30 68 H -1.531959 -0.013212 0.706760 0
M  V30 69 H -3.189301 -0.522754 1.080894 0
M  V30 70 H -1.659031 -1.057654 -1.353756 0
M  V30 71 H -3.344330 -1.602248 -1.011017 0
M  V30 72 H -2.990386 -1.553555 -3.456901 0
M  V30 73 H -2.380984 0.188124 -3.285977 0
M  V30 74 H -3.717090 1.767512 -2.837192 0
M  V30 75 H -5.470630 1.583139 -2.616335 0
M  V30 76 H -5.021416 0.079522 -0.626625 0
M  V30 77 H -4.599353 1.824433 -0.492198 0
M  V30 78 H -0.915571 1.636296 -0.250270 0
M  V30 79 H -0.119709 3.025484 0.594662 0
M  V30 80 H 0.055732 0.048856 -2.601297 0
M  V30 81 H -2.187021 -5.572445 3.064941 0
M  V30 82 H -1.294938 -5.028601 5.221835 0
M  V30 83 H 0.573181 -3.480207 5.451429 0
M  V30 84 H 1.774006 -1.512668 4.336498 0
M  V30 85 H 1.905395 -1.587408 2.550560 0
M  V30 86 H 3.189809 -2.886881 5.661981 0
M  V30 87 H 3.527384 -3.151117 1.454384 0
M  V30 END ATOM
M  V30 BEGIN BOND
M  V30 1 2 1 2
M  V30 2 1 2 3
M  V30 3 1 3 4
M  V30 4 1 4 5
M  V30 5 3 5 6
M  V30 6 1 6 7
M  V30 7 2 7 8
M  V30 8 1 8 9
M  V30 9 2 9 10
M  V30 10 1 10 11
M  V30 11 2 11 12
M  V30 12 1 12 13
M  V30 13 2 13 14
M  V30 14 1 14 15
M  V30 15 1 15 16
M  V30 16 1 16 17
M  V30 17 1 17 18
M  V30 18 1 18 19
M  V30 19 1 19 20
M  V30 20 1 20 21
M  V30 21 1 21 22
M  V30 22 1 22 23
M  V30 23 1 23 24
M  V30 24 1 24 25
M  V30 25 1 25 26
M  V30 26 1 26 27
M  V30 27 1 27 28
M  V30 28 1 28 29
M  V30 29 1 21 30
M  V30 30 1 14 31
M  V30 31 2 31 32
M  V30 32 1 2 33
M  V30 33 2 33 34
M  V30 34 1 34 35
M  V30 35 2 35 36
M  V30 36 1 36 37
M  V30 37 1 37 38
M  V30 38 1 38 39
M  V30 39 2 39 40
M  V30 40 1 40 41
M  V30 41 1 41 42
M  V30 42 2 41 43
M  V30 43 1 43 44
M  V30 44 1 43 45
M  V30 45 1 45 46
M  V30 46 2 45 47
M  V30 47 1 37 48
M  V30 48 2 48 49
M  V30 49 1 32 7
M  V30 50 1 48 33
M  V30 51 1 31 10
M  V30 52 1 47 39
M  V30 53 1 30 17
M  V30 54 1 29 24
M  V30 55 1 3 50
M  V30 56 1 4 51
M  V30 57 1 4 52
M  V30 58 1 8 53
M  V30 59 1 9 54
M  V30 60 1 12 55
M  V30 61 1 13 56
M  V30 62 1 16 57
M  V30 63 1 16 58
M  V30 64 1 17 59 CFG=3
M  V30 65 1 18 60
M  V30 66 1 18 61
M  V30 67 1 19 62
M  V30 68 1 19 63
M  V30 69 1 20 64
M  V30 70 1 20 65
M  V30 71 1 22 66
M  V30 72 1 22 67
M  V30 73 1 23 68
M  V30 74 1 23 69
M  V30 75 1 25 70
M  V30 76 1 25 71
M  V30 77 1 26 72
M  V30 78 1 26 73
M  V30 79 1 28 74
M  V30 80 1 28 75
M  V30 81 1 29 76
M  V30 82 1 29 77
M  V30 83 1 30 78
M  V30 84 1 30 79
M  V30 85 1 32 80
M  V30 86 1 34 81
M  V30 87 1 35 82
M  V30 88 1 36 83
M  V30 89 1 38 84
M  V30 90 1 38 85
M  V30 91 1 40 86
M  V30 92 1 47 87
M  V30 END BOND
M  V30 END CTAB
M  END
>  <Dataset>  (927) 
ChEMBL_Kinases

>  <Ligand_Instance>  (927) 
nan

>  <PDB_ID>  (927) 
nan

>  <Standardized_SMILES>  (927) 
O=C(NCC#Cc1ccc2nccc(OC[C@@H]3CCCN(CCN4CCOCC4)C3)c2c1)c1cccn(Cc2cc(F)c(F)c(F)c2)c1=O

>  <Name>  (927) 
nan

>  <Pocket>  (927) 
nan

>  <ATP_Site>  (927) 
nan

>  <Peripheral>  (927) 
nan

>  <Num_H_Atoms_ProtBoundConf>  (927) 
nan

>  <Num_Resolved_Atoms>  (927) 
nan

>  <Num_Not_Resolved_Atoms>  (927) 
nan

$$$$
CHEMBL3689304
     RDKit          3D

  0  0  0  0  0  0  0  0  0  0999 V3000
M  V30 BEGIN CTAB
M  V30 COUNTS 71 75 0 0 0
M  V30 BEGIN ATOM
M  V30 1 C 1.384071 -1.163912 2.462052 0
M  V30 2 C 1.654972 0.013774 3.404933 0
M  V30 3 C 3.099111 0.337146 3.356118 0
M  V30 4 C 3.893508 0.721102 4.409043 0
M  V30 5 C 5.236008 0.972762 4.218131 0
M  V30 6 C 5.828395 0.848595 2.970293 0
M  V30 7 F 7.149449 1.097826 2.785441 0
M  V30 8 C 5.031702 0.464829 1.923097 0
M  V30 9 F 5.607013 0.344342 0.704735 0
M  V30 10 C 3.689262 0.209689 2.091779 0
M  V30 11 N 0.883253 1.168142 3.029779 0
M  V30 12 C 1.172185 2.466826 2.815949 0
M  V30 13 C 0.102007 3.303322 2.433123 0
M  V30 14 C -1.194539 2.675796 2.312267 0
M  V30 15 C -1.603100 1.236492 2.534367 0
M  V30 16 C -2.895061 1.653683 2.191720 0
M  V30 17 O -3.071494 0.478090 2.662593 0
M  V30 18 N -3.889534 2.482163 1.703270 0
M  V30 19 C -5.222206 1.801801 1.816929 0
M  V30 20 C -5.083087 0.473942 1.151007 0
M  V30 21 C -4.953920 -0.602907 0.626843 0
M  V30 22 C -4.780584 -1.905084 0.015497 0
M  V30 23 C -5.362300 -2.959293 0.635387 0
M  V30 24 C -4.962607 -4.209582 0.172715 0
M  V30 25 C -4.021252 -4.304287 -0.863374 0
M  V30 26 N -3.642207 -5.533611 -1.148944 0
M  V30 27 C -2.656582 -5.794430 -2.067891 0
M  V30 28 C -2.153164 -4.641318 -2.618429 0
M  V30 29 C -2.443279 -3.320338 -2.432246 0
M  V30 30 O -2.020315 -2.272334 -2.929921 0
M  V30 31 C -1.375215 -1.352502 -3.592948 0
M  V30 32 C 0.058726 -0.993958 -3.374199 0 CFG=1
M  V30 33 C 0.308863 -0.448028 -1.954556 0
M  V30 34 C 1.820823 -0.432043 -1.974583 0
M  V30 35 N 2.144246 -1.720644 -2.526036 0
M  V30 36 C 3.387182 -1.600638 -3.270841 0
M  V30 37 C 1.030013 -2.130097 -3.373248 0
M  V30 38 C -3.463530 -3.162827 -1.464607 0
M  V30 39 C -3.853086 -1.905048 -1.015653 0
M  V30 40 C -0.405349 0.892008 2.836121 0
M  V30 41 O -0.878438 -0.328894 2.995268 0
M  V30 42 H 0.796175 -1.934164 2.957581 0
M  V30 43 H 0.877325 -0.776281 1.556218 0
M  V30 44 H 2.370760 -1.654049 2.221249 0
M  V30 45 H 1.321153 -0.294231 4.422825 0
M  V30 46 H 3.350550 0.794921 5.352523 0
M  V30 47 H 5.808572 1.271504 5.075030 0
M  V30 48 H 3.148334 -0.085682 1.208211 0
M  V30 49 H 2.220413 2.602099 2.993373 0
M  V30 50 H 0.613543 4.262527 2.329644 0
M  V30 51 H -1.601293 3.716107 2.017007 0
M  V30 52 H -3.351438 3.317143 1.412797 0
M  V30 53 H -5.940007 2.391189 1.246476 0
M  V30 54 H -5.436826 1.633429 2.858958 0
M  V30 55 H -6.082598 -2.860237 1.432226 0
M  V30 56 H -5.397174 -5.095958 0.629281 0
M  V30 57 H -2.279685 -6.776913 -2.362770 0
M  V30 58 H -1.353955 -4.805037 -3.369596 0
M  V30 59 H -1.942823 -0.339899 -3.663413 0
M  V30 60 H -1.404262 -1.621888 -4.723848 0
M  V30 61 H 0.357677 -0.191525 -4.085229 0
M  V30 62 H -0.010573 -1.158493 -1.180220 0
M  V30 63 H -0.122777 0.570277 -1.857090 0
M  V30 64 H 2.200927 0.328880 -2.715676 0
M  V30 65 H 2.276768 -0.245487 -0.983027 0
M  V30 66 H 3.464231 -0.642301 -3.788638 0
M  V30 67 H 4.223948 -1.631629 -2.532414 0
M  V30 68 H 3.415725 -2.421778 -4.002701 0
M  V30 69 H 1.431950 -2.267339 -4.393739 0
M  V30 70 H 0.568383 -3.071767 -2.970449 0
M  V30 71 H -3.435690 -1.003404 -1.465973 0
M  V30 END ATOM
M  V30 BEGIN BOND
M  V30 1 1 1 2
M  V30 2 1 2 3
M  V30 3 2 3 4
M  V30 4 1 4 5
M  V30 5 2 5 6
M  V30 6 1 6 7
M  V30 7 1 6 8
M  V30 8 1 8 9
M  V30 9 2 8 10
M  V30 10 1 2 11
M  V30 11 1 11 12
M  V30 12 2 12 13
M  V30 13 1 13 14
M  V30 14 2 14 15
M  V30 15 1 15 16
M  V30 16 2 16 17
M  V30 17 1 16 18
M  V30 18 1 18 19
M  V30 19 1 19 20
M  V30 20 3 20 21
M  V30 21 1 21 22
M  V30 22 2 22 23
M  V30 23 1 23 24
M  V30 24 2 24 25
M  V30 25 1 25 26
M  V30 26 2 26 27
M  V30 27 1 27 28
M  V30 28 2 28 29
M  V30 29 1 29 30
M  V30 30 1 30 31
M  V30 31 1 31 32
M  V30 32 1 32 33
M  V30 33 1 33 34
M  V30 34 1 34 35
M  V30 35 1 35 36
M  V30 36 1 35 37
M  V30 37 1 29 38
M  V30 38 2 38 39
M  V30 39 1 15 40
M  V30 40 2 40 41
M  V30 41 1 10 3
M  V30 42 1 40 11
M  V30 43 1 39 22
M  V30 44 1 38 25
M  V30 45 1 37 32
M  V30 46 1 1 42
M  V30 47 1 1 43
M  V30 48 1 1 44
M  V30 49 1 2 45
M  V30 50 1 4 46
M  V30 51 1 5 47
M  V30 52 1 10 48
M  V30 53 1 12 49
M  V30 54 1 13 50
M  V30 55 1 14 51
M  V30 56 1 18 52
M  V30 57 1 19 53
M  V30 58 1 19 54
M  V30 59 1 23 55
M  V30 60 1 24 56
M  V30 61 1 27 57
M  V30 62 1 28 58
M  V30 63 1 31 59
M  V30 64 1 31 60
M  V30 65 1 32 61 CFG=3
M  V30 66 1 33 62
M  V30 67 1 33 63
M  V30 68 1 34 64
M  V30 69 1 34 65
M  V30 70 1 36 66
M  V30 71 1 36 67
M  V30 72 1 36 68
M  V30 73 1 37 69
M  V30 74 1 37 70
M  V30 75 1 39 71
M  V30 END BOND
M  V30 END CTAB
M  END
>  <Dataset>  (928) 
ChEMBL_Kinases

>  <Ligand_Instance>  (928) 
nan

>  <PDB_ID>  (928) 
nan

>  <Standardized_SMILES>  (928) 
CC(c1ccc(F)c(F)c1)n1cccc(C(=O)NCC#Cc2ccc3nccc(OC[C@H]4CCN(C)C4)c3c2)c1=O

>  <Name>  (928) 
nan

>  <Pocket>  (928) 
nan

>  <ATP_Site>  (928) 
nan

>  <Peripheral>  (928) 
nan

>  <Num_H_Atoms_ProtBoundConf>  (928) 
nan

>  <Num_Resolved_Atoms>  (928) 
nan

>  <Num_Not_Resolved_Atoms>  (928) 
nan

$$$$
CHEMBL3689394
     RDKit          3D

  0  0  0  0  0  0  0  0  0  0999 V3000
M  V30 BEGIN CTAB
M  V30 COUNTS 51 55 0 0 0
M  V30 BEGIN ATOM
M  V30 1 C 2.099981 -2.703588 1.488348 0
M  V30 2 C 1.097930 -3.563184 1.890409 0
M  V30 3 C 0.070693 -3.933500 1.037670 0
M  V30 4 C 0.076774 -3.413441 -0.238260 0
M  V30 5 C 1.082265 -2.566091 -0.603094 0
M  V30 6 C 2.139431 -2.165142 0.224520 0
M  V30 7 C 3.190152 -1.247494 -0.268646 0
M  V30 8 N 2.847625 0.100638 0.018810 0
M  V30 9 C 3.783059 1.069048 -0.442437 0
M  V30 10 C 3.526919 2.483574 -0.084351 0
M  V30 11 C 2.067746 2.862433 -0.009850 0
M  V30 12 C 1.251012 1.767720 0.663583 0
M  V30 13 N -0.153205 2.092290 0.564515 0
M  V30 14 C -1.230816 1.437278 1.213935 0
M  V30 15 C -1.093228 0.389790 2.096122 0
M  V30 16 C -2.122171 -0.271003 2.731670 0
M  V30 17 C -3.407395 0.150460 2.464565 0
M  V30 18 N -4.599922 -0.282177 2.918052 0
M  V30 19 N -5.554198 0.455353 2.358803 0
M  V30 20 C -4.975678 1.374248 1.535441 0
M  V30 21 C -3.610003 1.195139 1.590146 0
M  V30 22 C -2.535794 1.810607 0.989575 0
M  V30 23 C 1.481886 0.470384 -0.100021 0
M  V30 24 O -0.941513 -3.768506 -1.113142 0
M  V30 25 C -1.594971 -5.001366 -0.854185 0
M  V30 26 C -2.098463 -4.955522 0.588089 0
M  V30 27 O -0.945093 -4.790940 1.409227 0
M  V30 28 H 2.873762 -2.445144 2.181337 0
M  V30 29 H 1.047701 -3.998765 2.880161 0
M  V30 30 H 1.092963 -2.150229 -1.612131 0
M  V30 31 H 3.427215 -1.430276 -1.345901 0
M  V30 32 H 4.112600 -1.490388 0.310612 0
M  V30 33 H 4.793261 0.781050 -0.046426 0
M  V30 34 H 3.851289 0.946831 -1.553625 0
M  V30 35 H 3.962157 3.110300 -0.913420 0
M  V30 36 H 4.086763 2.757737 0.813121 0
M  V30 37 H 1.987262 3.757295 0.639044 0
M  V30 38 H 1.616103 3.106577 -0.983439 0
M  V30 39 H 1.537466 1.717482 1.712783 0
M  V30 40 H -0.424813 2.908965 -0.059912 0
M  V30 41 H -0.112088 0.022805 2.353947 0
M  V30 42 H -1.956602 -1.089752 3.416435 0
M  V30 43 H -4.707802 -1.083382 3.607224 0
M  V30 44 H -5.459426 2.129530 0.927682 0
M  V30 45 H -2.777779 2.616107 0.321086 0
M  V30 46 H 0.802587 -0.297594 0.231145 0
M  V30 47 H 1.326043 0.758237 -1.179856 0
M  V30 48 H -2.469996 -5.051877 -1.523313 0
M  V30 49 H -0.871971 -5.826969 -1.016963 0
M  V30 50 H -2.686506 -4.016083 0.653227 0
M  V30 51 H -2.655509 -5.856169 0.842347 0
M  V30 END ATOM
M  V30 BEGIN BOND
M  V30 1 2 1 2
M  V30 2 1 2 3
M  V30 3 2 3 4
M  V30 4 1 4 5
M  V30 5 2 5 6
M  V30 6 1 6 7
M  V30 7 1 7 8
M  V30 8 1 8 9
M  V30 9 1 9 10
M  V30 10 1 10 11
M  V30 11 1 11 12
M  V30 12 1 12 13
M  V30 13 1 13 14
M  V30 14 2 14 15
M  V30 15 1 15 16
M  V30 16 2 16 17
M  V30 17 1 17 18
M  V30 18 1 18 19
M  V30 19 2 19 20
M  V30 20 1 20 21
M  V30 21 2 21 22
M  V30 22 1 12 23
M  V30 23 1 4 24
M  V30 24 1 24 25
M  V30 25 1 25 26
M  V30 26 1 26 27
M  V30 27 1 6 1
M  V30 28 1 23 8
M  V30 29 1 27 3
M  V30 30 1 22 14
M  V30 31 1 21 17
M  V30 32 1 1 28
M  V30 33 1 2 29
M  V30 34 1 5 30
M  V30 35 1 7 31
M  V30 36 1 7 32
M  V30 37 1 9 33
M  V30 38 1 9 34
M  V30 39 1 10 35
M  V30 40 1 10 36
M  V30 41 1 11 37
M  V30 42 1 11 38
M  V30 43 1 12 39
M  V30 44 1 13 40
M  V30 45 1 15 41
M  V30 46 1 16 42
M  V30 47 1 18 43
M  V30 48 1 20 44
M  V30 49 1 22 45
M  V30 50 1 23 46
M  V30 51 1 23 47
M  V30 52 1 25 48
M  V30 53 1 25 49
M  V30 54 1 26 50
M  V30 55 1 26 51
M  V30 END BOND
M  V30 END CTAB
M  END
>  <Dataset>  (929) 
ChEMBL_Kinases

>  <Ligand_Instance>  (929) 
nan

>  <PDB_ID>  (929) 
nan

>  <Standardized_SMILES>  (929) 
c1cc2c(cc1CN1CCCC(Nc3ccc4[nH]ncc4c3)C1)OCCO2

>  <Name>  (929) 
nan

>  <Pocket>  (929) 
nan

>  <ATP_Site>  (929) 
nan

>  <Peripheral>  (929) 
nan

>  <Num_H_Atoms_ProtBoundConf>  (929) 
nan

>  <Num_Resolved_Atoms>  (929) 
nan

>  <Num_Not_Resolved_Atoms>  (929) 
nan

$$$$
CHEMBL3689393
     RDKit          3D

  0  0  0  0  0  0  0  0  0  0999 V3000
M  V30 BEGIN CTAB
M  V30 COUNTS 48 52 0 0 0
M  V30 BEGIN ATOM
M  V30 1 C -4.369365 -6.015551 1.060886 0
M  V30 2 C -3.567324 -5.190770 1.855483 0
M  V30 3 C -2.987785 -4.305656 0.968018 0
M  V30 4 C -2.094615 -3.252526 1.172152 0
M  V30 5 C -1.633574 -2.478158 0.110797 0
M  V30 6 C -0.686091 -1.387757 0.461439 0
M  V30 7 N -1.316350 -0.143664 0.761656 0
M  V30 8 C -2.095705 0.422196 -0.271887 0
M  V30 9 C -2.219569 1.900163 -0.322547 0
M  V30 10 C -1.117582 2.690272 0.282656 0
M  V30 11 C 0.063213 1.758674 0.504686 0
M  V30 12 N 1.229664 2.411419 1.010286 0
M  V30 13 C 2.560679 1.978168 1.279566 0
M  V30 14 C 3.555592 2.769809 1.800242 0
M  V30 15 C 4.793555 2.201574 1.991249 0
M  V30 16 C 5.079586 0.889675 1.688134 0
M  V30 17 N 6.237109 0.203904 1.821492 0
M  V30 18 N 5.996135 -1.041725 1.385416 0
M  V30 19 C 4.709676 -1.125189 0.988526 0
M  V30 20 C 4.072768 0.091258 1.161924 0
M  V30 21 C 2.820293 0.646858 0.962863 0
M  V30 22 C -0.482269 0.730436 1.511315 0
M  V30 23 C -2.091750 -2.789439 -1.151444 0
M  V30 24 C -2.974828 -3.834681 -1.332820 0
M  V30 25 C -3.446082 -4.616959 -0.294795 0
M  V30 26 O -4.268576 -5.643044 -0.198383 0
M  V30 27 H -4.980361 -6.841239 1.453442 0
M  V30 28 H -3.453259 -5.262414 2.923462 0
M  V30 29 H -1.772287 -3.062356 2.205777 0
M  V30 30 H -0.048776 -1.681044 1.322168 0
M  V30 31 H 0.041544 -1.219398 -0.375838 0
M  V30 32 H -1.637507 0.110749 -1.255840 0
M  V30 33 H -3.104314 -0.078131 -0.259204 0
M  V30 34 H -3.162366 2.159256 0.245364 0
M  V30 35 H -2.444831 2.281103 -1.358441 0
M  V30 36 H -0.829268 3.508969 -0.405333 0
M  V30 37 H -1.404905 3.104568 1.285607 0
M  V30 38 H 0.234024 1.215523 -0.442115 0
M  V30 39 H 1.080812 3.426477 1.232906 0
M  V30 40 H 3.294673 3.793861 2.025884 0
M  V30 41 H 5.554641 2.845413 2.400754 0
M  V30 42 H 7.136516 0.605397 2.199935 0
M  V30 43 H 4.190220 -1.997601 0.581672 0
M  V30 44 H 2.159040 -0.104028 0.544458 0
M  V30 45 H -1.132536 1.261872 2.249932 0
M  V30 46 H 0.315536 0.156048 1.998025 0
M  V30 47 H -1.725510 -2.182626 -1.953664 0
M  V30 48 H -3.333868 -4.076897 -2.331137 0
M  V30 END ATOM
M  V30 BEGIN BOND
M  V30 1 2 1 2
M  V30 2 1 2 3
M  V30 3 2 3 4
M  V30 4 1 4 5
M  V30 5 1 5 6
M  V30 6 1 6 7
M  V30 7 1 7 8
M  V30 8 1 8 9
M  V30 9 1 9 10
M  V30 10 1 10 11
M  V30 11 1 11 12
M  V30 12 1 12 13
M  V30 13 2 13 14
M  V30 14 1 14 15
M  V30 15 2 15 16
M  V30 16 1 16 17
M  V30 17 1 17 18
M  V30 18 2 18 19
M  V30 19 1 19 20
M  V30 20 2 20 21
M  V30 21 1 11 22
M  V30 22 2 5 23
M  V30 23 1 23 24
M  V30 24 2 24 25
M  V30 25 1 25 26
M  V30 26 1 26 1
M  V30 27 1 25 3
M  V30 28 1 22 7
M  V30 29 1 21 13
M  V30 30 1 20 16
M  V30 31 1 1 27
M  V30 32 1 2 28
M  V30 33 1 4 29
M  V30 34 1 6 30
M  V30 35 1 6 31
M  V30 36 1 8 32
M  V30 37 1 8 33
M  V30 38 1 9 34
M  V30 39 1 9 35
M  V30 40 1 10 36
M  V30 41 1 10 37
M  V30 42 1 11 38
M  V30 43 1 12 39
M  V30 44 1 14 40
M  V30 45 1 15 41
M  V30 46 1 17 42
M  V30 47 1 19 43
M  V30 48 1 21 44
M  V30 49 1 22 45
M  V30 50 1 22 46
M  V30 51 1 23 47
M  V30 52 1 24 48
M  V30 END BOND
M  V30 END CTAB
M  END
>  <Dataset>  (930) 
ChEMBL_Kinases

>  <Ligand_Instance>  (930) 
nan

>  <PDB_ID>  (930) 
nan

>  <Standardized_SMILES>  (930) 
c1cc2cc(CN3CCCC(Nc4ccc5[nH]ncc5c4)C3)ccc2o1

>  <Name>  (930) 
nan

>  <Pocket>  (930) 
nan

>  <ATP_Site>  (930) 
nan

>  <Peripheral>  (930) 
nan

>  <Num_H_Atoms_ProtBoundConf>  (930) 
nan

>  <Num_Resolved_Atoms>  (930) 
nan

>  <Num_Not_Resolved_Atoms>  (930) 
nan

$$$$
CHEMBL3689392
     RDKit          3D

  0  0  0  0  0  0  0  0  0  0999 V3000
M  V30 BEGIN CTAB
M  V30 COUNTS 53 56 0 0 0
M  V30 BEGIN ATOM
M  V30 1 C 0.223736 -1.341270 4.932043 0
M  V30 2 S 1.005202 -2.842362 4.331166 0
M  V30 3 O 0.824317 -3.923802 5.344668 0
M  V30 4 O 0.352496 -3.214895 3.032540 0
M  V30 5 N 2.660285 -2.505330 4.033663 0
M  V30 6 C 3.038078 -1.533988 3.071854 0
M  V30 7 C 4.023679 -0.691107 3.518045 0
M  V30 8 C 4.501486 0.317582 2.685924 0
M  V30 9 C 3.935107 0.401331 1.437193 0
M  V30 10 C 2.952541 -0.404157 0.932356 0
M  V30 11 C 2.329862 -0.328386 -0.395381 0
M  V30 12 N 1.154076 0.460646 -0.451294 0
M  V30 13 C 1.224759 1.819755 -0.127619 0
M  V30 14 C 0.326577 2.296689 0.971093 0
M  V30 15 C -1.026401 1.662737 1.020455 0
M  V30 16 C -1.212066 0.724068 -0.184749 0
M  V30 17 N -2.475076 0.070285 -0.096772 0
M  V30 18 C -3.098155 -0.809835 -1.022890 0
M  V30 19 C -4.333613 -1.416235 -0.827669 0
M  V30 20 C -4.871274 -2.247352 -1.776010 0
M  V30 21 C -4.223180 -2.522698 -2.959448 0
M  V30 22 N -4.570751 -3.290664 -3.992327 0
M  V30 23 N -3.596037 -3.216954 -4.883493 0
M  V30 24 C -2.625161 -2.404384 -4.425151 0
M  V30 25 C -2.990846 -1.932690 -3.181470 0
M  V30 26 C -2.463618 -1.098558 -2.216967 0
M  V30 27 C -0.041496 -0.229502 -0.061798 0
M  V30 28 C 2.508179 -1.400825 1.808098 0
M  V30 29 H 0.692285 -1.067159 5.901432 0
M  V30 30 H 0.369443 -0.551376 4.183295 0
M  V30 31 H -0.841635 -1.539693 5.147584 0
M  V30 32 H 3.374114 -3.046392 4.591243 0
M  V30 33 H 4.490049 -0.741769 4.514177 0
M  V30 34 H 5.277728 0.995316 3.012910 0
M  V30 35 H 4.317631 1.179524 0.805822 0
M  V30 36 H 3.040603 -0.019054 -1.189684 0
M  V30 37 H 2.032473 -1.376144 -0.687421 0
M  V30 38 H 2.263382 2.116778 0.102530 0
M  V30 39 H 0.972249 2.411750 -1.057008 0
M  V30 40 H 0.156616 3.388074 0.812669 0
M  V30 41 H 0.844904 2.245015 1.955358 0
M  V30 42 H -1.112145 1.029410 1.916866 0
M  V30 43 H -1.877488 2.370509 1.012565 0
M  V30 44 H -1.146154 1.346826 -1.090321 0
M  V30 45 H -3.071032 0.236366 0.770228 0
M  V30 46 H -4.850552 -1.203743 0.102994 0
M  V30 47 H -5.841890 -2.693728 -1.567987 0
M  V30 48 H -5.428099 -3.869999 -4.145372 0
M  V30 49 H -1.687308 -2.130654 -4.913117 0
M  V30 50 H -1.510931 -0.707819 -2.520526 0
M  V30 51 H -0.006986 -0.532096 1.018709 0
M  V30 52 H -0.139531 -1.153403 -0.645562 0
M  V30 53 H 1.735632 -2.098622 1.520157 0
M  V30 END ATOM
M  V30 BEGIN BOND
M  V30 1 1 1 2
M  V30 2 2 2 3
M  V30 3 2 2 4
M  V30 4 1 2 5
M  V30 5 1 5 6
M  V30 6 2 6 7
M  V30 7 1 7 8
M  V30 8 2 8 9
M  V30 9 1 9 10
M  V30 10 1 10 11
M  V30 11 1 11 12
M  V30 12 1 12 13
M  V30 13 1 13 14
M  V30 14 1 14 15
M  V30 15 1 15 16
M  V30 16 1 16 17
M  V30 17 1 17 18
M  V30 18 2 18 19
M  V30 19 1 19 20
M  V30 20 2 20 21
M  V30 21 1 21 22
M  V30 22 1 22 23
M  V30 23 2 23 24
M  V30 24 1 24 25
M  V30 25 2 25 26
M  V30 26 1 16 27
M  V30 27 2 10 28
M  V30 28 1 28 6
M  V30 29 1 27 12
M  V30 30 1 26 18
M  V30 31 1 25 21
M  V30 32 1 1 29
M  V30 33 1 1 30
M  V30 34 1 1 31
M  V30 35 1 5 32
M  V30 36 1 7 33
M  V30 37 1 8 34
M  V30 38 1 9 35
M  V30 39 1 11 36
M  V30 40 1 11 37
M  V30 41 1 13 38
M  V30 42 1 13 39
M  V30 43 1 14 40
M  V30 44 1 14 41
M  V30 45 1 15 42
M  V30 46 1 15 43
M  V30 47 1 16 44
M  V30 48 1 17 45
M  V30 49 1 19 46
M  V30 50 1 20 47
M  V30 51 1 22 48
M  V30 52 1 24 49
M  V30 53 1 26 50
M  V30 54 1 27 51
M  V30 55 1 27 52
M  V30 56 1 28 53
M  V30 END BOND
M  V30 END CTAB
M  END
>  <Dataset>  (931) 
ChEMBL_Kinases

>  <Ligand_Instance>  (931) 
nan

>  <PDB_ID>  (931) 
nan

>  <Standardized_SMILES>  (931) 
CS(=O)(=O)Nc1cccc(CN2CCCC(Nc3ccc4[nH]ncc4c3)C2)c1

>  <Name>  (931) 
nan

>  <Pocket>  (931) 
nan

>  <ATP_Site>  (931) 
nan

>  <Peripheral>  (931) 
nan

>  <Num_H_Atoms_ProtBoundConf>  (931) 
nan

>  <Num_Resolved_Atoms>  (931) 
nan

>  <Num_Not_Resolved_Atoms>  (931) 
nan

$$$$
CHEMBL3689391
     RDKit          3D

  0  0  0  0  0  0  0  0  0  0999 V3000
M  V30 BEGIN CTAB
M  V30 COUNTS 47 50 0 0 0
M  V30 BEGIN ATOM
M  V30 1 N -0.965005 -4.611316 0.322274 0
M  V30 2 C 0.350431 -4.549336 0.873371 0
M  V30 3 N 1.013838 -5.515047 1.556395 0
M  V30 4 N 2.214090 -5.093476 1.910924 0
M  V30 5 C 2.314555 -3.837657 1.444668 0
M  V30 6 C 3.344567 -2.925923 1.525448 0
M  V30 7 C 3.304250 -1.661146 0.994037 0
M  V30 8 C 2.153126 -1.250137 0.322924 0
M  V30 9 N 1.962428 0.032164 -0.296491 0
M  V30 10 C 0.860206 0.631170 -0.990986 0
M  V30 11 C 1.330502 1.968030 -1.544787 0
M  V30 12 C 1.425366 3.011406 -0.468143 0
M  V30 13 C 1.132549 2.556968 0.909670 0
M  V30 14 N 0.097599 1.583381 1.068366 0
M  V30 15 C -0.938967 1.919753 1.987453 0
M  V30 16 C -1.951980 0.847894 2.073843 0
M  V30 17 C -1.895877 -0.211831 2.968180 0
M  V30 18 C -2.921104 -1.148648 2.936733 0
M  V30 19 C -3.969357 -1.034407 2.043211 0
M  V30 20 C -4.040708 0.022070 1.139821 0
M  V30 21 C -3.013273 0.961734 1.170667 0
M  V30 22 C -0.328505 0.948254 -0.122742 0
M  V30 23 C 1.119755 -2.184061 0.249345 0
M  V30 24 C 1.167597 -3.451797 0.785411 0
M  V30 25 H -1.724199 -4.458434 1.007486 0
M  V30 26 H -1.157431 -4.795928 -0.691883 0
M  V30 27 H 2.944218 -5.627680 2.447845 0
M  V30 28 H 4.291892 -3.139515 2.027123 0
M  V30 29 H 4.100948 -0.951208 1.054615 0
M  V30 30 H 2.857704 0.601145 -0.178744 0
M  V30 31 H 0.579582 -0.003854 -1.837869 0
M  V30 32 H 2.289672 1.790247 -2.073842 0
M  V30 33 H 0.594776 2.265245 -2.330315 0
M  V30 34 H 0.864936 3.920997 -0.803821 0
M  V30 35 H 2.500472 3.358790 -0.467818 0
M  V30 36 H 0.821056 3.474488 1.490371 0
M  V30 37 H 2.041851 2.188874 1.424285 0
M  V30 38 H -1.441355 2.877613 1.834242 0
M  V30 39 H -0.455916 1.979319 3.002573 0
M  V30 40 H -1.050048 -0.242765 3.639949 0
M  V30 41 H -2.830511 -1.960180 3.658036 0
M  V30 42 H -4.760842 -1.799081 2.052232 0
M  V30 43 H -4.849554 0.131001 0.433668 0
M  V30 44 H -3.091196 1.778553 0.454814 0
M  V30 45 H -0.975332 1.627851 -0.718874 0
M  V30 46 H -0.892416 0.048808 0.083270 0
M  V30 47 H 0.165699 -2.016599 -0.245340 0
M  V30 END ATOM
M  V30 BEGIN BOND
M  V30 1 1 1 2
M  V30 2 2 2 3
M  V30 3 1 3 4
M  V30 4 1 4 5
M  V30 5 2 5 6
M  V30 6 1 6 7
M  V30 7 2 7 8
M  V30 8 1 8 9
M  V30 9 1 9 10
M  V30 10 1 10 11
M  V30 11 1 11 12
M  V30 12 1 12 13
M  V30 13 1 13 14
M  V30 14 1 14 15
M  V30 15 1 15 16
M  V30 16 2 16 17
M  V30 17 1 17 18
M  V30 18 2 18 19
M  V30 19 1 19 20
M  V30 20 2 20 21
M  V30 21 1 14 22
M  V30 22 1 8 23
M  V30 23 2 23 24
M  V30 24 1 24 2
M  V30 25 1 24 5
M  V30 26 1 22 10
M  V30 27 1 21 16
M  V30 28 1 1 25
M  V30 29 1 1 26
M  V30 30 1 4 27
M  V30 31 1 6 28
M  V30 32 1 7 29
M  V30 33 1 9 30
M  V30 34 1 10 31
M  V30 35 1 11 32
M  V30 36 1 11 33
M  V30 37 1 12 34
M  V30 38 1 12 35
M  V30 39 1 13 36
M  V30 40 1 13 37
M  V30 41 1 15 38
M  V30 42 1 15 39
M  V30 43 1 17 40
M  V30 44 1 18 41
M  V30 45 1 19 42
M  V30 46 1 20 43
M  V30 47 1 21 44
M  V30 48 1 22 45
M  V30 49 1 22 46
M  V30 50 1 23 47
M  V30 END BOND
M  V30 END CTAB
M  END
>  <Dataset>  (932) 
ChEMBL_Kinases

>  <Ligand_Instance>  (932) 
nan

>  <PDB_ID>  (932) 
nan

>  <Standardized_SMILES>  (932) 
Nc1n[nH]c2ccc(NC3CCCN(Cc4ccccc4)C3)cc12

>  <Name>  (932) 
nan

>  <Pocket>  (932) 
nan

>  <ATP_Site>  (932) 
nan

>  <Peripheral>  (932) 
nan

>  <Num_H_Atoms_ProtBoundConf>  (932) 
nan

>  <Num_Resolved_Atoms>  (932) 
nan

>  <Num_Not_Resolved_Atoms>  (932) 
nan

$$$$
CHEMBL3689390
     RDKit          3D

  0  0  0  0  0  0  0  0  0  0999 V3000
M  V30 BEGIN CTAB
M  V30 COUNTS 51 54 0 0 0
M  V30 BEGIN ATOM
M  V30 1 C -0.266827 -4.444059 2.419071 0
M  V30 2 S 0.956365 -4.731497 1.162071 0
M  V30 3 O 0.671308 -6.073118 0.529388 0
M  V30 4 O 2.312198 -4.758295 1.830970 0
M  V30 5 C 0.914834 -3.526737 -0.077212 0
M  V30 6 C 0.130608 -3.651565 -1.208733 0
M  V30 7 C 0.155202 -2.645105 -2.150154 0
M  V30 8 C 0.967258 -1.528354 -1.940540 0
M  V30 9 C 1.764462 -1.383669 -0.807445 0
M  V30 10 C 2.576130 -0.156456 -0.716641 0
M  V30 11 N 1.903449 0.958402 -0.096183 0
M  V30 12 C 2.783090 2.077668 -0.047226 0
M  V30 13 C 2.829454 2.811201 1.260691 0
M  V30 14 C 1.482058 2.984144 1.902717 0
M  V30 15 C 0.677923 1.695827 1.892574 0
M  V30 16 N -0.539596 1.817161 1.138418 0
M  V30 17 C -1.714052 1.017703 0.924689 0
M  V30 18 C -2.752815 1.387868 0.072939 0
M  V30 19 C -3.810713 0.515402 0.000047 0
M  V30 20 C -3.908656 -0.667300 0.694035 0
M  V30 21 N -4.883179 -1.592845 0.704157 0
M  V30 22 N -4.498195 -2.544966 1.538202 0
M  V30 23 C -3.295320 -2.236600 2.056100 0
M  V30 24 C -2.866107 -1.029324 1.543100 0
M  V30 25 C -1.785021 -0.178089 1.643498 0
M  V30 26 C 1.512358 0.595357 1.248564 0
M  V30 27 C 1.709155 -2.414348 0.108172 0
M  V30 28 H 0.009625 -4.966556 3.362127 0
M  V30 29 H -0.364566 -3.342952 2.636966 0
M  V30 30 H -1.280895 -4.779786 2.121403 0
M  V30 31 H -0.478872 -4.544298 -1.312889 0
M  V30 32 H -0.460132 -2.749051 -3.032371 0
M  V30 33 H 0.907082 -0.796410 -2.749967 0
M  V30 34 H 2.889418 0.137142 -1.756755 0
M  V30 35 H 3.524532 -0.422767 -0.185685 0
M  V30 36 H 2.505777 2.773156 -0.894842 0
M  V30 37 H 3.811616 1.742561 -0.305056 0
M  V30 38 H 3.233695 3.835229 1.085218 0
M  V30 39 H 3.506758 2.324695 1.981876 0
M  V30 40 H 0.930869 3.827840 1.445018 0
M  V30 41 H 1.676272 3.257521 2.958888 0
M  V30 42 H 0.425090 1.402261 2.923799 0
M  V30 43 H -0.597603 2.718765 0.598869 0
M  V30 44 H -2.665496 2.315117 -0.464842 0
M  V30 45 H -4.598502 0.841383 -0.674632 0
M  V30 46 H -5.766731 -1.526764 0.137661 0
M  V30 47 H -2.699181 -2.805157 2.771602 0
M  V30 48 H -1.077741 -0.582687 2.333095 0
M  V30 49 H 2.463630 0.579026 1.837145 0
M  V30 50 H 0.996808 -0.357112 1.293512 0
M  V30 51 H 2.330878 -2.306266 0.989253 0
M  V30 END ATOM
M  V30 BEGIN BOND
M  V30 1 1 1 2
M  V30 2 2 2 3
M  V30 3 2 2 4
M  V30 4 1 2 5
M  V30 5 2 5 6
M  V30 6 1 6 7
M  V30 7 2 7 8
M  V30 8 1 8 9
M  V30 9 1 9 10
M  V30 10 1 10 11
M  V30 11 1 11 12
M  V30 12 1 12 13
M  V30 13 1 13 14
M  V30 14 1 14 15
M  V30 15 1 15 16
M  V30 16 1 16 17
M  V30 17 2 17 18
M  V30 18 1 18 19
M  V30 19 2 19 20
M  V30 20 1 20 21
M  V30 21 1 21 22
M  V30 22 2 22 23
M  V30 23 1 23 24
M  V30 24 2 24 25
M  V30 25 1 15 26
M  V30 26 2 9 27
M  V30 27 1 27 5
M  V30 28 1 26 11
M  V30 29 1 25 17
M  V30 30 1 24 20
M  V30 31 1 1 28
M  V30 32 1 1 29
M  V30 33 1 1 30
M  V30 34 1 6 31
M  V30 35 1 7 32
M  V30 36 1 8 33
M  V30 37 1 10 34
M  V30 38 1 10 35
M  V30 39 1 12 36
M  V30 40 1 12 37
M  V30 41 1 13 38
M  V30 42 1 13 39
M  V30 43 1 14 40
M  V30 44 1 14 41
M  V30 45 1 15 42
M  V30 46 1 16 43
M  V30 47 1 18 44
M  V30 48 1 19 45
M  V30 49 1 21 46
M  V30 50 1 23 47
M  V30 51 1 25 48
M  V30 52 1 26 49
M  V30 53 1 26 50
M  V30 54 1 27 51
M  V30 END BOND
M  V30 END CTAB
M  END
>  <Dataset>  (933) 
ChEMBL_Kinases

>  <Ligand_Instance>  (933) 
nan

>  <PDB_ID>  (933) 
nan

>  <Standardized_SMILES>  (933) 
CS(=O)(=O)c1cccc(CN2CCCC(Nc3ccc4[nH]ncc4c3)C2)c1

>  <Name>  (933) 
nan

>  <Pocket>  (933) 
nan

>  <ATP_Site>  (933) 
nan

>  <Peripheral>  (933) 
nan

>  <Num_H_Atoms_ProtBoundConf>  (933) 
nan

>  <Num_Resolved_Atoms>  (933) 
nan

>  <Num_Not_Resolved_Atoms>  (933) 
nan

$$$$
CHEMBL3689389
     RDKit          3D

  0  0  0  0  0  0  0  0  0  0999 V3000
M  V30 BEGIN CTAB
M  V30 COUNTS 47 50 0 0 0
M  V30 BEGIN ATOM
M  V30 1 C -1.277378 -4.690815 3.250413 0
M  V30 2 C -0.240045 -4.428377 2.692320 0
M  V30 3 C 0.993127 -4.120163 2.021645 0
M  V30 4 C 2.198304 -4.707657 2.334386 0
M  V30 5 C 3.325197 -4.349512 1.638170 0
M  V30 6 C 3.288075 -3.399889 0.613693 0
M  V30 7 C 2.085874 -2.787165 0.272658 0
M  V30 8 C 2.010494 -1.778030 -0.806266 0
M  V30 9 N 2.224360 -0.427366 -0.320383 0
M  V30 10 C 2.123301 0.447671 -1.474679 0
M  V30 11 C 2.415907 1.885286 -1.085856 0
M  V30 12 C 2.343110 2.062265 0.418170 0
M  V30 13 C 1.150800 1.330973 1.000295 0
M  V30 14 N -0.091345 1.944559 0.627087 0
M  V30 15 C -1.382221 1.520146 1.039088 0
M  V30 16 C -1.612894 0.448488 1.874377 0
M  V30 17 C -2.860160 0.021552 2.282066 0
M  V30 18 C -3.954827 0.720727 1.817979 0
M  V30 19 N -5.280995 0.584150 2.008586 0
M  V30 20 N -5.917699 1.524455 1.330250 0
M  V30 21 C -5.051332 2.314199 0.669589 0
M  V30 22 C -3.790188 1.803372 0.978689 0
M  V30 23 C -2.514984 2.177690 0.609398 0
M  V30 24 C 1.171034 -0.133530 0.626597 0
M  V30 25 C 0.994595 -3.193809 1.012040 0
M  V30 26 H -2.203273 -4.923087 3.735483 0
M  V30 27 H 2.205113 -5.443126 3.133786 0
M  V30 28 H 4.276607 -4.827574 1.900603 0
M  V30 29 H 4.195846 -3.142705 0.086973 0
M  V30 30 H 0.947099 -1.806600 -1.185466 0
M  V30 31 H 2.676337 -2.037261 -1.651859 0
M  V30 32 H 2.796234 0.097328 -2.279973 0
M  V30 33 H 1.076381 0.404552 -1.828789 0
M  V30 34 H 1.761271 2.614287 -1.565988 0
M  V30 35 H 3.460536 2.110677 -1.383223 0
M  V30 36 H 3.273321 1.725444 0.889440 0
M  V30 37 H 2.189772 3.142342 0.618020 0
M  V30 38 H 1.240149 1.389896 2.105947 0
M  V30 39 H -0.032257 2.775294 -0.002806 0
M  V30 40 H -0.787413 -0.117511 2.256891 0
M  V30 41 H -2.995305 -0.827847 2.940930 0
M  V30 42 H -5.769747 -0.133396 2.589484 0
M  V30 43 H -5.250241 3.167252 0.029615 0
M  V30 44 H -2.452577 3.029102 -0.046291 0
M  V30 45 H 0.214188 -0.387875 0.101192 0
M  V30 46 H 1.369442 -0.806439 1.498608 0
M  V30 47 H 0.048493 -2.716244 0.748706 0
M  V30 END ATOM
M  V30 BEGIN BOND
M  V30 1 3 1 2
M  V30 2 1 2 3
M  V30 3 2 3 4
M  V30 4 1 4 5
M  V30 5 2 5 6
M  V30 6 1 6 7
M  V30 7 1 7 8
M  V30 8 1 8 9
M  V30 9 1 9 10
M  V30 10 1 10 11
M  V30 11 1 11 12
M  V30 12 1 12 13
M  V30 13 1 13 14
M  V30 14 1 14 15
M  V30 15 2 15 16
M  V30 16 1 16 17
M  V30 17 2 17 18
M  V30 18 1 18 19
M  V30 19 1 19 20
M  V30 20 2 20 21
M  V30 21 1 21 22
M  V30 22 2 22 23
M  V30 23 1 13 24
M  V30 24 2 7 25
M  V30 25 1 25 3
M  V30 26 1 24 9
M  V30 27 1 23 15
M  V30 28 1 22 18
M  V30 29 1 1 26
M  V30 30 1 4 27
M  V30 31 1 5 28
M  V30 32 1 6 29
M  V30 33 1 8 30
M  V30 34 1 8 31
M  V30 35 1 10 32
M  V30 36 1 10 33
M  V30 37 1 11 34
M  V30 38 1 11 35
M  V30 39 1 12 36
M  V30 40 1 12 37
M  V30 41 1 13 38
M  V30 42 1 14 39
M  V30 43 1 16 40
M  V30 44 1 17 41
M  V30 45 1 19 42
M  V30 46 1 21 43
M  V30 47 1 23 44
M  V30 48 1 24 45
M  V30 49 1 24 46
M  V30 50 1 25 47
M  V30 END BOND
M  V30 END CTAB
M  END
>  <Dataset>  (934) 
ChEMBL_Kinases

>  <Ligand_Instance>  (934) 
nan

>  <PDB_ID>  (934) 
nan

>  <Standardized_SMILES>  (934) 
C#Cc1cccc(CN2CCCC(Nc3ccc4[nH]ncc4c3)C2)c1

>  <Name>  (934) 
nan

>  <Pocket>  (934) 
nan

>  <ATP_Site>  (934) 
nan

>  <Peripheral>  (934) 
nan

>  <Num_H_Atoms_ProtBoundConf>  (934) 
nan

>  <Num_Resolved_Atoms>  (934) 
nan

>  <Num_Not_Resolved_Atoms>  (934) 
nan

$$$$
CHEMBL3689388
     RDKit          3D

  0  0  0  0  0  0  0  0  0  0999 V3000
M  V30 BEGIN CTAB
M  V30 COUNTS 46 49 0 0 0
M  V30 BEGIN ATOM
M  V30 1 O -1.775999 -5.026490 0.038829 0
M  V30 2 C -0.779241 -4.459106 -0.745508 0
M  V30 3 C -0.659235 -4.859688 -2.074023 0
M  V30 4 C 0.328685 -4.298675 -2.854936 0
M  V30 5 C 1.156579 -3.358429 -2.272074 0
M  V30 6 C 1.052351 -2.943831 -0.942724 0
M  V30 7 C 2.041879 -1.913152 -0.491054 0
M  V30 8 N 1.593636 -0.573891 -0.680310 0
M  V30 9 C 1.312118 -0.243138 -2.055767 0
M  V30 10 C 0.858068 1.149289 -2.270572 0
M  V30 11 C -0.035844 1.731967 -1.220074 0
M  V30 12 C 0.440601 1.322574 0.175202 0
M  V30 13 N -0.491908 1.688813 1.191487 0
M  V30 14 C -0.298347 1.518416 2.589564 0
M  V30 15 C 0.843981 0.987464 3.149946 0
M  V30 16 C 1.038600 0.812781 4.504472 0
M  V30 17 C 0.016287 1.198351 5.346262 0
M  V30 18 N -0.060311 1.141793 6.688268 0
M  V30 19 N -1.249232 1.629886 7.074387 0
M  V30 20 C -1.940261 2.002935 5.961410 0
M  V30 21 C -1.155322 1.737487 4.856358 0
M  V30 22 C -1.277411 1.881493 3.490010 0
M  V30 23 C 0.474978 -0.193080 0.123507 0
M  V30 24 C 0.057937 -3.518182 -0.182074 0
M  V30 25 H -1.624871 -5.292706 1.007069 0
M  V30 26 H -1.327852 -5.604134 -2.505494 0
M  V30 27 H 0.466773 -4.574643 -3.896800 0
M  V30 28 H 1.921258 -2.937402 -2.911296 0
M  V30 29 H 3.016643 -2.051783 -0.954450 0
M  V30 30 H 2.139448 -2.058675 0.620974 0
M  V30 31 H 0.551852 -0.963190 -2.438842 0
M  V30 32 H 2.219725 -0.408694 -2.690067 0
M  V30 33 H 0.251002 1.146824 -3.222642 0
M  V30 34 H 1.715742 1.825249 -2.457513 0
M  V30 35 H -1.106273 1.489032 -1.352392 0
M  V30 36 H 0.064682 2.836698 -1.261160 0
M  V30 37 H 1.409059 1.789397 0.336569 0
M  V30 38 H -1.383474 2.114613 0.872542 0
M  V30 39 H 1.661595 0.681456 2.526396 0
M  V30 40 H 1.951777 0.390607 4.915571 0
M  V30 41 H 0.672868 0.779943 7.360990 0
M  V30 42 H -2.914722 2.427411 5.912366 0
M  V30 43 H -2.217464 2.309889 3.159733 0
M  V30 44 H -0.445137 -0.496278 -0.460966 0
M  V30 45 H 0.371050 -0.687513 1.086118 0
M  V30 46 H 0.002024 -3.178158 0.840610 0
M  V30 END ATOM
M  V30 BEGIN BOND
M  V30 1 1 1 2
M  V30 2 2 2 3
M  V30 3 1 3 4
M  V30 4 2 4 5
M  V30 5 1 5 6
M  V30 6 1 6 7
M  V30 7 1 7 8
M  V30 8 1 8 9
M  V30 9 1 9 10
M  V30 10 1 10 11
M  V30 11 1 11 12
M  V30 12 1 12 13
M  V30 13 1 13 14
M  V30 14 2 14 15
M  V30 15 1 15 16
M  V30 16 2 16 17
M  V30 17 1 17 18
M  V30 18 1 18 19
M  V30 19 2 19 20
M  V30 20 1 20 21
M  V30 21 2 21 22
M  V30 22 1 12 23
M  V30 23 2 6 24
M  V30 24 1 24 2
M  V30 25 1 23 8
M  V30 26 1 22 14
M  V30 27 1 21 17
M  V30 28 1 1 25
M  V30 29 1 3 26
M  V30 30 1 4 27
M  V30 31 1 5 28
M  V30 32 1 7 29
M  V30 33 1 7 30
M  V30 34 1 9 31
M  V30 35 1 9 32
M  V30 36 1 10 33
M  V30 37 1 10 34
M  V30 38 1 11 35
M  V30 39 1 11 36
M  V30 40 1 12 37
M  V30 41 1 13 38
M  V30 42 1 15 39
M  V30 43 1 16 40
M  V30 44 1 18 41
M  V30 45 1 20 42
M  V30 46 1 22 43
M  V30 47 1 23 44
M  V30 48 1 23 45
M  V30 49 1 24 46
M  V30 END BOND
M  V30 END CTAB
M  END
>  <Dataset>  (935) 
ChEMBL_Kinases

>  <Ligand_Instance>  (935) 
nan

>  <PDB_ID>  (935) 
nan

>  <Standardized_SMILES>  (935) 
Oc1cccc(CN2CCCC(Nc3ccc4[nH]ncc4c3)C2)c1

>  <Name>  (935) 
nan

>  <Pocket>  (935) 
nan

>  <ATP_Site>  (935) 
nan

>  <Peripheral>  (935) 
nan

>  <Num_H_Atoms_ProtBoundConf>  (935) 
nan

>  <Num_Resolved_Atoms>  (935) 
nan

>  <Num_Not_Resolved_Atoms>  (935) 
nan

$$$$
CHEMBL3689387
     RDKit          3D

  0  0  0  0  0  0  0  0  0  0999 V3000
M  V30 BEGIN CTAB
M  V30 COUNTS 45 48 0 0 0
M  V30 BEGIN ATOM
M  V30 1 Br 1.455185 -3.585082 3.717211 0
M  V30 2 C 1.064878 -3.679282 1.871407 0
M  V30 3 C 0.209334 -4.650291 1.400592 0
M  V30 4 C -0.040374 -4.681624 0.046154 0
M  V30 5 C 0.567461 -3.752179 -0.776172 0
M  V30 6 C 1.427175 -2.775239 -0.308345 0
M  V30 7 C 1.946732 -1.937342 -1.412441 0
M  V30 8 N 1.140787 -0.857238 -1.788406 0
M  V30 9 C 1.528393 -0.022200 -2.846466 0
M  V30 10 C 1.651640 1.436529 -2.570986 0
M  V30 11 C 0.599366 1.944469 -1.614658 0
M  V30 12 C 0.654467 1.104430 -0.346913 0
M  V30 13 N -0.351179 1.532316 0.581739 0
M  V30 14 C -0.577424 1.172809 1.936610 0
M  V30 15 C 0.213164 0.308957 2.659872 0
M  V30 16 C -0.002640 -0.049498 3.970966 0
M  V30 17 C -1.091745 0.496985 4.608667 0
M  V30 18 N -1.630152 0.406792 5.838626 0
M  V30 19 N -2.712440 1.152691 5.957701 0
M  V30 20 C -2.935446 1.777602 4.786224 0
M  V30 21 C -1.918633 1.368505 3.934030 0
M  V30 22 C -1.651009 1.688003 2.625358 0
M  V30 23 C 0.305022 -0.323785 -0.804220 0
M  V30 24 C 1.670677 -2.754418 1.060347 0
M  V30 25 H -0.231013 -5.344808 2.098496 0
M  V30 26 H -0.715327 -5.458009 -0.275236 0
M  V30 27 H 0.268181 -3.909744 -1.820586 0
M  V30 28 H 2.967324 -1.583274 -1.045594 0
M  V30 29 H 2.249131 -2.601153 -2.283519 0
M  V30 30 H 0.763970 -0.145689 -3.672850 0
M  V30 31 H 2.476457 -0.350061 -3.324450 0
M  V30 32 H 2.649178 1.682573 -2.212451 0
M  V30 33 H 1.480095 1.987538 -3.531392 0
M  V30 34 H -0.408401 1.993346 -2.041555 0
M  V30 35 H 0.893203 2.973781 -1.323145 0
M  V30 36 H 1.639419 1.161165 0.100680 0
M  V30 37 H -1.042102 2.234392 0.189607 0
M  V30 38 H 1.079961 -0.135981 2.202305 0
M  V30 39 H 0.622202 -0.725545 4.530192 0
M  V30 40 H -1.269301 -0.168109 6.626875 0
M  V30 41 H -3.744304 2.459643 4.558994 0
M  V30 42 H -2.343870 2.388694 2.135239 0
M  V30 43 H -0.760899 -0.244540 -1.146957 0
M  V30 44 H 0.379034 -0.949677 0.104861 0
M  V30 45 H 2.352655 -1.959458 1.323735 0
M  V30 END ATOM
M  V30 BEGIN BOND
M  V30 1 1 1 2
M  V30 2 2 2 3
M  V30 3 1 3 4
M  V30 4 2 4 5
M  V30 5 1 5 6
M  V30 6 1 6 7
M  V30 7 1 7 8
M  V30 8 1 8 9
M  V30 9 1 9 10
M  V30 10 1 10 11
M  V30 11 1 11 12
M  V30 12 1 12 13
M  V30 13 1 13 14
M  V30 14 2 14 15
M  V30 15 1 15 16
M  V30 16 2 16 17
M  V30 17 1 17 18
M  V30 18 1 18 19
M  V30 19 2 19 20
M  V30 20 1 20 21
M  V30 21 2 21 22
M  V30 22 1 12 23
M  V30 23 2 6 24
M  V30 24 1 24 2
M  V30 25 1 23 8
M  V30 26 1 22 14
M  V30 27 1 21 17
M  V30 28 1 3 25
M  V30 29 1 4 26
M  V30 30 1 5 27
M  V30 31 1 7 28
M  V30 32 1 7 29
M  V30 33 1 9 30
M  V30 34 1 9 31
M  V30 35 1 10 32
M  V30 36 1 10 33
M  V30 37 1 11 34
M  V30 38 1 11 35
M  V30 39 1 12 36
M  V30 40 1 13 37
M  V30 41 1 15 38
M  V30 42 1 16 39
M  V30 43 1 18 40
M  V30 44 1 20 41
M  V30 45 1 22 42
M  V30 46 1 23 43
M  V30 47 1 23 44
M  V30 48 1 24 45
M  V30 END BOND
M  V30 END CTAB
M  END
>  <Dataset>  (936) 
ChEMBL_Kinases

>  <Ligand_Instance>  (936) 
nan

>  <PDB_ID>  (936) 
nan

>  <Standardized_SMILES>  (936) 
Brc1cccc(CN2CCCC(Nc3ccc4[nH]ncc4c3)C2)c1

>  <Name>  (936) 
nan

>  <Pocket>  (936) 
nan

>  <ATP_Site>  (936) 
nan

>  <Peripheral>  (936) 
nan

>  <Num_H_Atoms_ProtBoundConf>  (936) 
nan

>  <Num_Resolved_Atoms>  (936) 
nan

>  <Num_Not_Resolved_Atoms>  (936) 
nan

$$$$
CHEMBL3689386
     RDKit          3D

  0  0  0  0  0  0  0  0  0  0999 V3000
M  V30 BEGIN CTAB
M  V30 COUNTS 54 58 0 0 0
M  V30 BEGIN ATOM
M  V30 1 C 0.667574 -2.643573 4.481041 0
M  V30 2 C 0.228011 -3.056582 5.530249 0
M  V30 3 C -0.316747 -3.559438 6.815099 0
M  V30 4 C -1.865993 -3.757011 6.838402 0
M  V30 5 C -1.192452 -2.698096 7.624032 0
M  V30 6 C 1.167572 -2.149681 3.224544 0
M  V30 7 C 2.275885 -1.329573 3.125706 0
M  V30 8 C 2.737417 -0.868334 1.908015 0
M  V30 9 C 2.101710 -1.212923 0.731042 0
M  V30 10 C 2.464964 -0.799410 -0.649242 0
M  V30 11 N 1.780687 0.380392 -1.043759 0
M  V30 12 C 2.005222 1.563244 -0.296108 0
M  V30 13 C 2.293664 2.754173 -1.189234 0
M  V30 14 C 1.211413 2.957497 -2.195108 0
M  V30 15 C 0.527684 1.661359 -2.602560 0
M  V30 16 N -0.646002 1.455110 -1.796622 0
M  V30 17 C -1.696794 0.466527 -1.799099 0
M  V30 18 C -2.754909 0.433030 -0.891775 0
M  V30 19 C -3.673479 -0.574054 -1.046943 0
M  V30 20 C -3.628002 -1.541685 -2.020135 0
M  V30 21 N -4.450887 -2.573372 -2.284093 0
M  V30 22 N -3.952142 -3.203293 -3.334476 0
M  V30 23 C -2.822119 -2.587899 -3.744735 0
M  V30 24 C -2.581404 -1.509605 -2.918774 0
M  V30 25 C -1.637705 -0.504931 -2.788377 0
M  V30 26 C 1.575947 0.577335 -2.438703 0
M  V30 27 C 0.983821 -2.045960 0.886359 0
M  V30 28 C 0.488468 -2.529984 2.083376 0
M  V30 29 H 0.236824 -4.431565 7.240361 0
M  V30 30 H -2.375907 -3.448122 5.905491 0
M  V30 31 H -2.235890 -4.693445 7.257476 0
M  V30 32 H -1.219084 -2.824283 8.721484 0
M  V30 33 H -1.285850 -1.650215 7.267896 0
M  V30 34 H 2.794548 -1.042227 4.030662 0
M  V30 35 H 3.588382 -0.241689 1.816385 0
M  V30 36 H 3.571666 -0.709130 -0.694164 0
M  V30 37 H 2.128832 -1.615737 -1.340403 0
M  V30 38 H 1.097919 1.738542 0.352260 0
M  V30 39 H 2.847991 1.532762 0.424639 0
M  V30 40 H 3.259422 2.521829 -1.694147 0
M  V30 41 H 2.413489 3.643775 -0.507382 0
M  V30 42 H 1.572252 3.514067 -3.092024 0
M  V30 43 H 0.432578 3.611493 -1.752164 0
M  V30 44 H 0.258738 1.743125 -3.658524 0
M  V30 45 H -0.820394 2.159947 -1.015761 0
M  V30 46 H -2.772238 1.201536 -0.135214 0
M  V30 47 H -4.470304 -0.522738 -0.290248 0
M  V30 48 H -5.316397 -2.808940 -1.742854 0
M  V30 49 H -2.176526 -2.854598 -4.575269 0
M  V30 50 H -0.884542 -0.603776 -3.562377 0
M  V30 51 H 1.376502 -0.350504 -2.959127 0
M  V30 52 H 2.519331 1.019289 -2.845846 0
M  V30 53 H 0.442594 -2.349123 -0.023842 0
M  V30 54 H -0.384383 -3.166993 2.073267 0
M  V30 END ATOM
M  V30 BEGIN BOND
M  V30 1 3 1 2
M  V30 2 1 2 3
M  V30 3 1 3 4
M  V30 4 1 4 5
M  V30 5 1 1 6
M  V30 6 2 6 7
M  V30 7 1 7 8
M  V30 8 2 8 9
M  V30 9 1 9 10
M  V30 10 1 10 11
M  V30 11 1 11 12
M  V30 12 1 12 13
M  V30 13 1 13 14
M  V30 14 1 14 15
M  V30 15 1 15 16
M  V30 16 1 16 17
M  V30 17 2 17 18
M  V30 18 1 18 19
M  V30 19 2 19 20
M  V30 20 1 20 21
M  V30 21 1 21 22
M  V30 22 2 22 23
M  V30 23 1 23 24
M  V30 24 2 24 25
M  V30 25 1 15 26
M  V30 26 1 9 27
M  V30 27 2 27 28
M  V30 28 1 5 3
M  V30 29 1 28 6
M  V30 30 1 26 11
M  V30 31 1 25 17
M  V30 32 1 24 20
M  V30 33 1 3 29
M  V30 34 1 4 30
M  V30 35 1 4 31
M  V30 36 1 5 32
M  V30 37 1 5 33
M  V30 38 1 7 34
M  V30 39 1 8 35
M  V30 40 1 10 36
M  V30 41 1 10 37
M  V30 42 1 12 38
M  V30 43 1 12 39
M  V30 44 1 13 40
M  V30 45 1 13 41
M  V30 46 1 14 42
M  V30 47 1 14 43
M  V30 48 1 15 44
M  V30 49 1 16 45
M  V30 50 1 18 46
M  V30 51 1 19 47
M  V30 52 1 21 48
M  V30 53 1 23 49
M  V30 54 1 25 50
M  V30 55 1 26 51
M  V30 56 1 26 52
M  V30 57 1 27 53
M  V30 58 1 28 54
M  V30 END BOND
M  V30 END CTAB
M  END
>  <Dataset>  (937) 
ChEMBL_Kinases

>  <Ligand_Instance>  (937) 
nan

>  <PDB_ID>  (937) 
nan

>  <Standardized_SMILES>  (937) 
C(#CC1CC1)c1ccc(CN2CCCC(Nc3ccc4[nH]ncc4c3)C2)cc1

>  <Name>  (937) 
nan

>  <Pocket>  (937) 
nan

>  <ATP_Site>  (937) 
nan

>  <Peripheral>  (937) 
nan

>  <Num_H_Atoms_ProtBoundConf>  (937) 
nan

>  <Num_Resolved_Atoms>  (937) 
nan

>  <Num_Not_Resolved_Atoms>  (937) 
nan

$$$$
CHEMBL3689384
     RDKit          3D

  0  0  0  0  0  0  0  0  0  0999 V3000
M  V30 BEGIN CTAB
M  V30 COUNTS 51 54 0 0 0
M  V30 BEGIN ATOM
M  V30 1 O 2.510382 -7.516336 3.936014 0
M  V30 2 C 2.050561 -7.647448 2.631564 0
M  V30 3 C 2.127982 -6.380240 1.891722 0
M  V30 4 C 2.173651 -5.339111 1.278849 0
M  V30 5 C 2.210590 -4.094525 0.544895 0
M  V30 6 C 3.320993 -3.272938 0.580312 0
M  V30 7 C 3.351085 -2.083275 -0.123753 0
M  V30 8 C 2.257009 -1.703963 -0.876610 0
M  V30 9 C 2.113540 -0.464533 -1.693835 0
M  V30 10 N 1.565890 0.581268 -0.924558 0
M  V30 11 C 1.356892 1.841011 -1.539336 0
M  V30 12 C 1.725726 2.895572 -0.516406 0
M  V30 13 C 0.795121 2.736889 0.648345 0
M  V30 14 C 0.677466 1.357114 1.198709 0
M  V30 15 N -0.554633 1.243208 1.934942 0
M  V30 16 C -1.890134 1.326205 1.545051 0
M  V30 17 C -2.356301 1.530966 0.264798 0
M  V30 18 C -3.679791 1.619010 -0.112180 0
M  V30 19 C -4.620640 1.490532 0.879982 0
M  V30 20 N -5.964648 1.523145 0.871574 0
M  V30 21 N -6.416638 1.347296 2.100681 0
M  V30 22 C -5.386162 1.194225 2.951659 0
M  V30 23 C -4.241311 1.283464 2.187187 0
M  V30 24 C -2.899828 1.208181 2.477950 0
M  V30 25 C 0.754752 0.244865 0.186055 0
M  V30 26 C 1.140983 -2.550017 -0.899943 0
M  V30 27 C 1.092505 -3.757286 -0.194047 0
M  V30 28 H 2.274769 -6.622467 4.279311 0
M  V30 29 H 1.011203 -8.049079 2.678452 0
M  V30 30 H 2.632267 -8.378107 2.035239 0
M  V30 31 H 4.189404 -3.548304 1.162359 0
M  V30 32 H 4.181068 -1.392414 -0.143635 0
M  V30 33 H 3.129354 -0.157370 -2.021781 0
M  V30 34 H 1.548593 -0.694698 -2.601550 0
M  V30 35 H 0.294612 2.059660 -1.803669 0
M  V30 36 H 2.010527 1.906403 -2.438278 0
M  V30 37 H 1.574184 3.889655 -0.947261 0
M  V30 38 H 2.802115 2.746723 -0.212883 0
M  V30 39 H -0.184497 3.161144 0.372928 0
M  V30 40 H 1.224860 3.371569 1.472232 0
M  V30 41 H 1.549605 1.217331 1.907668 0
M  V30 42 H -0.401338 1.060656 2.972749 0
M  V30 43 H -1.678756 1.632661 -0.547889 0
M  V30 44 H -3.997555 1.781118 -1.132391 0
M  V30 45 H -6.549700 1.668723 0.001518 0
M  V30 46 H -5.413749 1.033786 4.013911 0
M  V30 47 H -2.671948 1.044464 3.522465 0
M  V30 48 H -0.233062 -0.166174 -0.061885 0
M  V30 49 H 1.280502 -0.620032 0.702116 0
M  V30 50 H 0.257015 -2.309511 -1.468381 0
M  V30 51 H 0.203191 -4.375722 -0.246304 0
M  V30 END ATOM
M  V30 BEGIN BOND
M  V30 1 1 1 2
M  V30 2 1 2 3
M  V30 3 3 3 4
M  V30 4 1 4 5
M  V30 5 2 5 6
M  V30 6 1 6 7
M  V30 7 2 7 8
M  V30 8 1 8 9
M  V30 9 1 9 10
M  V30 10 1 10 11
M  V30 11 1 11 12
M  V30 12 1 12 13
M  V30 13 1 13 14
M  V30 14 1 14 15
M  V30 15 1 15 16
M  V30 16 2 16 17
M  V30 17 1 17 18
M  V30 18 2 18 19
M  V30 19 1 19 20
M  V30 20 1 20 21
M  V30 21 2 21 22
M  V30 22 1 22 23
M  V30 23 2 23 24
M  V30 24 1 14 25
M  V30 25 1 8 26
M  V30 26 2 26 27
M  V30 27 1 27 5
M  V30 28 1 25 10
M  V30 29 1 24 16
M  V30 30 1 23 19
M  V30 31 1 1 28
M  V30 32 1 2 29
M  V30 33 1 2 30
M  V30 34 1 6 31
M  V30 35 1 7 32
M  V30 36 1 9 33
M  V30 37 1 9 34
M  V30 38 1 11 35
M  V30 39 1 11 36
M  V30 40 1 12 37
M  V30 41 1 12 38
M  V30 42 1 13 39
M  V30 43 1 13 40
M  V30 44 1 14 41
M  V30 45 1 15 42
M  V30 46 1 17 43
M  V30 47 1 18 44
M  V30 48 1 20 45
M  V30 49 1 22 46
M  V30 50 1 24 47
M  V30 51 1 25 48
M  V30 52 1 25 49
M  V30 53 1 26 50
M  V30 54 1 27 51
M  V30 END BOND
M  V30 END CTAB
M  END
>  <Dataset>  (938) 
ChEMBL_Kinases

>  <Ligand_Instance>  (938) 
nan

>  <PDB_ID>  (938) 
nan

>  <Standardized_SMILES>  (938) 
OCC#Cc1ccc(CN2CCCC(Nc3ccc4[nH]ncc4c3)C2)cc1

>  <Name>  (938) 
nan

>  <Pocket>  (938) 
nan

>  <ATP_Site>  (938) 
nan

>  <Peripheral>  (938) 
nan

>  <Num_H_Atoms_ProtBoundConf>  (938) 
nan

>  <Num_Resolved_Atoms>  (938) 
nan

>  <Num_Not_Resolved_Atoms>  (938) 
nan

$$$$
CHEMBL3689383
     RDKit          3D

  0  0  0  0  0  0  0  0  0  0999 V3000
M  V30 BEGIN CTAB
M  V30 COUNTS 54 57 0 0 0
M  V30 BEGIN ATOM
M  V30 1 C 2.641156 -3.490747 2.947746 0
M  V30 2 S 4.302483 -2.874489 3.138026 0
M  V30 3 O 4.731722 -3.187156 4.543229 0
M  V30 4 O 5.252162 -3.538138 2.206500 0
M  V30 5 C 4.351315 -1.107492 2.936997 0
M  V30 6 C 3.868783 -0.704692 1.591103 0
M  V30 7 C 4.714270 -0.582296 0.513799 0
M  V30 8 C 4.154664 -0.201607 -0.688576 0
M  V30 9 C 2.815002 0.042851 -0.800279 0
M  V30 10 C 1.937682 -0.070956 0.262896 0
M  V30 11 C 0.522046 0.214644 0.029810 0
M  V30 12 N 0.076828 1.539505 0.208497 0
M  V30 13 C 0.212327 2.138298 1.480864 0
M  V30 14 C -0.633662 1.400648 2.493160 0
M  V30 15 C -2.053580 1.533495 2.085768 0
M  V30 16 C -2.351680 1.214888 0.638095 0
M  V30 17 N -2.636048 -0.178091 0.510098 0
M  V30 18 C -3.167533 -0.887318 -0.579445 0
M  V30 19 C -3.579927 -0.325358 -1.769153 0
M  V30 20 C -4.088343 -1.020301 -2.846225 0
M  V30 21 C -4.209680 -2.391443 -2.763303 0
M  V30 22 N -4.646904 -3.360010 -3.584579 0
M  V30 23 N -4.542200 -4.535661 -2.990490 0
M  V30 24 C -4.028017 -4.375706 -1.748228 0
M  V30 25 C -3.812548 -3.006114 -1.595443 0
M  V30 26 C -3.315241 -2.260231 -0.561234 0
M  V30 27 C -1.255537 1.691173 -0.280613 0
M  V30 28 C 2.520563 -0.452831 1.454443 0
M  V30 29 H 2.478253 -4.424304 3.521286 0
M  V30 30 H 1.893058 -2.756185 3.293688 0
M  V30 31 H 2.426979 -3.756501 1.876883 0
M  V30 32 H 3.830881 -0.627122 3.768312 0
M  V30 33 H 5.427441 -0.827911 3.007747 0
M  V30 34 H 5.749367 -0.803668 0.735001 0
M  V30 35 H 4.867202 -0.117162 -1.518987 0
M  V30 36 H 2.433198 0.337957 -1.767296 0
M  V30 37 H 0.279984 -0.074423 -1.021082 0
M  V30 38 H -0.047267 -0.445791 0.748140 0
M  V30 39 H -0.188152 3.171237 1.412561 0
M  V30 40 H 1.241265 2.235812 1.858353 0
M  V30 41 H -0.302091 0.386737 2.713433 0
M  V30 42 H -0.514308 1.975611 3.445546 0
M  V30 43 H -2.665386 0.872269 2.745690 0
M  V30 44 H -2.402384 2.571529 2.335364 0
M  V30 45 H -3.266280 1.780431 0.372278 0
M  V30 46 H -2.419493 -0.790304 1.355172 0
M  V30 47 H -3.537475 0.723260 -1.923105 0
M  V30 48 H -4.401948 -0.548081 -3.764784 0
M  V30 49 H -4.998327 -3.118848 -4.532599 0
M  V30 50 H -3.817147 -5.142206 -1.003878 0
M  V30 51 H -3.019667 -2.818005 0.336329 0
M  V30 52 H -1.370064 1.208603 -1.261021 0
M  V30 53 H -1.430259 2.790630 -0.464564 0
M  V30 54 H 1.863473 -0.551885 2.306769 0
M  V30 END ATOM
M  V30 BEGIN BOND
M  V30 1 1 1 2
M  V30 2 2 2 3
M  V30 3 2 2 4
M  V30 4 1 2 5
M  V30 5 1 5 6
M  V30 6 2 6 7
M  V30 7 1 7 8
M  V30 8 2 8 9
M  V30 9 1 9 10
M  V30 10 1 10 11
M  V30 11 1 11 12
M  V30 12 1 12 13
M  V30 13 1 13 14
M  V30 14 1 14 15
M  V30 15 1 15 16
M  V30 16 1 16 17
M  V30 17 1 17 18
M  V30 18 2 18 19
M  V30 19 1 19 20
M  V30 20 2 20 21
M  V30 21 1 21 22
M  V30 22 1 22 23
M  V30 23 2 23 24
M  V30 24 1 24 25
M  V30 25 2 25 26
M  V30 26 1 16 27
M  V30 27 2 10 28
M  V30 28 1 28 6
M  V30 29 1 27 12
M  V30 30 1 26 18
M  V30 31 1 25 21
M  V30 32 1 1 29
M  V30 33 1 1 30
M  V30 34 1 1 31
M  V30 35 1 5 32
M  V30 36 1 5 33
M  V30 37 1 7 34
M  V30 38 1 8 35
M  V30 39 1 9 36
M  V30 40 1 11 37
M  V30 41 1 11 38
M  V30 42 1 13 39
M  V30 43 1 13 40
M  V30 44 1 14 41
M  V30 45 1 14 42
M  V30 46 1 15 43
M  V30 47 1 15 44
M  V30 48 1 16 45
M  V30 49 1 17 46
M  V30 50 1 19 47
M  V30 51 1 20 48
M  V30 52 1 22 49
M  V30 53 1 24 50
M  V30 54 1 26 51
M  V30 55 1 27 52
M  V30 56 1 27 53
M  V30 57 1 28 54
M  V30 END BOND
M  V30 END CTAB
M  END
>  <Dataset>  (939) 
ChEMBL_Kinases

>  <Ligand_Instance>  (939) 
nan

>  <PDB_ID>  (939) 
nan

>  <Standardized_SMILES>  (939) 
CS(=O)(=O)Cc1cccc(CN2CCCC(Nc3ccc4[nH]ncc4c3)C2)c1

>  <Name>  (939) 
nan

>  <Pocket>  (939) 
nan

>  <ATP_Site>  (939) 
nan

>  <Peripheral>  (939) 
nan

>  <Num_H_Atoms_ProtBoundConf>  (939) 
nan

>  <Num_Resolved_Atoms>  (939) 
nan

>  <Num_Not_Resolved_Atoms>  (939) 
nan

$$$$
CHEMBL3689382
     RDKit          3D

  0  0  0  0  0  0  0  0  0  0999 V3000
M  V30 BEGIN CTAB
M  V30 COUNTS 49 52 0 0 0
M  V30 BEGIN ATOM
M  V30 1 C 1.070666 -6.368153 2.957282 0
M  V30 2 S 0.314779 -4.879745 2.272388 0
M  V30 3 C 1.300618 -4.219786 0.926738 0
M  V30 4 C 2.476703 -4.820424 0.516401 0
M  V30 5 C 3.166092 -4.238680 -0.528494 0
M  V30 6 C 2.684914 -3.098238 -1.131255 0
M  V30 7 C 1.530068 -2.476675 -0.755537 0
M  V30 8 C 0.955506 -1.246294 -1.356562 0
M  V30 9 N 1.405348 -0.120962 -0.688537 0
M  V30 10 C 2.760214 0.214603 -0.601098 0
M  V30 11 C 3.038189 0.698147 0.817392 0
M  V30 12 C 1.796647 0.492618 1.682071 0
M  V30 13 C 0.633709 1.273997 1.053060 0
M  V30 14 N -0.599248 0.939170 1.683915 0
M  V30 15 C -1.860885 1.509346 1.359936 0
M  V30 16 C -2.039723 2.461370 0.401102 0
M  V30 17 C -3.246983 3.038524 0.054369 0
M  V30 18 C -4.371614 2.599394 0.754505 0
M  V30 19 N -5.675886 2.935741 0.680881 0
M  V30 20 N -6.352348 2.233398 1.561132 0
M  V30 21 C -5.532865 1.419609 2.238428 0
M  V30 22 C -4.263899 1.643567 1.732682 0
M  V30 23 C -3.012382 1.130597 2.002632 0
M  V30 24 C 0.493019 0.934213 -0.418707 0
M  V30 25 C 0.845028 -3.077440 0.302223 0
M  V30 26 H 2.180932 -6.364940 2.818147 0
M  V30 27 H 0.708637 -7.294762 2.425237 0
M  V30 28 H 0.859631 -6.479126 4.049821 0
M  V30 29 H 2.829642 -5.703198 0.998376 0
M  V30 30 H 4.093888 -4.665266 -0.892891 0
M  V30 31 H 3.240611 -2.678657 -1.935698 0
M  V30 32 H 1.114093 -1.229804 -2.467780 0
M  V30 33 H -0.156452 -1.325647 -1.252098 0
M  V30 34 H 2.927501 1.116779 -1.262297 0
M  V30 35 H 3.472948 -0.525104 -0.942572 0
M  V30 36 H 3.886368 0.170703 1.265101 0
M  V30 37 H 3.284436 1.774595 0.849698 0
M  V30 38 H 1.554028 -0.579393 1.815233 0
M  V30 39 H 2.000128 0.962378 2.651670 0
M  V30 40 H 0.879030 2.336531 1.222108 0
M  V30 41 H -0.584726 0.214641 2.450234 0
M  V30 42 H -1.202650 2.838229 -0.169052 0
M  V30 43 H -3.354774 3.793445 -0.713346 0
M  V30 44 H -6.098747 3.637592 0.035891 0
M  V30 45 H -5.769184 0.715452 3.026522 0
M  V30 46 H -2.995803 0.379342 2.786061 0
M  V30 47 H 0.814002 1.839186 -0.984501 0
M  V30 48 H -0.531220 0.602036 -0.679493 0
M  V30 49 H -0.075088 -2.620360 0.634281 0
M  V30 END ATOM
M  V30 BEGIN BOND
M  V30 1 1 1 2
M  V30 2 1 2 3
M  V30 3 2 3 4
M  V30 4 1 4 5
M  V30 5 2 5 6
M  V30 6 1 6 7
M  V30 7 1 7 8
M  V30 8 1 8 9
M  V30 9 1 9 10
M  V30 10 1 10 11
M  V30 11 1 11 12
M  V30 12 1 12 13
M  V30 13 1 13 14
M  V30 14 1 14 15
M  V30 15 2 15 16
M  V30 16 1 16 17
M  V30 17 2 17 18
M  V30 18 1 18 19
M  V30 19 1 19 20
M  V30 20 2 20 21
M  V30 21 1 21 22
M  V30 22 2 22 23
M  V30 23 1 13 24
M  V30 24 2 7 25
M  V30 25 1 25 3
M  V30 26 1 24 9
M  V30 27 1 23 15
M  V30 28 1 22 18
M  V30 29 1 1 26
M  V30 30 1 1 27
M  V30 31 1 1 28
M  V30 32 1 4 29
M  V30 33 1 5 30
M  V30 34 1 6 31
M  V30 35 1 8 32
M  V30 36 1 8 33
M  V30 37 1 10 34
M  V30 38 1 10 35
M  V30 39 1 11 36
M  V30 40 1 11 37
M  V30 41 1 12 38
M  V30 42 1 12 39
M  V30 43 1 13 40
M  V30 44 1 14 41
M  V30 45 1 16 42
M  V30 46 1 17 43
M  V30 47 1 19 44
M  V30 48 1 21 45
M  V30 49 1 23 46
M  V30 50 1 24 47
M  V30 51 1 24 48
M  V30 52 1 25 49
M  V30 END BOND
M  V30 END CTAB
M  END
>  <Dataset>  (940) 
ChEMBL_Kinases

>  <Ligand_Instance>  (940) 
nan

>  <PDB_ID>  (940) 
nan

>  <Standardized_SMILES>  (940) 
CSc1cccc(CN2CCCC(Nc3ccc4[nH]ncc4c3)C2)c1

>  <Name>  (940) 
nan

>  <Pocket>  (940) 
nan

>  <ATP_Site>  (940) 
nan

>  <Peripheral>  (940) 
nan

>  <Num_H_Atoms_ProtBoundConf>  (940) 
nan

>  <Num_Resolved_Atoms>  (940) 
nan

>  <Num_Not_Resolved_Atoms>  (940) 
nan

$$$$
CHEMBL3689381
     RDKit          3D

  0  0  0  0  0  0  0  0  0  0999 V3000
M  V30 BEGIN CTAB
M  V30 COUNTS 53 56 0 0 0
M  V30 BEGIN ATOM
M  V30 1 O -0.429243 -3.994790 2.216777 0
M  V30 2 C -0.193380 -3.959512 0.834277 0
M  V30 3 C 1.134649 -4.587725 0.536114 0
M  V30 4 O 2.237769 -3.984283 1.134366 0
M  V30 5 C 2.653747 -2.705921 0.905490 0
M  V30 6 C 3.781015 -2.500389 1.720956 0
M  V30 7 C 4.462625 -1.275381 1.727948 0
M  V30 8 C 4.024056 -0.246717 0.920952 0
M  V30 9 C 2.922999 -0.427958 0.115451 0
M  V30 10 C 2.343256 0.591843 -0.795292 0
M  V30 11 N 1.362016 1.329191 -0.142729 0
M  V30 12 C 1.636884 2.093797 0.994922 0
M  V30 13 C 0.988914 3.451670 0.689269 0
M  V30 14 C -0.474476 3.236097 0.710214 0
M  V30 15 C -1.010433 1.986121 0.109263 0
M  V30 16 N -1.874755 1.335017 1.109222 0
M  V30 17 C -2.677557 0.164906 0.993695 0
M  V30 18 C -3.443103 -0.366749 2.038758 0
M  V30 19 C -4.182302 -1.499893 1.790190 0
M  V30 20 C -4.239992 -2.165283 0.600031 0
M  V30 21 N -4.895638 -3.264295 0.189087 0
M  V30 22 N -4.584205 -3.465117 -1.082450 0
M  V30 23 C -3.726332 -2.498236 -1.500906 0
M  V30 24 C -3.483104 -1.639432 -0.433242 0
M  V30 25 C -2.724617 -0.496316 -0.218348 0
M  V30 26 C 0.000807 1.005338 -0.370087 0
M  V30 27 C 2.299064 -1.635061 0.146610 0
M  V30 28 H 0.412960 -3.726207 2.669798 0
M  V30 29 H -0.336616 -2.934880 0.517932 0
M  V30 30 H -0.970024 -4.561789 0.292343 0
M  V30 31 H 1.132451 -5.682936 0.829243 0
M  V30 32 H 1.220463 -4.625648 -0.579388 0
M  V30 33 H 4.288121 -3.177513 2.427925 0
M  V30 34 H 5.331689 -1.029694 2.318461 0
M  V30 35 H 4.512453 0.709175 0.889304 0
M  V30 36 H 1.930070 0.089828 -1.670349 0
M  V30 37 H 3.182317 1.236524 -1.166226 0
M  V30 38 H 1.048632 1.675215 1.864144 0
M  V30 39 H 2.675120 2.185927 1.270874 0
M  V30 40 H 1.312277 3.720080 -0.336514 0
M  V30 41 H 1.255552 4.215538 1.433661 0
M  V30 42 H -0.927794 4.147170 0.215812 0
M  V30 43 H -0.795505 3.350056 1.774433 0
M  V30 44 H -1.695816 2.251229 -0.722767 0
M  V30 45 H -1.943489 1.765078 2.080425 0
M  V30 46 H -3.400555 0.155932 2.981100 0
M  V30 47 H -4.741413 -1.838196 2.655056 0
M  V30 48 H -5.525145 -3.816203 0.816028 0
M  V30 49 H -3.283354 -2.377848 -2.485457 0
M  V30 50 H -2.200126 -0.210206 -1.111602 0
M  V30 51 H -0.164201 0.012413 0.099409 0
M  V30 52 H -0.090941 0.824792 -1.479066 0
M  V30 53 H 1.450273 -1.852745 -0.457514 0
M  V30 END ATOM
M  V30 BEGIN BOND
M  V30 1 1 1 2
M  V30 2 1 2 3
M  V30 3 1 3 4
M  V30 4 1 4 5
M  V30 5 2 5 6
M  V30 6 1 6 7
M  V30 7 2 7 8
M  V30 8 1 8 9
M  V30 9 1 9 10
M  V30 10 1 10 11
M  V30 11 1 11 12
M  V30 12 1 12 13
M  V30 13 1 13 14
M  V30 14 1 14 15
M  V30 15 1 15 16
M  V30 16 1 16 17
M  V30 17 2 17 18
M  V30 18 1 18 19
M  V30 19 2 19 20
M  V30 20 1 20 21
M  V30 21 1 21 22
M  V30 22 2 22 23
M  V30 23 1 23 24
M  V30 24 2 24 25
M  V30 25 1 15 26
M  V30 26 2 9 27
M  V30 27 1 27 5
M  V30 28 1 26 11
M  V30 29 1 25 17
M  V30 30 1 24 20
M  V30 31 1 1 28
M  V30 32 1 2 29
M  V30 33 1 2 30
M  V30 34 1 3 31
M  V30 35 1 3 32
M  V30 36 1 6 33
M  V30 37 1 7 34
M  V30 38 1 8 35
M  V30 39 1 10 36
M  V30 40 1 10 37
M  V30 41 1 12 38
M  V30 42 1 12 39
M  V30 43 1 13 40
M  V30 44 1 13 41
M  V30 45 1 14 42
M  V30 46 1 14 43
M  V30 47 1 15 44
M  V30 48 1 16 45
M  V30 49 1 18 46
M  V30 50 1 19 47
M  V30 51 1 21 48
M  V30 52 1 23 49
M  V30 53 1 25 50
M  V30 54 1 26 51
M  V30 55 1 26 52
M  V30 56 1 27 53
M  V30 END BOND
M  V30 END CTAB
M  END
>  <Dataset>  (941) 
ChEMBL_Kinases

>  <Ligand_Instance>  (941) 
nan

>  <PDB_ID>  (941) 
nan

>  <Standardized_SMILES>  (941) 
OCCOc1cccc(CN2CCCC(Nc3ccc4[nH]ncc4c3)C2)c1

>  <Name>  (941) 
nan

>  <Pocket>  (941) 
nan

>  <ATP_Site>  (941) 
nan

>  <Peripheral>  (941) 
nan

>  <Num_H_Atoms_ProtBoundConf>  (941) 
nan

>  <Num_Resolved_Atoms>  (941) 
nan

>  <Num_Not_Resolved_Atoms>  (941) 
nan

$$$$
CHEMBL3689380
     RDKit          3D

  0  0  0  0  0  0  0  0  0  0999 V3000
M  V30 BEGIN CTAB
M  V30 COUNTS 46 49 0 0 0
M  V30 BEGIN ATOM
M  V30 1 N 0.994897 -5.830229 3.779117 0
M  V30 2 C 1.042400 -5.188431 2.826665 0
M  V30 3 C 1.106449 -4.374232 1.635094 0
M  V30 4 C 2.305763 -4.051422 1.007630 0
M  V30 5 C 2.294673 -3.259120 -0.142192 0
M  V30 6 C 1.104195 -2.775870 -0.687184 0
M  V30 7 C 1.126451 -1.936278 -1.911500 0
M  V30 8 N 1.237508 -0.538021 -1.673551 0
M  V30 9 C 1.254083 0.254250 -2.883793 0
M  V30 10 C 1.374793 1.717207 -2.635699 0
M  V30 11 C 0.422780 2.267057 -1.602230 0
M  V30 12 C 0.490973 1.387093 -0.360462 0
M  V30 13 N -0.517994 1.736773 0.599437 0
M  V30 14 C -0.673689 1.254616 1.925991 0
M  V30 15 C 0.184015 0.363919 2.533023 0
M  V30 16 C 0.029840 -0.114844 3.816467 0
M  V30 17 C -1.056746 0.332533 4.533121 0
M  V30 18 N -1.497735 0.076448 5.778118 0
M  V30 19 N -2.608670 0.759197 6.019935 0
M  V30 20 C -2.938245 1.493436 4.932655 0
M  V30 21 C -1.948959 1.224852 3.977436 0
M  V30 22 C -1.743034 1.668522 2.689320 0
M  V30 23 C 0.192293 -0.022276 -0.840569 0
M  V30 24 C -0.036681 -3.130793 -0.020824 0
M  V30 25 C -0.088381 -3.907796 1.115080 0
M  V30 26 H 3.232730 -4.424799 1.427777 0
M  V30 27 H 3.251703 -3.024211 -0.609917 0
M  V30 28 H 2.047124 -2.257004 -2.479669 0
M  V30 29 H 0.263264 -2.207564 -2.551385 0
M  V30 30 H 0.307338 0.018184 -3.428418 0
M  V30 31 H 2.073887 -0.035444 -3.561254 0
M  V30 32 H 2.406845 2.006011 -2.414430 0
M  V30 33 H 1.106700 2.236745 -3.594151 0
M  V30 34 H -0.607346 2.384830 -1.956177 0
M  V30 35 H 0.796123 3.272244 -1.316468 0
M  V30 36 H 1.472237 1.520849 0.087369 0
M  V30 37 H -1.227279 2.443097 0.261080 0
M  V30 38 H 1.040757 -0.000521 2.020639 0
M  V30 39 H 0.715571 -0.814370 4.273407 0
M  V30 40 H -1.072874 -0.563857 6.512282 0
M  V30 41 H -3.771540 2.174785 4.745144 0
M  V30 42 H -2.464024 2.378993 2.263461 0
M  V30 43 H -0.749410 0.050709 -1.421431 0
M  V30 44 H 0.043364 -0.667474 0.011371 0
M  V30 45 H -0.994920 -2.790905 -0.389054 0
M  V30 46 H -1.032935 -4.153358 1.596639 0
M  V30 END ATOM
M  V30 BEGIN BOND
M  V30 1 3 1 2
M  V30 2 1 2 3
M  V30 3 2 3 4
M  V30 4 1 4 5
M  V30 5 2 5 6
M  V30 6 1 6 7
M  V30 7 1 7 8
M  V30 8 1 8 9
M  V30 9 1 9 10
M  V30 10 1 10 11
M  V30 11 1 11 12
M  V30 12 1 12 13
M  V30 13 1 13 14
M  V30 14 2 14 15
M  V30 15 1 15 16
M  V30 16 2 16 17
M  V30 17 1 17 18
M  V30 18 1 18 19
M  V30 19 2 19 20
M  V30 20 1 20 21
M  V30 21 2 21 22
M  V30 22 1 12 23
M  V30 23 1 6 24
M  V30 24 2 24 25
M  V30 25 1 25 3
M  V30 26 1 23 8
M  V30 27 1 22 14
M  V30 28 1 21 17
M  V30 29 1 4 26
M  V30 30 1 5 27
M  V30 31 1 7 28
M  V30 32 1 7 29
M  V30 33 1 9 30
M  V30 34 1 9 31
M  V30 35 1 10 32
M  V30 36 1 10 33
M  V30 37 1 11 34
M  V30 38 1 11 35
M  V30 39 1 12 36
M  V30 40 1 13 37
M  V30 41 1 15 38
M  V30 42 1 16 39
M  V30 43 1 18 40
M  V30 44 1 20 41
M  V30 45 1 22 42
M  V30 46 1 23 43
M  V30 47 1 23 44
M  V30 48 1 24 45
M  V30 49 1 25 46
M  V30 END BOND
M  V30 END CTAB
M  END
>  <Dataset>  (942) 
ChEMBL_Kinases

>  <Ligand_Instance>  (942) 
nan

>  <PDB_ID>  (942) 
nan

>  <Standardized_SMILES>  (942) 
N#Cc1ccc(CN2CCCC(Nc3ccc4[nH]ncc4c3)C2)cc1

>  <Name>  (942) 
nan

>  <Pocket>  (942) 
nan

>  <ATP_Site>  (942) 
nan

>  <Peripheral>  (942) 
nan

>  <Num_H_Atoms_ProtBoundConf>  (942) 
nan

>  <Num_Resolved_Atoms>  (942) 
nan

>  <Num_Not_Resolved_Atoms>  (942) 
nan

$$$$
CHEMBL3689379
     RDKit          3D

  0  0  0  0  0  0  0  0  0  0999 V3000
M  V30 BEGIN CTAB
M  V30 COUNTS 49 52 0 0 0
M  V30 BEGIN ATOM
M  V30 1 C 1.080828 -6.034719 2.544277 0
M  V30 2 C 0.246500 -5.378050 1.758091 0
M  V30 3 C 0.649018 -4.325874 0.836572 0
M  V30 4 C 1.968604 -3.970427 0.755193 0
M  V30 5 C 2.259465 -2.960712 -0.147397 0
M  V30 6 C 1.309511 -2.316798 -0.943467 0
M  V30 7 C 1.821803 -1.264934 -1.853879 0
M  V30 8 N 1.861073 -0.014225 -1.173019 0
M  V30 9 C 2.349401 1.069513 -2.040469 0
M  V30 10 C 2.747456 2.193260 -1.155009 0
M  V30 11 C 1.689246 2.647766 -0.202664 0
M  V30 12 C 0.891027 1.519389 0.400122 0
M  V30 13 N -0.396588 1.982801 0.861039 0
M  V30 14 C -1.364070 1.331441 1.666271 0
M  V30 15 C -1.220237 0.084071 2.230135 0
M  V30 16 C -2.171741 -0.551142 2.999653 0
M  V30 17 C -3.349712 0.097063 3.226651 0
M  V30 18 N -4.476628 -0.186062 3.900815 0
M  V30 19 N -5.352970 0.814438 3.807628 0
M  V30 20 C -4.811351 1.797398 3.055228 0
M  V30 21 C -3.548062 1.348795 2.686933 0
M  V30 22 C -2.570409 1.945542 1.924241 0
M  V30 23 C 0.625614 0.432982 -0.626028 0
M  V30 24 C 0.017013 -2.737198 -0.795442 0
M  V30 25 C -0.343932 -3.735283 0.082634 0
M  V30 26 H 0.904168 -6.826499 3.262276 0
M  V30 27 H 2.146856 -6.007990 2.726147 0
M  V30 28 H -0.766019 -5.712125 1.878692 0
M  V30 29 H 2.745094 -4.430552 1.343024 0
M  V30 30 H 3.314123 -2.672973 -0.215911 0
M  V30 31 H 2.844635 -1.541054 -2.182621 0
M  V30 32 H 1.125245 -1.210770 -2.718634 0
M  V30 33 H 3.233310 0.738260 -2.609424 0
M  V30 34 H 1.503593 1.381280 -2.690762 0
M  V30 35 H 3.047693 3.058232 -1.791144 0
M  V30 36 H 3.680059 1.894319 -0.605581 0
M  V30 37 H 2.182732 3.207581 0.617694 0
M  V30 38 H 0.981287 3.349228 -0.687863 0
M  V30 39 H 1.420602 1.064361 1.251170 0
M  V30 40 H -0.649660 2.965992 0.541115 0
M  V30 41 H -0.311705 -0.462555 2.094920 0
M  V30 42 H -2.012536 -1.534020 3.421821 0
M  V30 43 H -4.564407 -1.109237 4.409141 0
M  V30 44 H -5.294873 2.746057 2.803174 0
M  V30 45 H -2.778538 2.927789 1.525490 0
M  V30 46 H 0.022604 -0.349418 -0.195144 0
M  V30 47 H 0.027206 0.895838 -1.468103 0
M  V30 48 H -0.719199 -2.247133 -1.410964 0
M  V30 49 H -1.400230 -4.021096 0.148975 0
M  V30 END ATOM
M  V30 BEGIN BOND
M  V30 1 2 1 2
M  V30 2 1 2 3
M  V30 3 2 3 4
M  V30 4 1 4 5
M  V30 5 2 5 6
M  V30 6 1 6 7
M  V30 7 1 7 8
M  V30 8 1 8 9
M  V30 9 1 9 10
M  V30 10 1 10 11
M  V30 11 1 11 12
M  V30 12 1 12 13
M  V30 13 1 13 14
M  V30 14 2 14 15
M  V30 15 1 15 16
M  V30 16 2 16 17
M  V30 17 1 17 18
M  V30 18 1 18 19
M  V30 19 2 19 20
M  V30 20 1 20 21
M  V30 21 2 21 22
M  V30 22 1 12 23
M  V30 23 1 6 24
M  V30 24 2 24 25
M  V30 25 1 25 3
M  V30 26 1 23 8
M  V30 27 1 22 14
M  V30 28 1 21 17
M  V30 29 1 1 26
M  V30 30 1 1 27
M  V30 31 1 2 28
M  V30 32 1 4 29
M  V30 33 1 5 30
M  V30 34 1 7 31
M  V30 35 1 7 32
M  V30 36 1 9 33
M  V30 37 1 9 34
M  V30 38 1 10 35
M  V30 39 1 10 36
M  V30 40 1 11 37
M  V30 41 1 11 38
M  V30 42 1 12 39
M  V30 43 1 13 40
M  V30 44 1 15 41
M  V30 45 1 16 42
M  V30 46 1 18 43
M  V30 47 1 20 44
M  V30 48 1 22 45
M  V30 49 1 23 46
M  V30 50 1 23 47
M  V30 51 1 24 48
M  V30 52 1 25 49
M  V30 END BOND
M  V30 END CTAB
M  END
>  <Dataset>  (943) 
ChEMBL_Kinases

>  <Ligand_Instance>  (943) 
nan

>  <PDB_ID>  (943) 
nan

>  <Standardized_SMILES>  (943) 
C=Cc1ccc(CN2CCCC(Nc3ccc4[nH]ncc4c3)C2)cc1

>  <Name>  (943) 
nan

>  <Pocket>  (943) 
nan

>  <ATP_Site>  (943) 
nan

>  <Peripheral>  (943) 
nan

>  <Num_H_Atoms_ProtBoundConf>  (943) 
nan

>  <Num_Resolved_Atoms>  (943) 
nan

>  <Num_Not_Resolved_Atoms>  (943) 
nan

$$$$
CHEMBL3689359
     RDKit          3D

  0  0  0  0  0  0  0  0  0  0999 V3000
M  V30 BEGIN CTAB
M  V30 COUNTS 55 58 0 0 0
M  V30 BEGIN ATOM
M  V30 1 C -0.133696 -5.440189 3.223184 0
M  V30 2 C 1.185231 -5.177096 2.484421 0
M  V30 3 C 1.755827 -6.537621 2.138110 0
M  V30 4 O 0.964786 -4.392267 1.334697 0
M  V30 5 C 1.487444 -3.125438 1.133595 0
M  V30 6 C 2.298405 -2.318018 1.904295 0
M  V30 7 C 2.672102 -1.072511 1.442902 0
M  V30 8 C 2.254157 -0.599110 0.214197 0
M  V30 9 C 2.685195 0.750594 -0.238551 0
M  V30 10 N 1.790217 1.804875 0.154422 0
M  V30 11 C 2.228807 3.109187 -0.299588 0
M  V30 12 C 1.483952 4.193324 0.442075 0
M  V30 13 C 0.099555 3.793354 0.842416 0
M  V30 14 C -0.502364 2.696419 0.020827 0
M  V30 15 N -1.616265 2.089521 0.742277 0
M  V30 16 C -2.496332 1.088495 0.280686 0
M  V30 17 C -3.521381 0.560603 1.075660 0
M  V30 18 C -4.363085 -0.409839 0.580061 0
M  V30 19 C -4.255401 -0.913297 -0.698748 0
M  V30 20 N -4.949230 -1.841490 -1.381219 0
M  V30 21 N -4.415293 -1.935736 -2.585159 0
M  V30 22 C -3.383398 -1.080329 -2.693125 0
M  V30 23 C -3.247064 -0.410877 -1.517345 0
M  V30 24 C -2.428451 0.554102 -0.990402 0
M  V30 25 C 0.454236 1.626576 -0.375549 0
M  V30 26 C 1.441628 -1.388740 -0.576034 0
M  V30 27 C 1.059158 -2.654327 -0.112407 0
M  V30 28 H 0.030395 -5.612148 4.286442 0
M  V30 29 H -0.860664 -4.621701 3.014824 0
M  V30 30 H -0.576893 -6.338310 2.746508 0
M  V30 31 H 1.818801 -4.651928 3.194055 0
M  V30 32 H 2.522895 -6.495506 1.333497 0
M  V30 33 H 2.261239 -6.916042 3.051150 0
M  V30 34 H 0.948019 -7.262468 1.903496 0
M  V30 35 H 2.553594 -2.799215 2.834177 0
M  V30 36 H 3.304932 -0.516928 2.114145 0
M  V30 37 H 3.741414 0.974136 -0.022476 0
M  V30 38 H 2.632462 0.725446 -1.366977 0
M  V30 39 H 3.311095 3.189473 -0.071182 0
M  V30 40 H 2.010944 3.216052 -1.366839 0
M  V30 41 H 2.095211 4.460079 1.329499 0
M  V30 42 H 1.494418 5.087436 -0.216775 0
M  V30 43 H -0.543475 4.697495 0.827684 0
M  V30 44 H 0.129939 3.456299 1.899214 0
M  V30 45 H -0.944302 3.137543 -0.894482 0
M  V30 46 H -1.802504 2.427409 1.732530 0
M  V30 47 H -3.609326 0.957510 2.089649 0
M  V30 48 H -5.130305 -0.758269 1.274971 0
M  V30 49 H -5.767164 -2.353153 -0.940071 0
M  V30 50 H -2.735081 -0.908628 -3.543202 0
M  V30 51 H -1.681769 0.885946 -1.700962 0
M  V30 52 H 0.049820 0.618201 -0.101741 0
M  V30 53 H 0.578569 1.619794 -1.475543 0
M  V30 54 H 1.143427 -0.973556 -1.525516 0
M  V30 55 H 0.420651 -3.156064 -0.844528 0
M  V30 END ATOM
M  V30 BEGIN BOND
M  V30 1 1 1 2
M  V30 2 1 2 3
M  V30 3 1 2 4
M  V30 4 1 4 5
M  V30 5 2 5 6
M  V30 6 1 6 7
M  V30 7 2 7 8
M  V30 8 1 8 9
M  V30 9 1 9 10
M  V30 10 1 10 11
M  V30 11 1 11 12
M  V30 12 1 12 13
M  V30 13 1 13 14
M  V30 14 1 14 15
M  V30 15 1 15 16
M  V30 16 2 16 17
M  V30 17 1 17 18
M  V30 18 2 18 19
M  V30 19 1 19 20
M  V30 20 1 20 21
M  V30 21 2 21 22
M  V30 22 1 22 23
M  V30 23 2 23 24
M  V30 24 1 14 25
M  V30 25 1 8 26
M  V30 26 2 26 27
M  V30 27 1 27 5
M  V30 28 1 25 10
M  V30 29 1 24 16
M  V30 30 1 23 19
M  V30 31 1 1 28
M  V30 32 1 1 29
M  V30 33 1 1 30
M  V30 34 1 2 31
M  V30 35 1 3 32
M  V30 36 1 3 33
M  V30 37 1 3 34
M  V30 38 1 6 35
M  V30 39 1 7 36
M  V30 40 1 9 37
M  V30 41 1 9 38
M  V30 42 1 11 39
M  V30 43 1 11 40
M  V30 44 1 12 41
M  V30 45 1 12 42
M  V30 46 1 13 43
M  V30 47 1 13 44
M  V30 48 1 14 45
M  V30 49 1 15 46
M  V30 50 1 17 47
M  V30 51 1 18 48
M  V30 52 1 20 49
M  V30 53 1 22 50
M  V30 54 1 24 51
M  V30 55 1 25 52
M  V30 56 1 25 53
M  V30 57 1 26 54
M  V30 58 1 27 55
M  V30 END BOND
M  V30 END CTAB
M  END
>  <Dataset>  (944) 
ChEMBL_Kinases

>  <Ligand_Instance>  (944) 
nan

>  <PDB_ID>  (944) 
nan

>  <Standardized_SMILES>  (944) 
CC(C)Oc1ccc(CN2CCCC(Nc3ccc4[nH]ncc4c3)C2)cc1

>  <Name>  (944) 
nan

>  <Pocket>  (944) 
nan

>  <ATP_Site>  (944) 
nan

>  <Peripheral>  (944) 
nan

>  <Num_H_Atoms_ProtBoundConf>  (944) 
nan

>  <Num_Resolved_Atoms>  (944) 
nan

>  <Num_Not_Resolved_Atoms>  (944) 
nan

$$$$
CHEMBL3689360
     RDKit          3D

  0  0  0  0  0  0  0  0  0  0999 V3000
M  V30 BEGIN CTAB
M  V30 COUNTS 51 54 0 0 0
M  V30 BEGIN ATOM
M  V30 1 C 0.525022 -6.202987 1.206680 0
M  V30 2 C 0.939700 -4.796207 1.302894 0
M  V30 3 C 1.659927 -4.483977 2.457513 0
M  V30 4 C 2.100672 -3.214852 2.666200 0
M  V30 5 C 1.836826 -2.231689 1.736303 0
M  V30 6 C 1.132922 -2.479002 0.579174 0
M  V30 7 C 0.744700 -1.578841 -0.525578 0
M  V30 8 N 1.288515 -0.280722 -0.418872 0
M  V30 9 C 2.714093 -0.155899 -0.539409 0
M  V30 10 C 3.093931 1.109252 0.234349 0
M  V30 11 C 2.348341 2.325248 -0.250138 0
M  V30 12 C 0.867975 2.051919 -0.429325 0
M  V30 13 N 0.178895 2.060799 0.843799 0
M  V30 14 C -1.146870 1.993994 1.293663 0
M  V30 15 C -1.506014 1.992906 2.645916 0
M  V30 16 C -2.826566 1.938049 3.004699 0
M  V30 17 C -3.846072 1.882634 2.082078 0
M  V30 18 N -5.185675 1.825078 2.221517 0
M  V30 19 N -5.732881 1.787860 1.023558 0
M  V30 20 C -4.755288 1.820906 0.096103 0
M  V30 21 C -3.527260 1.882189 0.738513 0
M  V30 22 C -2.200391 1.937471 0.376534 0
M  V30 23 C 0.677171 0.748781 -1.189648 0
M  V30 24 C 0.683883 -3.785779 0.374172 0
M  V30 25 C -0.104042 -4.339167 -0.782312 0
M  V30 26 H -0.360900 -6.361612 0.535277 0
M  V30 27 H 1.365625 -6.840120 0.874983 0
M  V30 28 H 0.209634 -6.564427 2.209089 0
M  V30 29 H 1.924214 -5.166082 3.248362 0
M  V30 30 H 2.666060 -2.864006 3.523755 0
M  V30 31 H 2.150830 -1.208842 1.849526 0
M  V30 32 H -0.378591 -1.454997 -0.548483 0
M  V30 33 H 1.023700 -2.089670 -1.477014 0
M  V30 34 H 2.950827 0.057019 -1.624996 0
M  V30 35 H 3.307016 -0.994672 -0.188873 0
M  V30 36 H 2.895081 0.971696 1.296133 0
M  V30 37 H 4.178847 1.249548 0.099607 0
M  V30 38 H 2.810900 2.661746 -1.191880 0
M  V30 39 H 2.489794 3.122440 0.506994 0
M  V30 40 H 0.450790 2.855003 -1.049366 0
M  V30 41 H 0.852572 2.133484 1.652526 0
M  V30 42 H -0.706066 2.036918 3.400302 0
M  V30 43 H -3.005967 1.942344 4.068360 0
M  V30 44 H -5.636105 1.815299 3.174871 0
M  V30 45 H -4.838115 1.804841 -0.993474 0
M  V30 46 H -2.084718 1.938627 -0.678763 0
M  V30 47 H -0.338714 0.620767 -1.505229 0
M  V30 48 H 1.316053 0.874354 -2.113377 0
M  V30 49 H 0.475143 -5.194266 -1.180106 0
M  V30 50 H -0.344446 -3.589364 -1.535603 0
M  V30 51 H -1.087273 -4.690698 -0.376345 0
M  V30 END ATOM
M  V30 BEGIN BOND
M  V30 1 1 1 2
M  V30 2 2 2 3
M  V30 3 1 3 4
M  V30 4 2 4 5
M  V30 5 1 5 6
M  V30 6 1 6 7
M  V30 7 1 7 8
M  V30 8 1 8 9
M  V30 9 1 9 10
M  V30 10 1 10 11
M  V30 11 1 11 12
M  V30 12 1 12 13
M  V30 13 1 13 14
M  V30 14 2 14 15
M  V30 15 1 15 16
M  V30 16 2 16 17
M  V30 17 1 17 18
M  V30 18 1 18 19
M  V30 19 2 19 20
M  V30 20 1 20 21
M  V30 21 2 21 22
M  V30 22 1 12 23
M  V30 23 2 6 24
M  V30 24 1 24 25
M  V30 25 1 24 2
M  V30 26 1 23 8
M  V30 27 1 22 14
M  V30 28 1 21 17
M  V30 29 1 1 26
M  V30 30 1 1 27
M  V30 31 1 1 28
M  V30 32 1 3 29
M  V30 33 1 4 30
M  V30 34 1 5 31
M  V30 35 1 7 32
M  V30 36 1 7 33
M  V30 37 1 9 34
M  V30 38 1 9 35
M  V30 39 1 10 36
M  V30 40 1 10 37
M  V30 41 1 11 38
M  V30 42 1 11 39
M  V30 43 1 12 40
M  V30 44 1 13 41
M  V30 45 1 15 42
M  V30 46 1 16 43
M  V30 47 1 18 44
M  V30 48 1 20 45
M  V30 49 1 22 46
M  V30 50 1 23 47
M  V30 51 1 23 48
M  V30 52 1 25 49
M  V30 53 1 25 50
M  V30 54 1 25 51
M  V30 END BOND
M  V30 END CTAB
M  END
>  <Dataset>  (945) 
ChEMBL_Kinases

>  <Ligand_Instance>  (945) 
nan

>  <PDB_ID>  (945) 
nan

>  <Standardized_SMILES>  (945) 
Cc1cccc(CN2CCCC(Nc3ccc4[nH]ncc4c3)C2)c1C

>  <Name>  (945) 
nan

>  <Pocket>  (945) 
nan

>  <ATP_Site>  (945) 
nan

>  <Peripheral>  (945) 
nan

>  <Num_H_Atoms_ProtBoundConf>  (945) 
nan

>  <Num_Resolved_Atoms>  (945) 
nan

>  <Num_Not_Resolved_Atoms>  (945) 
nan

$$$$
CHEMBL3689361
     RDKit          3D

  0  0  0  0  0  0  0  0  0  0999 V3000
M  V30 BEGIN CTAB
M  V30 COUNTS 52 55 0 0 0
M  V30 BEGIN ATOM
M  V30 1 C 2.029833 -6.370842 3.328494 0
M  V30 2 C 2.245505 -7.204116 2.072642 0
M  V30 3 S 0.761295 -7.161503 1.010280 0
M  V30 4 C 0.567640 -5.483501 0.414030 0
M  V30 5 C 1.118711 -4.986167 -0.749482 0
M  V30 6 C 0.909621 -3.673726 -1.121302 0
M  V30 7 C 0.139926 -2.876752 -0.304353 0
M  V30 8 C -0.160056 -1.448938 -0.589019 0
M  V30 9 N 0.829901 -0.581710 -0.007645 0
M  V30 10 C 0.968766 -0.660900 1.378591 0
M  V30 11 C 1.892009 0.367396 1.920422 0
M  V30 12 C 1.541944 1.730409 1.447516 0
M  V30 13 C 1.419257 1.844104 -0.044559 0
M  V30 14 N 0.546767 2.926023 -0.429296 0
M  V30 15 C -0.833183 3.031400 -0.214547 0
M  V30 16 C -1.644820 2.100230 0.382883 0
M  V30 17 C -2.987911 2.192468 0.607047 0
M  V30 18 C -3.639898 3.331346 0.203453 0
M  V30 19 N -4.908626 3.741503 0.263736 0
M  V30 20 N -4.998173 4.940855 -0.280205 0
M  V30 21 C -3.800502 5.330983 -0.701237 0
M  V30 22 C -2.904020 4.323452 -0.407691 0
M  V30 23 C -1.553020 4.155603 -0.597956 0
M  V30 24 C 1.161785 0.554882 -0.737587 0
M  V30 25 C -0.431579 -3.354141 0.881495 0
M  V30 26 C -0.204815 -4.675902 1.229741 0
M  V30 27 H 2.289641 -5.325129 3.075971 0
M  V30 28 H 2.782910 -6.708395 4.056989 0
M  V30 29 H 0.988131 -6.412883 3.676594 0
M  V30 30 H 2.496167 -8.255572 2.355195 0
M  V30 31 H 3.100662 -6.755310 1.533926 0
M  V30 32 H 1.709578 -5.668644 -1.338564 0
M  V30 33 H 1.324058 -3.269368 -2.012473 0
M  V30 34 H -0.248133 -1.352353 -1.674729 0
M  V30 35 H -1.148141 -1.146807 -0.169037 0
M  V30 36 H -0.026414 -0.541954 1.873359 0
M  V30 37 H 1.294279 -1.700846 1.692784 0
M  V30 38 H 1.914633 0.281160 3.016023 0
M  V30 39 H 2.908208 0.136338 1.480270 0
M  V30 40 H 0.606303 2.057229 1.925500 0
M  V30 41 H 2.317245 2.447330 1.854894 0
M  V30 42 H 2.456817 2.162277 -0.368736 0
M  V30 43 H 0.963345 3.766396 -0.941894 0
M  V30 44 H -1.211522 1.171347 0.722272 0
M  V30 45 H -3.570892 1.420752 1.084343 0
M  V30 46 H -5.679302 3.184299 0.678052 0
M  V30 47 H -3.527278 6.253254 -1.187709 0
M  V30 48 H -1.052016 5.000566 -1.093816 0
M  V30 49 H 2.002241 0.263717 -1.437496 0
M  V30 50 H 0.316203 0.744189 -1.467699 0
M  V30 51 H -1.043595 -2.719751 1.531152 0
M  V30 52 H -0.665144 -5.020843 2.163066 0
M  V30 END ATOM
M  V30 BEGIN BOND
M  V30 1 1 1 2
M  V30 2 1 2 3
M  V30 3 1 3 4
M  V30 4 2 4 5
M  V30 5 1 5 6
M  V30 6 2 6 7
M  V30 7 1 7 8
M  V30 8 1 8 9
M  V30 9 1 9 10
M  V30 10 1 10 11
M  V30 11 1 11 12
M  V30 12 1 12 13
M  V30 13 1 13 14
M  V30 14 1 14 15
M  V30 15 2 15 16
M  V30 16 1 16 17
M  V30 17 2 17 18
M  V30 18 1 18 19
M  V30 19 1 19 20
M  V30 20 2 20 21
M  V30 21 1 21 22
M  V30 22 2 22 23
M  V30 23 1 13 24
M  V30 24 1 7 25
M  V30 25 2 25 26
M  V30 26 1 26 4
M  V30 27 1 24 9
M  V30 28 1 23 15
M  V30 29 1 22 18
M  V30 30 1 1 27
M  V30 31 1 1 28
M  V30 32 1 1 29
M  V30 33 1 2 30
M  V30 34 1 2 31
M  V30 35 1 5 32
M  V30 36 1 6 33
M  V30 37 1 8 34
M  V30 38 1 8 35
M  V30 39 1 10 36
M  V30 40 1 10 37
M  V30 41 1 11 38
M  V30 42 1 11 39
M  V30 43 1 12 40
M  V30 44 1 12 41
M  V30 45 1 13 42
M  V30 46 1 14 43
M  V30 47 1 16 44
M  V30 48 1 17 45
M  V30 49 1 19 46
M  V30 50 1 21 47
M  V30 51 1 23 48
M  V30 52 1 24 49
M  V30 53 1 24 50
M  V30 54 1 25 51
M  V30 55 1 26 52
M  V30 END BOND
M  V30 END CTAB
M  END
>  <Dataset>  (946) 
ChEMBL_Kinases

>  <Ligand_Instance>  (946) 
nan

>  <PDB_ID>  (946) 
nan

>  <Standardized_SMILES>  (946) 
CCSc1ccc(CN2CCCC(Nc3ccc4[nH]ncc4c3)C2)cc1

>  <Name>  (946) 
nan

>  <Pocket>  (946) 
nan

>  <ATP_Site>  (946) 
nan

>  <Peripheral>  (946) 
nan

>  <Num_H_Atoms_ProtBoundConf>  (946) 
nan

>  <Num_Resolved_Atoms>  (946) 
nan

>  <Num_Not_Resolved_Atoms>  (946) 
nan

$$$$
CHEMBL3689362
     RDKit          3D

  0  0  0  0  0  0  0  0  0  0999 V3000
M  V30 BEGIN CTAB
M  V30 COUNTS 53 56 0 0 0
M  V30 BEGIN ATOM
M  V30 1 O 2.493267 -7.120594 3.292865 0
M  V30 2 C 1.909344 -5.894093 2.897673 0
M  V30 3 C 1.107641 -6.161080 1.683523 0
M  V30 4 O 0.431271 -5.123022 1.094045 0
M  V30 5 C 0.834664 -3.955007 0.549458 0
M  V30 6 C 2.083368 -3.391680 0.390774 0
M  V30 7 C 2.262466 -2.161872 -0.206071 0
M  V30 8 C 1.194928 -1.428476 -0.677596 0
M  V30 9 C 1.307340 -0.097721 -1.329349 0
M  V30 10 N 1.205425 0.923109 -0.341993 0
M  V30 11 C 2.180302 0.939440 0.682169 0
M  V30 12 C 2.457879 2.274915 1.289383 0
M  V30 13 C 1.348459 3.257510 1.288612 0
M  V30 14 C 0.134843 2.859820 0.476678 0
M  V30 15 N -0.695597 1.931913 1.193458 0
M  V30 16 C -1.977490 1.320288 0.941906 0
M  V30 17 C -2.592202 0.406810 1.787538 0
M  V30 18 C -3.810917 -0.063653 1.399024 0
M  V30 19 C -4.465018 0.289021 0.258307 0
M  V30 20 N -5.656118 -0.088104 -0.248766 0
M  V30 21 N -5.831695 0.561331 -1.409196 0
M  V30 22 C -4.756562 1.341623 -1.628946 0
M  V30 23 C -3.851107 1.199184 -0.582685 0
M  V30 24 C -2.611312 1.701822 -0.224160 0
M  V30 25 C 0.734235 2.191268 -0.774000 0
M  V30 26 C -0.084881 -1.968672 -0.533707 0
M  V30 27 C -0.260181 -3.218633 0.073613 0
M  V30 28 H 2.732669 -7.071803 4.271871 0
M  V30 29 H 1.269447 -5.617850 3.775213 0
M  V30 30 H 2.691490 -5.148267 2.843943 0
M  V30 31 H 0.337334 -6.937306 1.969210 0
M  V30 32 H 1.714872 -6.671038 0.894725 0
M  V30 33 H 2.870951 -3.998776 0.768970 0
M  V30 34 H 3.258312 -1.757888 -0.311507 0
M  V30 35 H 0.448820 0.030730 -2.024113 0
M  V30 36 H 2.250039 -0.010916 -1.909022 0
M  V30 37 H 3.132239 0.562297 0.244276 0
M  V30 38 H 1.907920 0.202569 1.484318 0
M  V30 39 H 2.760900 2.095805 2.361484 0
M  V30 40 H 3.394909 2.709859 0.836305 0
M  V30 41 H 0.966526 3.511371 2.306293 0
M  V30 42 H 1.706816 4.219837 0.855817 0
M  V30 43 H -0.453892 3.724521 0.163911 0
M  V30 44 H -0.304122 1.600935 2.125867 0
M  V30 45 H -2.056542 0.140965 2.686286 0
M  V30 46 H -4.270072 -0.773516 2.072776 0
M  V30 47 H -6.339439 -0.769069 0.175983 0
M  V30 48 H -4.581172 1.991211 -2.468976 0
M  V30 49 H -2.270900 2.400211 -0.976713 0
M  V30 50 H 1.580500 2.846460 -1.082448 0
M  V30 51 H -0.008380 2.092896 -1.554967 0
M  V30 52 H -0.932353 -1.391617 -0.905300 0
M  V30 53 H -1.313155 -3.521051 0.120841 0
M  V30 END ATOM
M  V30 BEGIN BOND
M  V30 1 1 1 2
M  V30 2 1 2 3
M  V30 3 1 3 4
M  V30 4 1 4 5
M  V30 5 2 5 6
M  V30 6 1 6 7
M  V30 7 2 7 8
M  V30 8 1 8 9
M  V30 9 1 9 10
M  V30 10 1 10 11
M  V30 11 1 11 12
M  V30 12 1 12 13
M  V30 13 1 13 14
M  V30 14 1 14 15
M  V30 15 1 15 16
M  V30 16 2 16 17
M  V30 17 1 17 18
M  V30 18 2 18 19
M  V30 19 1 19 20
M  V30 20 1 20 21
M  V30 21 2 21 22
M  V30 22 1 22 23
M  V30 23 2 23 24
M  V30 24 1 14 25
M  V30 25 1 8 26
M  V30 26 2 26 27
M  V30 27 1 27 5
M  V30 28 1 25 10
M  V30 29 1 24 16
M  V30 30 1 23 19
M  V30 31 1 1 28
M  V30 32 1 2 29
M  V30 33 1 2 30
M  V30 34 1 3 31
M  V30 35 1 3 32
M  V30 36 1 6 33
M  V30 37 1 7 34
M  V30 38 1 9 35
M  V30 39 1 9 36
M  V30 40 1 11 37
M  V30 41 1 11 38
M  V30 42 1 12 39
M  V30 43 1 12 40
M  V30 44 1 13 41
M  V30 45 1 13 42
M  V30 46 1 14 43
M  V30 47 1 15 44
M  V30 48 1 17 45
M  V30 49 1 18 46
M  V30 50 1 20 47
M  V30 51 1 22 48
M  V30 52 1 24 49
M  V30 53 1 25 50
M  V30 54 1 25 51
M  V30 55 1 26 52
M  V30 56 1 27 53
M  V30 END BOND
M  V30 END CTAB
M  END
>  <Dataset>  (947) 
ChEMBL_Kinases

>  <Ligand_Instance>  (947) 
nan

>  <PDB_ID>  (947) 
nan

>  <Standardized_SMILES>  (947) 
OCCOc1ccc(CN2CCCC(Nc3ccc4[nH]ncc4c3)C2)cc1

>  <Name>  (947) 
nan

>  <Pocket>  (947) 
nan

>  <ATP_Site>  (947) 
nan

>  <Peripheral>  (947) 
nan

>  <Num_H_Atoms_ProtBoundConf>  (947) 
nan

>  <Num_Resolved_Atoms>  (947) 
nan

>  <Num_Not_Resolved_Atoms>  (947) 
nan

$$$$
CHEMBL3689364
     RDKit          3D

  0  0  0  0  0  0  0  0  0  0999 V3000
M  V30 BEGIN CTAB
M  V30 COUNTS 52 56 0 0 0
M  V30 BEGIN ATOM
M  V30 1 C 1.157912 -2.011242 1.091731 0
M  V30 2 C 0.812921 -2.697644 2.237490 0
M  V30 3 C 1.618459 -2.495289 3.338317 0
M  V30 4 C 1.262325 -3.229320 4.587819 0
M  V30 5 C -0.228539 -3.524771 4.835480 0
M  V30 6 C 0.695789 -4.628697 4.444863 0
M  V30 7 C 2.702631 -1.643991 3.258229 0
M  V30 8 C 3.008857 -0.978261 2.088655 0
M  V30 9 C 2.243998 -1.135934 0.951163 0
M  V30 10 C 2.420533 -0.512923 -0.387482 0
M  V30 11 N 1.668130 0.680190 -0.442333 0
M  V30 12 C 1.991925 1.734988 0.438327 0
M  V30 13 C 1.870212 3.097616 -0.224172 0
M  V30 14 C 0.453071 3.247671 -0.699115 0
M  V30 15 C -0.105583 1.976387 -1.335254 0
M  V30 16 N -1.092281 1.354146 -0.510660 0
M  V30 17 C -2.046360 0.292872 -0.595829 0
M  V30 18 C -2.873061 -0.109469 0.459509 0
M  V30 19 C -3.745595 -1.134627 0.197105 0
M  V30 20 C -3.855038 -1.777332 -1.014189 0
M  V30 21 N -4.664849 -2.781285 -1.376958 0
M  V30 22 N -4.392517 -3.042275 -2.626458 0
M  V30 23 C -3.418385 -2.223698 -3.081506 0
M  V30 24 C -3.037912 -1.377172 -2.052478 0
M  V30 25 C -2.143564 -0.345662 -1.828262 0
M  V30 26 C 1.060590 1.043188 -1.668889 0
M  V30 27 H 0.500791 -2.188751 0.227721 0
M  V30 28 H -0.039413 -3.349782 2.253865 0
M  V30 29 H 1.878623 -3.089100 5.493843 0
M  V30 30 H -0.917019 -3.055676 4.095921 0
M  V30 31 H -0.602417 -3.454392 5.875259 0
M  V30 32 H 0.575580 -4.976683 3.386463 0
M  V30 33 H 0.910309 -5.365264 5.234895 0
M  V30 34 H 3.330133 -1.486775 4.116842 0
M  V30 35 H 3.847002 -0.306123 1.975717 0
M  V30 36 H 3.504959 -0.363709 -0.621441 0
M  V30 37 H 2.046792 -1.234781 -1.152620 0
M  V30 38 H 1.373884 1.730000 1.359434 0
M  V30 39 H 3.055081 1.588953 0.789995 0
M  V30 40 H 2.610379 3.140761 -1.023251 0
M  V30 41 H 2.067889 3.840485 0.593432 0
M  V30 42 H -0.169542 3.537570 0.162346 0
M  V30 43 H 0.423621 4.102077 -1.419823 0
M  V30 44 H -0.565240 2.274770 -2.291069 0
M  V30 45 H -1.143681 1.800607 0.457377 0
M  V30 46 H -2.774802 0.397112 1.385754 0
M  V30 47 H -4.355509 -1.396076 1.056333 0
M  V30 48 H -5.376369 -3.257293 -0.765229 0
M  V30 49 H -2.951440 -2.169671 -4.074878 0
M  V30 50 H -1.597567 -0.154054 -2.728241 0
M  V30 51 H 0.634203 0.150109 -2.148973 0
M  V30 52 H 1.734423 1.611677 -2.341085 0
M  V30 END ATOM
M  V30 BEGIN BOND
M  V30 1 2 1 2
M  V30 2 1 2 3
M  V30 3 1 3 4
M  V30 4 1 4 5
M  V30 5 1 5 6
M  V30 6 2 3 7
M  V30 7 1 7 8
M  V30 8 2 8 9
M  V30 9 1 9 10
M  V30 10 1 10 11
M  V30 11 1 11 12
M  V30 12 1 12 13
M  V30 13 1 13 14
M  V30 14 1 14 15
M  V30 15 1 15 16
M  V30 16 1 16 17
M  V30 17 2 17 18
M  V30 18 1 18 19
M  V30 19 2 19 20
M  V30 20 1 20 21
M  V30 21 1 21 22
M  V30 22 2 22 23
M  V30 23 1 23 24
M  V30 24 2 24 25
M  V30 25 1 15 26
M  V30 26 1 9 1
M  V30 27 1 26 11
M  V30 28 1 6 4
M  V30 29 1 25 17
M  V30 30 1 24 20
M  V30 31 1 1 27
M  V30 32 1 2 28
M  V30 33 1 4 29
M  V30 34 1 5 30
M  V30 35 1 5 31
M  V30 36 1 6 32
M  V30 37 1 6 33
M  V30 38 1 7 34
M  V30 39 1 8 35
M  V30 40 1 10 36
M  V30 41 1 10 37
M  V30 42 1 12 38
M  V30 43 1 12 39
M  V30 44 1 13 40
M  V30 45 1 13 41
M  V30 46 1 14 42
M  V30 47 1 14 43
M  V30 48 1 15 44
M  V30 49 1 16 45
M  V30 50 1 18 46
M  V30 51 1 19 47
M  V30 52 1 21 48
M  V30 53 1 23 49
M  V30 54 1 25 50
M  V30 55 1 26 51
M  V30 56 1 26 52
M  V30 END BOND
M  V30 END CTAB
M  END
>  <Dataset>  (948) 
ChEMBL_Kinases

>  <Ligand_Instance>  (948) 
nan

>  <PDB_ID>  (948) 
nan

>  <Standardized_SMILES>  (948) 
c1cc(C2CC2)ccc1CN1CCCC(Nc2ccc3[nH]ncc3c2)C1

>  <Name>  (948) 
nan

>  <Pocket>  (948) 
nan

>  <ATP_Site>  (948) 
nan

>  <Peripheral>  (948) 
nan

>  <Num_H_Atoms_ProtBoundConf>  (948) 
nan

>  <Num_Resolved_Atoms>  (948) 
nan

>  <Num_Not_Resolved_Atoms>  (948) 
nan

$$$$
CHEMBL3689365
     RDKit          3D

  0  0  0  0  0  0  0  0  0  0999 V3000
M  V30 BEGIN CTAB
M  V30 COUNTS 52 56 0 0 0
M  V30 BEGIN ATOM
M  V30 1 C -0.505450 -4.853000 -0.470005 0
M  V30 2 C 0.076841 -3.636812 -0.195728 0
M  V30 3 C -0.674561 -2.570197 0.264835 0
M  V30 4 C -0.188702 -1.207698 0.599807 0
M  V30 5 N -0.256031 -0.343615 -0.562578 0
M  V30 6 C 0.546331 -0.814823 -1.646705 0
M  V30 7 C 0.829941 0.222860 -2.691770 0
M  V30 8 C 1.479988 1.467875 -2.117157 0
M  V30 9 C 1.452253 1.296893 -0.601555 0
M  V30 10 N 1.871216 2.471905 0.107188 0
M  V30 11 C 2.082655 2.742141 1.496228 0
M  V30 12 C 2.473008 3.970354 1.990984 0
M  V30 13 C 2.645326 4.069568 3.350871 0
M  V30 14 C 2.452001 3.027243 4.224043 0
M  V30 15 N 2.580926 2.978483 5.561241 0
M  V30 16 N 2.279199 1.735521 5.937172 0
M  V30 17 C 1.962342 1.002520 4.853184 0
M  V30 18 C 2.060676 1.800762 3.714696 0
M  V30 19 C 1.873902 1.656371 2.335025 0
M  V30 20 C -0.027073 1.035066 -0.279669 0
M  V30 21 C -2.031673 -2.794520 0.432257 0
M  V30 22 C -2.638625 -3.992297 0.168024 0
M  V30 23 C -4.090887 -4.259115 0.338000 0
M  V30 24 C -4.493237 -5.663503 0.612393 0
M  V30 25 C -4.732989 -5.124590 -0.774400 0
M  V30 26 C -1.868170 -5.039801 -0.290039 0
M  V30 27 H 0.179298 -5.626757 -0.828673 0
M  V30 28 H 1.121203 -3.446930 -0.318527 0
M  V30 29 H -0.701673 -0.788242 1.464459 0
M  V30 30 H 0.892050 -1.271688 0.870391 0
M  V30 31 H -0.061791 -1.609318 -2.167353 0
M  V30 32 H 1.472554 -1.275973 -1.266942 0
M  V30 33 H -0.106468 0.450257 -3.243355 0
M  V30 34 H 1.561272 -0.236414 -3.391588 0
M  V30 35 H 0.969505 2.397357 -2.408672 0
M  V30 36 H 2.538070 1.537105 -2.411674 0
M  V30 37 H 2.061912 0.430528 -0.322160 0
M  V30 38 H 2.063781 3.309476 -0.516183 0
M  V30 39 H 2.617633 4.770545 1.286059 0
M  V30 40 H 2.951779 5.033432 3.738828 0
M  V30 41 H 2.861289 3.744505 6.215144 0
M  V30 42 H 1.667130 -0.049441 4.798106 0
M  V30 43 H 1.581437 0.658689 2.113719 0
M  V30 44 H -0.658382 1.637384 -0.978357 0
M  V30 45 H -0.203408 1.369009 0.736038 0
M  V30 46 H -2.698159 -2.021973 0.787484 0
M  V30 47 H -4.741055 -3.421032 0.708566 0
M  V30 48 H -3.709475 -6.401637 0.786295 0
M  V30 49 H -5.450836 -5.886643 1.156704 0
M  V30 50 H -5.754077 -4.824246 -1.077303 0
M  V30 51 H -4.060455 -5.519014 -1.562466 0
M  V30 52 H -2.188003 -6.033114 -0.541199 0
M  V30 END ATOM
M  V30 BEGIN BOND
M  V30 1 2 1 2
M  V30 2 1 2 3
M  V30 3 1 3 4
M  V30 4 1 4 5
M  V30 5 1 5 6
M  V30 6 1 6 7
M  V30 7 1 7 8
M  V30 8 1 8 9
M  V30 9 1 9 10
M  V30 10 1 10 11
M  V30 11 2 11 12
M  V30 12 1 12 13
M  V30 13 2 13 14
M  V30 14 1 14 15
M  V30 15 1 15 16
M  V30 16 2 16 17
M  V30 17 1 17 18
M  V30 18 2 18 19
M  V30 19 1 9 20
M  V30 20 2 3 21
M  V30 21 1 21 22
M  V30 22 1 22 23
M  V30 23 1 23 24
M  V30 24 1 24 25
M  V30 25 2 22 26
M  V30 26 1 26 1
M  V30 27 1 20 5
M  V30 28 1 25 23
M  V30 29 1 19 11
M  V30 30 1 18 14
M  V30 31 1 1 27
M  V30 32 1 2 28
M  V30 33 1 4 29
M  V30 34 1 4 30
M  V30 35 1 6 31
M  V30 36 1 6 32
M  V30 37 1 7 33
M  V30 38 1 7 34
M  V30 39 1 8 35
M  V30 40 1 8 36
M  V30 41 1 9 37
M  V30 42 1 10 38
M  V30 43 1 12 39
M  V30 44 1 13 40
M  V30 45 1 15 41
M  V30 46 1 17 42
M  V30 47 1 19 43
M  V30 48 1 20 44
M  V30 49 1 20 45
M  V30 50 1 21 46
M  V30 51 1 23 47
M  V30 52 1 24 48
M  V30 53 1 24 49
M  V30 54 1 25 50
M  V30 55 1 25 51
M  V30 56 1 26 52
M  V30 END BOND
M  V30 END CTAB
M  END
>  <Dataset>  (949) 
ChEMBL_Kinases

>  <Ligand_Instance>  (949) 
nan

>  <PDB_ID>  (949) 
nan

>  <Standardized_SMILES>  (949) 
c1cc(CN2CCCC(Nc3ccc4[nH]ncc4c3)C2)cc(C2CC2)c1

>  <Name>  (949) 
nan

>  <Pocket>  (949) 
nan

>  <ATP_Site>  (949) 
nan

>  <Peripheral>  (949) 
nan

>  <Num_H_Atoms_ProtBoundConf>  (949) 
nan

>  <Num_Resolved_Atoms>  (949) 
nan

>  <Num_Not_Resolved_Atoms>  (949) 
nan

$$$$
CHEMBL3689366
     RDKit          3D

  0  0  0  0  0  0  0  0  0  0999 V3000
M  V30 BEGIN CTAB
M  V30 COUNTS 49 52 0 0 0
M  V30 BEGIN ATOM
M  V30 1 F 2.613100 -4.386362 2.019236 0
M  V30 2 C 2.326158 -4.912162 0.785639 0
M  V30 3 F 0.967397 -4.952941 0.563167 0
M  V30 4 F 2.832743 -6.208130 0.727828 0
M  V30 5 O 2.981049 -4.152037 -0.230935 0
M  V30 6 C 2.708431 -2.798500 -0.385661 0
M  V30 7 C 3.451252 -1.862499 0.300731 0
M  V30 8 C 3.126542 -0.536435 0.100063 0
M  V30 9 C 2.111352 -0.057263 -0.737304 0
M  V30 10 C 1.941944 1.416756 -0.803528 0
M  V30 11 N 1.043595 1.831035 0.200899 0
M  V30 12 C 0.792706 3.253125 0.247604 0
M  V30 13 C 0.652641 3.548881 1.738185 0
M  V30 14 C 0.206472 2.328859 2.500524 0
M  V30 15 C -0.728201 1.444138 1.719619 0
M  V30 16 N -0.834041 0.155727 2.386678 0
M  V30 17 C -1.666012 -0.921918 1.976256 0
M  V30 18 C -1.712566 -2.132538 2.645945 0
M  V30 19 C -2.533615 -3.159925 2.228536 0
M  V30 20 C -3.351115 -3.038003 1.124101 0
M  V30 21 N -4.221340 -3.876175 0.530724 0
M  V30 22 N -4.748314 -3.247433 -0.512175 0
M  V30 23 C -4.221780 -1.991290 -0.603725 0
M  V30 24 C -3.325936 -1.841156 0.435873 0
M  V30 25 C -2.494999 -0.829167 0.875126 0
M  V30 26 C -0.205167 1.170232 0.314713 0
M  V30 27 C 1.390561 -1.040195 -1.407620 0
M  V30 28 C 1.698682 -2.369926 -1.221292 0
M  V30 29 H 4.243467 -2.141727 0.959605 0
M  V30 30 H 3.738272 0.185567 0.662510 0
M  V30 31 H 1.522166 1.697907 -1.807937 0
M  V30 32 H 2.935334 1.866209 -0.722244 0
M  V30 33 H 1.537051 3.874035 -0.252781 0
M  V30 34 H -0.200933 3.467662 -0.197974 0
M  V30 35 H 0.006850 4.419921 1.878680 0
M  V30 36 H 1.669010 3.819758 2.093319 0
M  V30 37 H 1.075254 1.749142 2.874073 0
M  V30 38 H -0.344528 2.690355 3.394130 0
M  V30 39 H -1.726281 1.904621 1.633031 0
M  V30 40 H -0.256407 -0.025662 3.252262 0
M  V30 41 H -1.097351 -2.290072 3.516659 0
M  V30 42 H -2.542205 -4.090733 2.777747 0
M  V30 43 H -4.398381 -4.841621 0.888206 0
M  V30 44 H -4.463483 -1.259041 -1.349082 0
M  V30 45 H -2.551034 0.052532 0.279915 0
M  V30 46 H -0.892773 1.624879 -0.432166 0
M  V30 47 H -0.175182 0.086395 0.098678 0
M  V30 48 H 0.614831 -0.644822 -2.045898 0
M  V30 49 H 1.097686 -3.087454 -1.774341 0
M  V30 END ATOM
M  V30 BEGIN BOND
M  V30 1 1 1 2
M  V30 2 1 2 3
M  V30 3 1 2 4
M  V30 4 1 2 5
M  V30 5 1 5 6
M  V30 6 2 6 7
M  V30 7 1 7 8
M  V30 8 2 8 9
M  V30 9 1 9 10
M  V30 10 1 10 11
M  V30 11 1 11 12
M  V30 12 1 12 13
M  V30 13 1 13 14
M  V30 14 1 14 15
M  V30 15 1 15 16
M  V30 16 1 16 17
M  V30 17 2 17 18
M  V30 18 1 18 19
M  V30 19 2 19 20
M  V30 20 1 20 21
M  V30 21 1 21 22
M  V30 22 2 22 23
M  V30 23 1 23 24
M  V30 24 2 24 25
M  V30 25 1 15 26
M  V30 26 1 9 27
M  V30 27 2 27 28
M  V30 28 1 28 6
M  V30 29 1 26 11
M  V30 30 1 25 17
M  V30 31 1 24 20
M  V30 32 1 7 29
M  V30 33 1 8 30
M  V30 34 1 10 31
M  V30 35 1 10 32
M  V30 36 1 12 33
M  V30 37 1 12 34
M  V30 38 1 13 35
M  V30 39 1 13 36
M  V30 40 1 14 37
M  V30 41 1 14 38
M  V30 42 1 15 39
M  V30 43 1 16 40
M  V30 44 1 18 41
M  V30 45 1 19 42
M  V30 46 1 21 43
M  V30 47 1 23 44
M  V30 48 1 25 45
M  V30 49 1 26 46
M  V30 50 1 26 47
M  V30 51 1 27 48
M  V30 52 1 28 49
M  V30 END BOND
M  V30 END CTAB
M  END
>  <Dataset>  (950) 
ChEMBL_Kinases

>  <Ligand_Instance>  (950) 
nan

>  <PDB_ID>  (950) 
nan

>  <Standardized_SMILES>  (950) 
FC(F)(F)Oc1ccc(CN2CCCC(Nc3ccc4[nH]ncc4c3)C2)cc1

>  <Name>  (950) 
nan

>  <Pocket>  (950) 
nan

>  <ATP_Site>  (950) 
nan

>  <Peripheral>  (950) 
nan

>  <Num_H_Atoms_ProtBoundConf>  (950) 
nan

>  <Num_Resolved_Atoms>  (950) 
nan

>  <Num_Not_Resolved_Atoms>  (950) 
nan

$$$$
CHEMBL3689367
     RDKit          3D

  0  0  0  0  0  0  0  0  0  0999 V3000
M  V30 BEGIN CTAB
M  V30 COUNTS 54 57 0 0 0
M  V30 BEGIN ATOM
M  V30 1 C -0.250528 -5.998286 3.745901 0
M  V30 2 C -0.963732 -4.770741 3.218586 0
M  V30 3 C -1.514945 -3.953852 4.386501 0
M  V30 4 C -0.009793 -3.902001 2.501549 0
M  V30 5 C 1.163172 -3.370998 3.030352 0
M  V30 6 C 2.003521 -2.566625 2.295406 0
M  V30 7 C 1.730702 -2.242283 0.995940 0
M  V30 8 C 2.538743 -1.391584 0.088484 0
M  V30 9 N 2.162615 -0.067312 0.165863 0
M  V30 10 C 2.233057 0.673010 1.359272 0
M  V30 11 C 3.013555 1.916757 0.992168 0
M  V30 12 C 2.317246 2.639491 -0.085571 0
M  V30 13 C 1.281033 1.957902 -0.880912 0
M  V30 14 N -0.068690 2.472603 -0.592357 0
M  V30 15 C -1.336827 2.186146 -1.169205 0
M  V30 16 C -2.518610 2.773560 -0.726399 0
M  V30 17 C -3.667918 2.411972 -1.382167 0
M  V30 18 C -3.746666 1.523844 -2.432531 0
M  V30 19 N -4.760103 1.055150 -3.185117 0
M  V30 20 N -4.287595 0.208196 -4.075108 0
M  V30 21 C -2.958248 0.125289 -3.900397 0
M  V30 22 C -2.565995 0.952971 -2.856488 0
M  V30 23 C -1.374069 1.296384 -2.213338 0
M  V30 24 C 1.277525 0.459915 -0.806348 0
M  V30 25 C 0.555052 -2.768081 0.449057 0
M  V30 26 C -0.275475 -3.570662 1.195341 0
M  V30 27 H -0.573040 -6.911487 3.175476 0
M  V30 28 H 0.849521 -5.952167 3.606173 0
M  V30 29 H -0.441489 -6.150086 4.819066 0
M  V30 30 H -1.828641 -5.070603 2.591884 0
M  V30 31 H -2.283390 -3.258471 4.029473 0
M  V30 32 H -0.681504 -3.390068 4.854188 0
M  V30 33 H -1.972696 -4.688037 5.071425 0
M  V30 34 H 1.386460 -3.622914 4.058468 0
M  V30 35 H 2.896825 -2.165380 2.703981 0
M  V30 36 H 3.599830 -1.505340 0.389452 0
M  V30 37 H 2.429937 -1.759795 -0.951443 0
M  V30 38 H 2.607138 0.164840 2.237017 0
M  V30 39 H 1.190400 1.026378 1.599526 0
M  V30 40 H 4.003878 1.522315 0.617262 0
M  V30 41 H 3.211730 2.547480 1.882621 0
M  V30 42 H 1.823672 3.538096 0.395321 0
M  V30 43 H 3.110991 3.124450 -0.730523 0
M  V30 44 H 1.443494 2.225967 -1.950200 0
M  V30 45 H -0.105299 3.191179 0.191842 0
M  V30 46 H -2.478980 3.473231 0.096407 0
M  V30 47 H -4.568218 2.884065 -1.016021 0
M  V30 48 H -5.777328 1.318023 -3.086611 0
M  V30 49 H -2.258215 -0.479780 -4.462245 0
M  V30 50 H -0.544966 0.771705 -2.663890 0
M  V30 51 H 1.524233 -0.019375 -1.773969 0
M  V30 52 H 0.254810 0.115769 -0.530596 0
M  V30 53 H 0.274723 -2.548319 -0.588222 0
M  V30 54 H -1.179943 -3.955894 0.724352 0
M  V30 END ATOM
M  V30 BEGIN BOND
M  V30 1 1 1 2
M  V30 2 1 2 3
M  V30 3 1 2 4
M  V30 4 2 4 5
M  V30 5 1 5 6
M  V30 6 2 6 7
M  V30 7 1 7 8
M  V30 8 1 8 9
M  V30 9 1 9 10
M  V30 10 1 10 11
M  V30 11 1 11 12
M  V30 12 1 12 13
M  V30 13 1 13 14
M  V30 14 1 14 15
M  V30 15 2 15 16
M  V30 16 1 16 17
M  V30 17 2 17 18
M  V30 18 1 18 19
M  V30 19 1 19 20
M  V30 20 2 20 21
M  V30 21 1 21 22
M  V30 22 2 22 23
M  V30 23 1 13 24
M  V30 24 1 7 25
M  V30 25 2 25 26
M  V30 26 1 26 4
M  V30 27 1 24 9
M  V30 28 1 23 15
M  V30 29 1 22 18
M  V30 30 1 1 27
M  V30 31 1 1 28
M  V30 32 1 1 29
M  V30 33 1 2 30
M  V30 34 1 3 31
M  V30 35 1 3 32
M  V30 36 1 3 33
M  V30 37 1 5 34
M  V30 38 1 6 35
M  V30 39 1 8 36
M  V30 40 1 8 37
M  V30 41 1 10 38
M  V30 42 1 10 39
M  V30 43 1 11 40
M  V30 44 1 11 41
M  V30 45 1 12 42
M  V30 46 1 12 43
M  V30 47 1 13 44
M  V30 48 1 14 45
M  V30 49 1 16 46
M  V30 50 1 17 47
M  V30 51 1 19 48
M  V30 52 1 21 49
M  V30 53 1 23 50
M  V30 54 1 24 51
M  V30 55 1 24 52
M  V30 56 1 25 53
M  V30 57 1 26 54
M  V30 END BOND
M  V30 END CTAB
M  END
>  <Dataset>  (951) 
ChEMBL_Kinases

>  <Ligand_Instance>  (951) 
nan

>  <PDB_ID>  (951) 
nan

>  <Standardized_SMILES>  (951) 
CC(C)c1ccc(CN2CCCC(Nc3ccc4[nH]ncc4c3)C2)cc1

>  <Name>  (951) 
nan

>  <Pocket>  (951) 
nan

>  <ATP_Site>  (951) 
nan

>  <Peripheral>  (951) 
nan

>  <Num_H_Atoms_ProtBoundConf>  (951) 
nan

>  <Num_Resolved_Atoms>  (951) 
nan

>  <Num_Not_Resolved_Atoms>  (951) 
nan

$$$$
CHEMBL3689378
     RDKit          3D

  0  0  0  0  0  0  0  0  0  0999 V3000
M  V30 BEGIN CTAB
M  V30 COUNTS 50 53 0 0 0
M  V30 BEGIN ATOM
M  V30 1 C 1.916039 -7.084965 1.373454 0
M  V30 2 C 2.485223 -6.331693 0.231804 0
M  V30 3 O 3.429250 -6.857425 -0.424060 0
M  V30 4 C 1.984059 -5.017731 -0.141875 0
M  V30 5 C 0.960737 -4.381855 0.526296 0
M  V30 6 C 0.471662 -3.121313 0.175036 0
M  V30 7 C 1.058853 -2.472477 -0.918960 0
M  V30 8 C 0.456231 -1.145912 -1.202234 0
M  V30 9 N 1.147050 -0.155550 -0.441712 0
M  V30 10 C 2.538754 -0.010646 -0.698189 0
M  V30 11 C 3.093755 0.881389 0.412624 0
M  V30 12 C 2.054383 1.093585 1.495051 0
M  V30 13 C 0.806778 1.755973 0.933443 0
M  V30 14 N -0.278183 1.479200 1.854302 0
M  V30 15 C -1.576517 2.034906 1.712501 0
M  V30 16 C -1.934580 2.912047 0.712597 0
M  V30 17 C -3.192298 3.453409 0.557028 0
M  V30 18 C -4.184887 3.114143 1.447932 0
M  V30 19 N -5.481753 3.449727 1.582503 0
M  V30 20 N -5.983746 2.821823 2.637042 0
M  V30 21 C -5.030508 2.058235 3.221764 0
M  V30 22 C -3.876990 2.242412 2.463859 0
M  V30 23 C -2.608720 1.734694 2.569813 0
M  V30 24 C 0.485686 1.129221 -0.432108 0
M  V30 25 C 2.084159 -3.084399 -1.606141 0
M  V30 26 C 2.509177 -4.322179 -1.201172 0
M  V30 27 H 0.821599 -6.893103 1.458237 0
M  V30 28 H 2.434770 -6.821165 2.322350 0
M  V30 29 H 1.992083 -8.193071 1.244159 0
M  V30 30 H 0.505656 -4.881074 1.371904 0
M  V30 31 H -0.333546 -2.709586 0.763718 0
M  V30 32 H 0.582243 -0.933118 -2.284404 0
M  V30 33 H -0.623280 -1.123563 -0.961374 0
M  V30 34 H 2.694574 0.436661 -1.708250 0
M  V30 35 H 3.026079 -1.011887 -0.675787 0
M  V30 36 H 3.941969 0.340127 0.874738 0
M  V30 37 H 3.473044 1.843154 0.041117 0
M  V30 38 H 1.831860 0.151207 2.025095 0
M  V30 39 H 2.492413 1.801222 2.225842 0
M  V30 40 H 0.922354 2.840059 0.824958 0
M  V30 41 H -0.143350 0.841967 2.682250 0
M  V30 42 H -1.220396 3.233587 -0.018868 0
M  V30 43 H -3.453980 4.140684 -0.235416 0
M  V30 44 H -5.949649 4.107605 0.921706 0
M  V30 45 H -5.132169 1.424046 4.105899 0
M  V30 46 H -2.436753 1.049788 3.398759 0
M  V30 47 H -0.606544 1.030782 -0.599800 0
M  V30 48 H 0.930191 1.779846 -1.208005 0
M  V30 49 H 2.487750 -2.524145 -2.441254 0
M  V30 50 H 3.330990 -4.746080 -1.798907 0
M  V30 END ATOM
M  V30 BEGIN BOND
M  V30 1 1 1 2
M  V30 2 2 2 3
M  V30 3 1 2 4
M  V30 4 2 4 5
M  V30 5 1 5 6
M  V30 6 2 6 7
M  V30 7 1 7 8
M  V30 8 1 8 9
M  V30 9 1 9 10
M  V30 10 1 10 11
M  V30 11 1 11 12
M  V30 12 1 12 13
M  V30 13 1 13 14
M  V30 14 1 14 15
M  V30 15 2 15 16
M  V30 16 1 16 17
M  V30 17 2 17 18
M  V30 18 1 18 19
M  V30 19 1 19 20
M  V30 20 2 20 21
M  V30 21 1 21 22
M  V30 22 2 22 23
M  V30 23 1 13 24
M  V30 24 1 7 25
M  V30 25 2 25 26
M  V30 26 1 26 4
M  V30 27 1 24 9
M  V30 28 1 23 15
M  V30 29 1 22 18
M  V30 30 1 1 27
M  V30 31 1 1 28
M  V30 32 1 1 29
M  V30 33 1 5 30
M  V30 34 1 6 31
M  V30 35 1 8 32
M  V30 36 1 8 33
M  V30 37 1 10 34
M  V30 38 1 10 35
M  V30 39 1 11 36
M  V30 40 1 11 37
M  V30 41 1 12 38
M  V30 42 1 12 39
M  V30 43 1 13 40
M  V30 44 1 14 41
M  V30 45 1 16 42
M  V30 46 1 17 43
M  V30 47 1 19 44
M  V30 48 1 21 45
M  V30 49 1 23 46
M  V30 50 1 24 47
M  V30 51 1 24 48
M  V30 52 1 25 49
M  V30 53 1 26 50
M  V30 END BOND
M  V30 END CTAB
M  END
>  <Dataset>  (952) 
ChEMBL_Kinases

>  <Ligand_Instance>  (952) 
nan

>  <PDB_ID>  (952) 
nan

>  <Standardized_SMILES>  (952) 
CC(=O)c1ccc(CN2CCCC(Nc3ccc4[nH]ncc4c3)C2)cc1

>  <Name>  (952) 
nan

>  <Pocket>  (952) 
nan

>  <ATP_Site>  (952) 
nan

>  <Peripheral>  (952) 
nan

>  <Num_H_Atoms_ProtBoundConf>  (952) 
nan

>  <Num_Resolved_Atoms>  (952) 
nan

>  <Num_Not_Resolved_Atoms>  (952) 
nan

$$$$
CHEMBL3689369
     RDKit          3D

  0  0  0  0  0  0  0  0  0  0999 V3000
M  V30 BEGIN CTAB
M  V30 COUNTS 49 52 0 0 0
M  V30 BEGIN ATOM
M  V30 1 O 0.135227 -4.566267 3.486164 0
M  V30 2 C 0.555231 -5.236851 2.319200 0
M  V30 3 C 0.928428 -4.257502 1.267318 0
M  V30 4 C 2.180201 -3.749998 1.105460 0
M  V30 5 C 2.433795 -2.846003 0.101723 0
M  V30 6 C 1.438371 -2.414799 -0.781222 0
M  V30 7 C 1.947238 -1.447208 -1.781968 0
M  V30 8 N 1.861536 -0.131280 -1.247754 0
M  V30 9 C 2.331746 0.891509 -2.171860 0
M  V30 10 C 2.657381 2.103177 -1.373944 0
M  V30 11 C 1.568612 2.555326 -0.455575 0
M  V30 12 C 0.820276 1.426895 0.204953 0
M  V30 13 N -0.481535 1.846169 0.667255 0
M  V30 14 C -1.409219 1.195360 1.516651 0
M  V30 15 C -1.204614 -0.013796 2.140552 0
M  V30 16 C -2.111477 -0.657588 2.954679 0
M  V30 17 C -3.323203 -0.034475 3.158823 0
M  V30 18 N -4.423979 -0.333317 3.859706 0
M  V30 19 N -5.344387 0.618649 3.729732 0
M  V30 20 C -4.862531 1.590460 2.921890 0
M  V30 21 C -3.580433 1.178618 2.558275 0
M  V30 22 C -2.636137 1.773360 1.755256 0
M  V30 23 C 0.588973 0.284379 -0.769187 0
M  V30 24 C 0.176900 -2.937687 -0.604559 0
M  V30 25 C -0.048474 -3.842277 0.410272 0
M  V30 26 H 0.535274 -3.651612 3.457483 0
M  V30 27 H -0.292470 -5.844363 1.970948 0
M  V30 28 H 1.384107 -5.902903 2.579290 0
M  V30 29 H 2.945484 -4.093117 1.798326 0
M  V30 30 H 3.477261 -2.509081 0.071173 0
M  V30 31 H 2.959516 -1.698378 -2.113808 0
M  V30 32 H 1.215284 -1.493214 -2.634878 0
M  V30 33 H 3.224464 0.573481 -2.726287 0
M  V30 34 H 1.488180 1.131852 -2.855317 0
M  V30 35 H 2.824299 2.937601 -2.112504 0
M  V30 36 H 3.620184 1.960311 -0.846447 0
M  V30 37 H 2.024874 3.180295 0.339690 0
M  V30 38 H 0.830304 3.191699 -0.980514 0
M  V30 39 H 1.383434 1.027155 1.060050 0
M  V30 40 H -0.774828 2.799853 0.299940 0
M  V30 41 H -0.276406 -0.527323 2.023176 0
M  V30 42 H -1.899495 -1.609836 3.421310 0
M  V30 43 H -4.480906 -1.219658 4.414796 0
M  V30 44 H -5.347188 2.492674 2.614594 0
M  V30 45 H -2.889147 2.717233 1.313134 0
M  V30 46 H 0.031618 -0.507277 -0.270211 0
M  V30 47 H 0.026009 0.679339 -1.666230 0
M  V30 48 H -0.535498 -2.559144 -1.327717 0
M  V30 49 H -1.079378 -4.177891 0.443762 0
M  V30 END ATOM
M  V30 BEGIN BOND
M  V30 1 1 1 2
M  V30 2 1 2 3
M  V30 3 2 3 4
M  V30 4 1 4 5
M  V30 5 2 5 6
M  V30 6 1 6 7
M  V30 7 1 7 8
M  V30 8 1 8 9
M  V30 9 1 9 10
M  V30 10 1 10 11
M  V30 11 1 11 12
M  V30 12 1 12 13
M  V30 13 1 13 14
M  V30 14 2 14 15
M  V30 15 1 15 16
M  V30 16 2 16 17
M  V30 17 1 17 18
M  V30 18 1 18 19
M  V30 19 2 19 20
M  V30 20 1 20 21
M  V30 21 2 21 22
M  V30 22 1 12 23
M  V30 23 1 6 24
M  V30 24 2 24 25
M  V30 25 1 25 3
M  V30 26 1 23 8
M  V30 27 1 22 14
M  V30 28 1 21 17
M  V30 29 1 1 26
M  V30 30 1 2 27
M  V30 31 1 2 28
M  V30 32 1 4 29
M  V30 33 1 5 30
M  V30 34 1 7 31
M  V30 35 1 7 32
M  V30 36 1 9 33
M  V30 37 1 9 34
M  V30 38 1 10 35
M  V30 39 1 10 36
M  V30 40 1 11 37
M  V30 41 1 11 38
M  V30 42 1 12 39
M  V30 43 1 13 40
M  V30 44 1 15 41
M  V30 45 1 16 42
M  V30 46 1 18 43
M  V30 47 1 20 44
M  V30 48 1 22 45
M  V30 49 1 23 46
M  V30 50 1 23 47
M  V30 51 1 24 48
M  V30 52 1 25 49
M  V30 END BOND
M  V30 END CTAB
M  END
>  <Dataset>  (953) 
ChEMBL_Kinases

>  <Ligand_Instance>  (953) 
nan

>  <PDB_ID>  (953) 
nan

>  <Standardized_SMILES>  (953) 
OCc1ccc(CN2CCCC(Nc3ccc4[nH]ncc4c3)C2)cc1

>  <Name>  (953) 
nan

>  <Pocket>  (953) 
nan

>  <ATP_Site>  (953) 
nan

>  <Peripheral>  (953) 
nan

>  <Num_H_Atoms_ProtBoundConf>  (953) 
nan

>  <Num_Resolved_Atoms>  (953) 
nan

>  <Num_Not_Resolved_Atoms>  (953) 
nan

$$$$
CHEMBL3689370
     RDKit          3D

  0  0  0  0  0  0  0  0  0  0999 V3000
M  V30 BEGIN CTAB
M  V30 COUNTS 53 57 0 0 0
M  V30 BEGIN ATOM
M  V30 1 C 1.274958 -1.105214 1.797050 0
M  V30 2 C 1.866655 -2.005843 0.936254 0
M  V30 3 C 2.967932 -1.659477 0.179587 0
M  V30 4 S 3.748239 -2.813535 -0.943413 0
M  V30 5 C 2.968067 -2.649891 -2.579940 0
M  V30 6 C 1.568248 -3.022151 -2.809437 0
M  V30 7 C 2.743676 -3.804719 -3.451264 0
M  V30 8 C 3.494175 -0.386566 0.280886 0
M  V30 9 C 2.895889 0.511036 1.145312 0
M  V30 10 C 1.777490 0.172061 1.919342 0
M  V30 11 C 1.318145 1.303164 2.764947 0
M  V30 12 N 0.392378 2.133840 2.097018 0
M  V30 13 C -0.103173 3.274219 2.776355 0
M  V30 14 C -1.117648 2.891568 3.815183 0
M  V30 15 C -1.929254 1.705433 3.482276 0
M  V30 16 C -1.918229 1.234918 2.063340 0
M  V30 17 N -2.114973 -0.201552 2.046736 0
M  V30 18 C -2.237172 -1.015411 0.893031 0
M  V30 19 C -2.207403 -0.550350 -0.402060 0
M  V30 20 C -2.318767 -1.337458 -1.529133 0
M  V30 21 C -2.473388 -2.703265 -1.376811 0
M  V30 22 N -2.611342 -3.772805 -2.181499 0
M  V30 23 N -2.726976 -4.884834 -1.473774 0
M  V30 24 C -2.668969 -4.590189 -0.156214 0
M  V30 25 C -2.507682 -3.204256 -0.096170 0
M  V30 26 C -2.392727 -2.378629 0.978762 0
M  V30 27 C -0.634406 1.521372 1.334738 0
M  V30 28 H 0.425810 -1.280337 2.421630 0
M  V30 29 H 1.443480 -2.989238 0.871508 0
M  V30 30 H 3.315376 -1.711749 -3.096596 0
M  V30 31 H 0.982479 -2.432024 -3.564497 0
M  V30 32 H 0.950833 -3.585046 -2.104089 0
M  V30 33 H 2.889079 -3.677208 -4.555421 0
M  V30 34 H 2.903671 -4.829410 -3.045192 0
M  V30 35 H 4.360741 -0.126964 -0.319815 0
M  V30 36 H 3.384654 1.496476 1.157653 0
M  V30 37 H 2.159353 1.911401 3.139056 0
M  V30 38 H 0.790598 0.826037 3.636024 0
M  V30 39 H -0.628786 3.910647 2.023679 0
M  V30 40 H 0.671424 3.922361 3.221968 0
M  V30 41 H -0.545949 2.700897 4.770570 0
M  V30 42 H -1.727443 3.807757 4.037598 0
M  V30 43 H -1.719014 0.868254 4.183923 0
M  V30 44 H -3.004064 1.983633 3.698175 0
M  V30 45 H -2.752722 1.671774 1.479488 0
M  V30 46 H -2.176652 -0.716820 2.970931 0
M  V30 47 H -2.094421 0.502333 -0.591811 0
M  V30 48 H -2.290907 -0.931134 -2.533642 0
M  V30 49 H -2.624125 -3.730707 -3.218408 0
M  V30 50 H -2.733959 -5.281238 0.680482 0
M  V30 51 H -2.425731 -2.826481 1.981999 0
M  V30 52 H -0.190881 0.621961 0.846872 0
M  V30 53 H -0.830522 2.219376 0.464418 0
M  V30 END ATOM
M  V30 BEGIN BOND
M  V30 1 2 1 2
M  V30 2 1 2 3
M  V30 3 1 3 4
M  V30 4 1 4 5
M  V30 5 1 5 6
M  V30 6 1 6 7
M  V30 7 2 3 8
M  V30 8 1 8 9
M  V30 9 2 9 10
M  V30 10 1 10 11
M  V30 11 1 11 12
M  V30 12 1 12 13
M  V30 13 1 13 14
M  V30 14 1 14 15
M  V30 15 1 15 16
M  V30 16 1 16 17
M  V30 17 1 17 18
M  V30 18 2 18 19
M  V30 19 1 19 20
M  V30 20 2 20 21
M  V30 21 1 21 22
M  V30 22 1 22 23
M  V30 23 2 23 24
M  V30 24 1 24 25
M  V30 25 2 25 26
M  V30 26 1 16 27
M  V30 27 1 10 1
M  V30 28 1 27 12
M  V30 29 1 7 5
M  V30 30 1 26 18
M  V30 31 1 25 21
M  V30 32 1 1 28
M  V30 33 1 2 29
M  V30 34 1 5 30
M  V30 35 1 6 31
M  V30 36 1 6 32
M  V30 37 1 7 33
M  V30 38 1 7 34
M  V30 39 1 8 35
M  V30 40 1 9 36
M  V30 41 1 11 37
M  V30 42 1 11 38
M  V30 43 1 13 39
M  V30 44 1 13 40
M  V30 45 1 14 41
M  V30 46 1 14 42
M  V30 47 1 15 43
M  V30 48 1 15 44
M  V30 49 1 16 45
M  V30 50 1 17 46
M  V30 51 1 19 47
M  V30 52 1 20 48
M  V30 53 1 22 49
M  V30 54 1 24 50
M  V30 55 1 26 51
M  V30 56 1 27 52
M  V30 57 1 27 53
M  V30 END BOND
M  V30 END CTAB
M  END
>  <Dataset>  (954) 
ChEMBL_Kinases

>  <Ligand_Instance>  (954) 
nan

>  <PDB_ID>  (954) 
nan

>  <Standardized_SMILES>  (954) 
c1cc(SC2CC2)ccc1CN1CCCC(Nc2ccc3[nH]ncc3c2)C1

>  <Name>  (954) 
nan

>  <Pocket>  (954) 
nan

>  <ATP_Site>  (954) 
nan

>  <Peripheral>  (954) 
nan

>  <Num_H_Atoms_ProtBoundConf>  (954) 
nan

>  <Num_Resolved_Atoms>  (954) 
nan

>  <Num_Not_Resolved_Atoms>  (954) 
nan

$$$$
CHEMBL3689371
     RDKit          3D

  0  0  0  0  0  0  0  0  0  0999 V3000
M  V30 BEGIN CTAB
M  V30 COUNTS 65 68 0 0 0
M  V30 BEGIN ATOM
M  V30 1 C 5.551479 -0.494615 -1.468594 0
M  V30 2 C 6.501130 0.446997 -0.776532 0
M  V30 3 C 7.462596 -0.389053 0.043011 0
M  V30 4 C 7.295546 1.162117 -1.843714 0
M  V30 5 O 5.754141 1.316439 0.037572 0
M  V30 6 C 4.789260 2.166559 -0.418710 0
M  V30 7 O 4.504943 2.223330 -1.622327 0
M  V30 8 N 4.137733 2.972143 0.549321 0
M  V30 9 C 3.091107 3.928373 0.241244 0
M  V30 10 C 1.779442 3.281535 -0.023081 0
M  V30 11 C 1.258860 2.843843 -1.221175 0
M  V30 12 C 0.010103 2.260255 -1.271928 0
M  V30 13 C -0.777733 2.082435 -0.151208 0
M  V30 14 C -2.122573 1.451358 -0.217267 0
M  V30 15 N -2.071997 0.038402 -0.051738 0
M  V30 16 C -1.534965 -0.452760 1.160487 0
M  V30 17 C -1.198667 -1.900568 1.074761 0
M  V30 18 C -2.243104 -2.740917 0.372962 0
M  V30 19 C -3.497023 -1.991001 0.036646 0
M  V30 20 N -4.480947 -1.944069 1.076878 0
M  V30 21 C -5.221536 -2.973722 1.659728 0
M  V30 22 C -6.132785 -2.728524 2.694610 0
M  V30 23 C -6.864943 -3.751574 3.257949 0
M  V30 24 C -6.737266 -5.057236 2.834021 0
M  V30 25 N -7.332176 -6.195341 3.223605 0
M  V30 26 N -6.839807 -7.188492 2.474905 0
M  V30 27 C -5.935106 -6.695982 1.609733 0
M  V30 28 C -5.849920 -5.339794 1.816652 0
M  V30 29 C -5.119070 -4.289853 1.260175 0
M  V30 30 C -3.192530 -0.671117 -0.578500 0
M  V30 31 C -0.263133 2.520579 1.066473 0
M  V30 32 C 0.986450 3.104561 1.117207 0
M  V30 33 H 5.950308 -1.528783 -1.521187 0
M  V30 34 H 4.591245 -0.510742 -0.930361 0
M  V30 35 H 5.334812 -0.094441 -2.494674 0
M  V30 36 H 8.481137 0.048580 0.064723 0
M  V30 37 H 7.570616 -1.365661 -0.469708 0
M  V30 38 H 7.065657 -0.594426 1.056249 0
M  V30 39 H 8.184106 0.516343 -2.075138 0
M  V30 40 H 6.746898 1.241432 -2.812490 0
M  V30 41 H 7.695990 2.135480 -1.515939 0
M  V30 42 H 4.402847 2.901456 1.573451 0
M  V30 43 H 3.460571 4.452155 -0.690447 0
M  V30 44 H 2.981805 4.687046 1.052642 0
M  V30 45 H 1.909665 3.005488 -2.063894 0
M  V30 46 H -0.351249 1.935414 -2.229470 0
M  V30 47 H -2.502094 1.655883 -1.244509 0
M  V30 48 H -2.842415 1.955285 0.461808 0
M  V30 49 H -2.144506 -0.188435 2.054904 0
M  V30 50 H -0.562985 0.093789 1.333425 0
M  V30 51 H -1.028562 -2.249759 2.134716 0
M  V30 52 H -0.198522 -2.003435 0.597677 0
M  V30 53 H -2.363648 -3.640263 0.973468 0
M  V30 54 H -1.767602 -3.081216 -0.593538 0
M  V30 55 H -3.991793 -2.613056 -0.776566 0
M  V30 56 H -4.650623 -0.963976 1.440901 0
M  V30 57 H -6.264767 -1.715964 3.059623 0
M  V30 58 H -7.559755 -3.491392 4.062992 0
M  V30 59 H -8.064120 -6.345789 3.978573 0
M  V30 60 H -5.344078 -7.205726 0.861933 0
M  V30 61 H -4.466919 -4.601704 0.482034 0
M  V30 62 H -4.122284 -0.030355 -0.538834 0
M  V30 63 H -2.995386 -0.819753 -1.661159 0
M  V30 64 H -0.855300 2.396294 1.965572 0
M  V30 65 H 1.312379 3.418121 2.104851 0
M  V30 END ATOM
M  V30 BEGIN BOND
M  V30 1 1 1 2
M  V30 2 1 2 3
M  V30 3 1 2 4
M  V30 4 1 2 5
M  V30 5 1 5 6
M  V30 6 2 6 7
M  V30 7 1 6 8
M  V30 8 1 8 9
M  V30 9 1 9 10
M  V30 10 2 10 11
M  V30 11 1 11 12
M  V30 12 2 12 13
M  V30 13 1 13 14
M  V30 14 1 14 15
M  V30 15 1 15 16
M  V30 16 1 16 17
M  V30 17 1 17 18
M  V30 18 1 18 19
M  V30 19 1 19 20
M  V30 20 1 20 21
M  V30 21 2 21 22
M  V30 22 1 22 23
M  V30 23 2 23 24
M  V30 24 1 24 25
M  V30 25 1 25 26
M  V30 26 2 26 27
M  V30 27 1 27 28
M  V30 28 2 28 29
M  V30 29 1 19 30
M  V30 30 1 13 31
M  V30 31 2 31 32
M  V30 32 1 32 10
M  V30 33 1 30 15
M  V30 34 1 29 21
M  V30 35 1 28 24
M  V30 36 1 1 33
M  V30 37 1 1 34
M  V30 38 1 1 35
M  V30 39 1 3 36
M  V30 40 1 3 37
M  V30 41 1 3 38
M  V30 42 1 4 39
M  V30 43 1 4 40
M  V30 44 1 4 41
M  V30 45 1 8 42
M  V30 46 1 9 43
M  V30 47 1 9 44
M  V30 48 1 11 45
M  V30 49 1 12 46
M  V30 50 1 14 47
M  V30 51 1 14 48
M  V30 52 1 16 49
M  V30 53 1 16 50
M  V30 54 1 17 51
M  V30 55 1 17 52
M  V30 56 1 18 53
M  V30 57 1 18 54
M  V30 58 1 19 55
M  V30 59 1 20 56
M  V30 60 1 22 57
M  V30 61 1 23 58
M  V30 62 1 25 59
M  V30 63 1 27 60
M  V30 64 1 29 61
M  V30 65 1 30 62
M  V30 66 1 30 63
M  V30 67 1 31 64
M  V30 68 1 32 65
M  V30 END BOND
M  V30 END CTAB
M  END
>  <Dataset>  (955) 
ChEMBL_Kinases

>  <Ligand_Instance>  (955) 
nan

>  <PDB_ID>  (955) 
nan

>  <Standardized_SMILES>  (955) 
CC(C)(C)OC(=O)NCc1ccc(CN2CCCC(Nc3ccc4[nH]ncc4c3)C2)cc1

>  <Name>  (955) 
nan

>  <Pocket>  (955) 
nan

>  <ATP_Site>  (955) 
nan

>  <Peripheral>  (955) 
nan

>  <Num_H_Atoms_ProtBoundConf>  (955) 
nan

>  <Num_Resolved_Atoms>  (955) 
nan

>  <Num_Not_Resolved_Atoms>  (955) 
nan

$$$$
CHEMBL3689373
     RDKit          3D

  0  0  0  0  0  0  0  0  0  0999 V3000
M  V30 BEGIN CTAB
M  V30 COUNTS 48 51 0 0 0
M  V30 BEGIN ATOM
M  V30 1 C -2.589034 -5.765897 -0.382165 0
M  V30 2 C -1.570461 -5.271616 -1.189324 0
M  V30 3 C -0.878037 -4.121314 -0.890360 0
M  V30 4 C -1.200104 -3.420495 0.257111 0
M  V30 5 C -0.507760 -2.150458 0.680716 0
M  V30 6 N -1.209644 -1.080796 0.110067 0
M  V30 7 C -1.325380 -0.999657 -1.269289 0
M  V30 8 C -1.620003 0.327671 -1.856991 0
M  V30 9 C -0.529396 1.359015 -1.674505 0
M  V30 10 C 0.052624 1.082672 -0.295159 0
M  V30 11 N 1.198889 1.912525 0.008881 0
M  V30 12 C 2.036828 1.941632 1.173207 0
M  V30 13 C 3.099904 2.812105 1.310456 0
M  V30 14 C 3.825551 2.733437 2.477637 0
M  V30 15 C 3.538395 1.841431 3.488543 0
M  V30 16 N 4.114197 1.601775 4.697433 0
M  V30 17 N 3.448667 0.633871 5.286163 0
M  V30 18 C 2.439366 0.210874 4.512168 0
M  V30 19 C 2.466363 0.952729 3.367447 0
M  V30 20 C 1.730030 1.034719 2.179562 0
M  V30 21 C -1.078271 1.297660 0.676371 0
M  V30 22 C -1.677964 -0.055283 0.953667 0
M  V30 23 C -2.222749 -3.942679 1.040518 0
M  V30 24 C -2.934203 -5.082507 0.777156 0
M  V30 25 H -3.149678 -6.670121 -0.595961 0
M  V30 26 H -1.321269 -5.829692 -2.093600 0
M  V30 27 H -0.090448 -3.737723 -1.513022 0
M  V30 28 H 0.568242 -2.247729 0.427459 0
M  V30 29 H -0.571748 -2.145706 1.781001 0
M  V30 30 H -0.360323 -1.357044 -1.732741 0
M  V30 31 H -2.086159 -1.708989 -1.652246 0
M  V30 32 H -1.683517 0.176810 -2.974190 0
M  V30 33 H -2.627653 0.693406 -1.578214 0
M  V30 34 H -1.063714 2.353072 -1.632084 0
M  V30 35 H 0.215529 1.380097 -2.471667 0
M  V30 36 H 0.400208 0.029284 -0.309699 0
M  V30 37 H 1.458603 2.606914 -0.748218 0
M  V30 38 H 3.262379 3.474893 0.486271 0
M  V30 39 H 4.656791 3.434455 2.552516 0
M  V30 40 H 4.953502 2.143592 5.037861 0
M  V30 41 H 1.714624 -0.564442 4.708526 0
M  V30 42 H 0.923907 0.307372 2.178392 0
M  V30 43 H -0.792824 1.861013 1.587172 0
M  V30 44 H -1.899401 1.911821 0.217841 0
M  V30 45 H -1.385969 -0.314608 1.992572 0
M  V30 46 H -2.797349 -0.036690 0.975809 0
M  V30 47 H -2.468963 -3.387546 1.937921 0
M  V30 48 H -3.718553 -5.391064 1.473717 0
M  V30 END ATOM
M  V30 BEGIN BOND
M  V30 1 2 1 2
M  V30 2 1 2 3
M  V30 3 2 3 4
M  V30 4 1 4 5
M  V30 5 1 5 6
M  V30 6 1 6 7
M  V30 7 1 7 8
M  V30 8 1 8 9
M  V30 9 1 9 10
M  V30 10 1 10 11
M  V30 11 1 11 12
M  V30 12 2 12 13
M  V30 13 1 13 14
M  V30 14 2 14 15
M  V30 15 1 15 16
M  V30 16 1 16 17
M  V30 17 2 17 18
M  V30 18 1 18 19
M  V30 19 2 19 20
M  V30 20 1 10 21
M  V30 21 1 21 22
M  V30 22 1 4 23
M  V30 23 2 23 24
M  V30 24 1 24 1
M  V30 25 1 22 6
M  V30 26 1 20 12
M  V30 27 1 19 15
M  V30 28 1 1 25
M  V30 29 1 2 26
M  V30 30 1 3 27
M  V30 31 1 5 28
M  V30 32 1 5 29
M  V30 33 1 7 30
M  V30 34 1 7 31
M  V30 35 1 8 32
M  V30 36 1 8 33
M  V30 37 1 9 34
M  V30 38 1 9 35
M  V30 39 1 10 36
M  V30 40 1 11 37
M  V30 41 1 13 38
M  V30 42 1 14 39
M  V30 43 1 16 40
M  V30 44 1 18 41
M  V30 45 1 20 42
M  V30 46 1 21 43
M  V30 47 1 21 44
M  V30 48 1 22 45
M  V30 49 1 22 46
M  V30 50 1 23 47
M  V30 51 1 24 48
M  V30 END BOND
M  V30 END CTAB
M  END
>  <Dataset>  (956) 
ChEMBL_Kinases

>  <Ligand_Instance>  (956) 
nan

>  <PDB_ID>  (956) 
nan

>  <Standardized_SMILES>  (956) 
c1ccc(CN2CCCC(Nc3ccc4[nH]ncc4c3)CC2)cc1

>  <Name>  (956) 
nan

>  <Pocket>  (956) 
nan

>  <ATP_Site>  (956) 
nan

>  <Peripheral>  (956) 
nan

>  <Num_H_Atoms_ProtBoundConf>  (956) 
nan

>  <Num_Resolved_Atoms>  (956) 
nan

>  <Num_Not_Resolved_Atoms>  (956) 
nan

$$$$
CHEMBL3689374
     RDKit          3D

  0  0  0  0  0  0  0  0  0  0999 V3000
M  V30 BEGIN CTAB
M  V30 COUNTS 53 56 0 0 0
M  V30 BEGIN ATOM
M  V30 1 C -0.336171 -6.036536 1.953729 0
M  V30 2 N -0.738844 -5.190429 0.819772 0
M  V30 3 C -2.053860 -5.305861 0.215817 0
M  V30 4 C 0.180189 -4.227944 0.293284 0
M  V30 5 C -0.188933 -3.417329 -0.784927 0
M  V30 6 C 0.726583 -2.497722 -1.266178 0
M  V30 7 C 1.978712 -2.392156 -0.683465 0
M  V30 8 C 2.850370 -1.364183 -1.303682 0
M  V30 9 N 2.742045 -0.075119 -0.737724 0
M  V30 10 C 3.065137 0.022583 0.647947 0
M  V30 11 C 2.939217 1.369489 1.250866 0
M  V30 12 C 1.777465 2.178295 0.710038 0
M  V30 13 C 0.894296 1.192138 0.003723 0
M  V30 14 N -0.425982 1.608409 -0.287761 0
M  V30 15 C -1.468240 1.907442 0.623396 0
M  V30 16 C -1.363261 1.810466 1.992697 0
M  V30 17 C -2.367538 2.105567 2.888772 0
M  V30 18 C -3.570267 2.530700 2.365045 0
M  V30 19 N -4.735563 2.894169 2.929748 0
M  V30 20 N -5.587723 3.221175 1.981188 0
M  V30 21 C -5.037807 3.092266 0.766328 0
M  V30 22 C -3.748871 2.651288 1.007762 0
M  V30 23 C -2.696546 2.337503 0.176488 0
M  V30 24 C 1.681113 0.748366 -1.211099 0
M  V30 25 C 2.372356 -3.187724 0.392329 0
M  V30 26 C 1.436973 -4.098028 0.852393 0
M  V30 27 H 0.574225 -6.619866 1.683785 0
M  V30 28 H -1.135009 -6.752282 2.162820 0
M  V30 29 H -0.052492 -5.417266 2.821539 0
M  V30 30 H -2.628846 -4.362683 0.422293 0
M  V30 31 H -1.988687 -5.408198 -0.887895 0
M  V30 32 H -2.607153 -6.123041 0.690253 0
M  V30 33 H -1.185108 -3.560587 -1.184350 0
M  V30 34 H 0.355838 -1.932981 -2.080562 0
M  V30 35 H 2.663227 -1.284315 -2.394312 0
M  V30 36 H 3.905936 -1.699766 -1.193923 0
M  V30 37 H 2.508227 -0.749871 1.239013 0
M  V30 38 H 4.146754 -0.274919 0.752308 0
M  V30 39 H 2.739645 1.252996 2.337505 0
M  V30 40 H 3.849884 2.000179 1.181699 0
M  V30 41 H 2.192525 2.876338 -0.078707 0
M  V30 42 H 1.252433 2.775426 1.454843 0
M  V30 43 H 0.821964 0.329729 0.741902 0
M  V30 44 H -0.637248 1.700685 -1.309738 0
M  V30 45 H -0.444294 1.475642 2.441280 0
M  V30 46 H -2.232526 2.012177 3.960436 0
M  V30 47 H -4.856968 2.887654 3.975520 0
M  V30 48 H -5.474196 3.281730 -0.213506 0
M  V30 49 H -2.865765 2.441738 -0.887872 0
M  V30 50 H 2.162008 1.681518 -1.630335 0
M  V30 51 H 1.087713 0.350781 -2.023963 0
M  V30 52 H 3.363035 -3.054588 0.800127 0
M  V30 53 H 1.746094 -4.717039 1.690954 0
M  V30 END ATOM
M  V30 BEGIN BOND
M  V30 1 1 1 2
M  V30 2 1 2 3
M  V30 3 1 2 4
M  V30 4 2 4 5
M  V30 5 1 5 6
M  V30 6 2 6 7
M  V30 7 1 7 8
M  V30 8 1 8 9
M  V30 9 1 9 10
M  V30 10 1 10 11
M  V30 11 1 11 12
M  V30 12 1 12 13
M  V30 13 1 13 14
M  V30 14 1 14 15
M  V30 15 2 15 16
M  V30 16 1 16 17
M  V30 17 2 17 18
M  V30 18 1 18 19
M  V30 19 1 19 20
M  V30 20 2 20 21
M  V30 21 1 21 22
M  V30 22 2 22 23
M  V30 23 1 13 24
M  V30 24 1 7 25
M  V30 25 2 25 26
M  V30 26 1 26 4
M  V30 27 1 24 9
M  V30 28 1 23 15
M  V30 29 1 22 18
M  V30 30 1 1 27
M  V30 31 1 1 28
M  V30 32 1 1 29
M  V30 33 1 3 30
M  V30 34 1 3 31
M  V30 35 1 3 32
M  V30 36 1 5 33
M  V30 37 1 6 34
M  V30 38 1 8 35
M  V30 39 1 8 36
M  V30 40 1 10 37
M  V30 41 1 10 38
M  V30 42 1 11 39
M  V30 43 1 11 40
M  V30 44 1 12 41
M  V30 45 1 12 42
M  V30 46 1 13 43
M  V30 47 1 14 44
M  V30 48 1 16 45
M  V30 49 1 17 46
M  V30 50 1 19 47
M  V30 51 1 21 48
M  V30 52 1 23 49
M  V30 53 1 24 50
M  V30 54 1 24 51
M  V30 55 1 25 52
M  V30 56 1 26 53
M  V30 END BOND
M  V30 END CTAB
M  END
>  <Dataset>  (957) 
ChEMBL_Kinases

>  <Ligand_Instance>  (957) 
nan

>  <PDB_ID>  (957) 
nan

>  <Standardized_SMILES>  (957) 
CN(C)c1ccc(CN2CCCC(Nc3ccc4[nH]ncc4c3)C2)cc1

>  <Name>  (957) 
nan

>  <Pocket>  (957) 
nan

>  <ATP_Site>  (957) 
nan

>  <Peripheral>  (957) 
nan

>  <Num_H_Atoms_ProtBoundConf>  (957) 
nan

>  <Num_Resolved_Atoms>  (957) 
nan

>  <Num_Not_Resolved_Atoms>  (957) 
nan

$$$$
CHEMBL3689375
     RDKit          3D

  0  0  0  0  0  0  0  0  0  0999 V3000
M  V30 BEGIN CTAB
M  V30 COUNTS 51 54 0 0 0
M  V30 BEGIN ATOM
M  V30 1 C 0.132359 -6.699189 2.269972 0
M  V30 2 C 0.372906 -5.315670 2.817829 0
M  V30 3 C 0.746216 -4.351745 1.758454 0
M  V30 4 C -0.234527 -3.644097 1.107517 0
M  V30 5 C 0.165692 -2.765895 0.136487 0
M  V30 6 C 1.487683 -2.533692 -0.243010 0
M  V30 7 C 1.742744 -1.548659 -1.312662 0
M  V30 8 N 1.934736 -0.230062 -0.894437 0
M  V30 9 C 3.001064 0.054741 -0.021376 0
M  V30 10 C 3.441030 1.483633 0.028412 0
M  V30 11 C 2.328500 2.466558 -0.213845 0
M  V30 12 C 1.047091 1.714563 0.095780 0
M  V30 13 N -0.090806 2.550001 0.220100 0
M  V30 14 C -1.412068 2.184888 0.599675 0
M  V30 15 C -1.793536 0.907085 0.943180 0
M  V30 16 C -3.065444 0.552329 1.301431 0
M  V30 17 C -4.023008 1.549868 1.316610 0
M  V30 18 N -5.329041 1.521932 1.616801 0
M  V30 19 N -5.848323 2.728550 1.491120 0
M  V30 20 C -4.883377 3.584039 1.101320 0
M  V30 21 C -3.716194 2.842563 0.987243 0
M  V30 22 C -2.415522 3.129221 0.636062 0
M  V30 23 C 0.933899 0.733481 -1.078035 0
M  V30 24 C 2.435379 -3.266336 0.437721 0
M  V30 25 C 2.080379 -4.170405 1.431615 0
M  V30 26 H -0.880959 -6.677850 1.790201 0
M  V30 27 H 0.934469 -7.010983 1.573424 0
M  V30 28 H 0.083570 -7.387711 3.156170 0
M  V30 29 H 1.130497 -5.342526 3.641442 0
M  V30 30 H -0.585475 -4.971879 3.280972 0
M  V30 31 H -1.267966 -3.789734 1.366209 0
M  V30 32 H -0.634142 -2.216543 -0.365041 0
M  V30 33 H 0.884109 -1.586997 -2.007142 0
M  V30 34 H 2.629526 -1.855228 -1.919403 0
M  V30 35 H 2.783647 -0.267940 1.018521 0
M  V30 36 H 3.895434 -0.548039 -0.340738 0
M  V30 37 H 4.237552 1.642738 -0.749888 0
M  V30 38 H 3.872336 1.706161 1.026230 0
M  V30 39 H 2.484226 3.360617 0.390233 0
M  V30 40 H 2.297652 2.727957 -1.311841 0
M  V30 41 H 1.227654 1.104183 0.995471 0
M  V30 42 H 0.083883 3.561318 0.000161 0
M  V30 43 H -1.079987 0.113398 0.948638 0
M  V30 44 H -3.329519 -0.468880 1.566527 0
M  V30 45 H -5.873503 0.698515 1.905272 0
M  V30 46 H -4.977023 4.642919 0.909374 0
M  V30 47 H -2.185144 4.151020 0.378502 0
M  V30 48 H -0.047508 0.272629 -1.167514 0
M  V30 49 H 1.187003 1.358611 -1.986664 0
M  V30 50 H 3.455778 -3.101071 0.159618 0
M  V30 51 H 2.883763 -4.719090 1.931966 0
M  V30 END ATOM
M  V30 BEGIN BOND
M  V30 1 1 1 2
M  V30 2 1 2 3
M  V30 3 2 3 4
M  V30 4 1 4 5
M  V30 5 2 5 6
M  V30 6 1 6 7
M  V30 7 1 7 8
M  V30 8 1 8 9
M  V30 9 1 9 10
M  V30 10 1 10 11
M  V30 11 1 11 12
M  V30 12 1 12 13
M  V30 13 1 13 14
M  V30 14 2 14 15
M  V30 15 1 15 16
M  V30 16 2 16 17
M  V30 17 1 17 18
M  V30 18 1 18 19
M  V30 19 2 19 20
M  V30 20 1 20 21
M  V30 21 2 21 22
M  V30 22 1 12 23
M  V30 23 1 6 24
M  V30 24 2 24 25
M  V30 25 1 25 3
M  V30 26 1 23 8
M  V30 27 1 22 14
M  V30 28 1 21 17
M  V30 29 1 1 26
M  V30 30 1 1 27
M  V30 31 1 1 28
M  V30 32 1 2 29
M  V30 33 1 2 30
M  V30 34 1 4 31
M  V30 35 1 5 32
M  V30 36 1 7 33
M  V30 37 1 7 34
M  V30 38 1 9 35
M  V30 39 1 9 36
M  V30 40 1 10 37
M  V30 41 1 10 38
M  V30 42 1 11 39
M  V30 43 1 11 40
M  V30 44 1 12 41
M  V30 45 1 13 42
M  V30 46 1 15 43
M  V30 47 1 16 44
M  V30 48 1 18 45
M  V30 49 1 20 46
M  V30 50 1 22 47
M  V30 51 1 23 48
M  V30 52 1 23 49
M  V30 53 1 24 50
M  V30 54 1 25 51
M  V30 END BOND
M  V30 END CTAB
M  END
>  <Dataset>  (958) 
ChEMBL_Kinases

>  <Ligand_Instance>  (958) 
nan

>  <PDB_ID>  (958) 
nan

>  <Standardized_SMILES>  (958) 
CCc1ccc(CN2CCCC(Nc3ccc4[nH]ncc4c3)C2)cc1

>  <Name>  (958) 
nan

>  <Pocket>  (958) 
nan

>  <ATP_Site>  (958) 
nan

>  <Peripheral>  (958) 
nan

>  <Num_H_Atoms_ProtBoundConf>  (958) 
nan

>  <Num_Resolved_Atoms>  (958) 
nan

>  <Num_Not_Resolved_Atoms>  (958) 
nan

$$$$
CHEMBL3689376
     RDKit          3D

  0  0  0  0  0  0  0  0  0  0999 V3000
M  V30 BEGIN CTAB
M  V30 COUNTS 47 50 0 0 0
M  V30 BEGIN ATOM
M  V30 1 C -2.175303 -7.046618 1.329736 0
M  V30 2 C -1.746421 -6.101957 0.707501 0
M  V30 3 C -1.237013 -4.964242 -0.011947 0
M  V30 4 C -1.500513 -4.749622 -1.343195 0
M  V30 5 C -0.959730 -3.634817 -1.909751 0
M  V30 6 C -0.169797 -2.704551 -1.256570 0
M  V30 7 C 0.345636 -1.537470 -2.018354 0
M  V30 8 N -0.526244 -0.408231 -1.988766 0
M  V30 9 C -0.065502 0.733961 -2.710939 0
M  V30 10 C 0.959939 1.570472 -1.979979 0
M  V30 11 C 0.483228 1.954637 -0.594882 0
M  V30 12 C 0.096446 0.697911 0.104721 0
M  V30 13 N -0.361861 0.858665 1.460668 0
M  V30 14 C 0.375878 1.246601 2.609716 0
M  V30 15 C 1.728206 1.509303 2.630003 0
M  V30 16 C 2.448272 1.897576 3.738731 0
M  V30 17 C 1.787162 2.042483 4.939023 0
M  V30 18 N 2.150093 2.395067 6.192419 0
M  V30 19 N 1.083408 2.367845 6.974581 0
M  V30 20 C -0.006817 2.001700 6.276611 0
M  V30 21 C 0.432016 1.790073 4.968593 0
M  V30 22 C -0.241325 1.404556 3.831657 0
M  V30 23 C -0.969363 -0.032074 -0.681555 0
M  V30 24 C 0.067246 -2.962201 0.077972 0
M  V30 25 C -0.449215 -4.071776 0.714299 0
M  V30 26 H -2.545019 -7.883850 1.893225 0
M  V30 27 H -2.108230 -5.448653 -1.880982 0
M  V30 28 H -1.187097 -3.489084 -2.974748 0
M  V30 29 H 0.420389 -1.848358 -3.097951 0
M  V30 30 H 1.369316 -1.355515 -1.629218 0
M  V30 31 H -0.910780 1.377587 -3.004677 0
M  V30 32 H 0.427317 0.424096 -3.668529 0
M  V30 33 H 1.090201 2.503059 -2.577891 0
M  V30 34 H 1.915559 1.033174 -1.936617 0
M  V30 35 H -0.346903 2.689274 -0.672565 0
M  V30 36 H 1.307087 2.466996 -0.076514 0
M  V30 37 H 1.042315 0.075255 0.149946 0
M  V30 38 H -1.386110 0.667078 1.644660 0
M  V30 39 H 2.309978 1.409470 1.743291 0
M  V30 40 H 3.511249 2.092976 3.704117 0
M  V30 41 H 3.152716 2.629625 6.382130 0
M  V30 42 H -1.013001 1.890088 6.634119 0
M  V30 43 H -1.301737 1.225195 3.935177 0
M  V30 44 H -1.810952 0.679463 -0.810672 0
M  V30 45 H -1.347105 -0.863149 -0.078645 0
M  V30 46 H 0.681086 -2.251761 0.611940 0
M  V30 47 H -0.228614 -4.224530 1.771704 0
M  V30 END ATOM
M  V30 BEGIN BOND
M  V30 1 3 1 2
M  V30 2 1 2 3
M  V30 3 2 3 4
M  V30 4 1 4 5
M  V30 5 2 5 6
M  V30 6 1 6 7
M  V30 7 1 7 8
M  V30 8 1 8 9
M  V30 9 1 9 10
M  V30 10 1 10 11
M  V30 11 1 11 12
M  V30 12 1 12 13
M  V30 13 1 13 14
M  V30 14 2 14 15
M  V30 15 1 15 16
M  V30 16 2 16 17
M  V30 17 1 17 18
M  V30 18 1 18 19
M  V30 19 2 19 20
M  V30 20 1 20 21
M  V30 21 2 21 22
M  V30 22 1 12 23
M  V30 23 1 6 24
M  V30 24 2 24 25
M  V30 25 1 25 3
M  V30 26 1 23 8
M  V30 27 1 22 14
M  V30 28 1 21 17
M  V30 29 1 1 26
M  V30 30 1 4 27
M  V30 31 1 5 28
M  V30 32 1 7 29
M  V30 33 1 7 30
M  V30 34 1 9 31
M  V30 35 1 9 32
M  V30 36 1 10 33
M  V30 37 1 10 34
M  V30 38 1 11 35
M  V30 39 1 11 36
M  V30 40 1 12 37
M  V30 41 1 13 38
M  V30 42 1 15 39
M  V30 43 1 16 40
M  V30 44 1 18 41
M  V30 45 1 20 42
M  V30 46 1 22 43
M  V30 47 1 23 44
M  V30 48 1 23 45
M  V30 49 1 24 46
M  V30 50 1 25 47
M  V30 END BOND
M  V30 END CTAB
M  END
>  <Dataset>  (959) 
ChEMBL_Kinases

>  <Ligand_Instance>  (959) 
nan

>  <PDB_ID>  (959) 
nan

>  <Standardized_SMILES>  (959) 
C#Cc1ccc(CN2CCCC(Nc3ccc4[nH]ncc4c3)C2)cc1

>  <Name>  (959) 
nan

>  <Pocket>  (959) 
nan

>  <ATP_Site>  (959) 
nan

>  <Peripheral>  (959) 
nan

>  <Num_H_Atoms_ProtBoundConf>  (959) 
nan

>  <Num_Resolved_Atoms>  (959) 
nan

>  <Num_Not_Resolved_Atoms>  (959) 
nan

$$$$
CHEMBL3689377
     RDKit          3D

  0  0  0  0  0  0  0  0  0  0999 V3000
M  V30 BEGIN CTAB
M  V30 COUNTS 50 53 0 0 0
M  V30 BEGIN ATOM
M  V30 1 N 1.875778 -5.659095 3.183222 0
M  V30 2 C 1.437536 -5.901848 1.832525 0
M  V30 3 C 1.453215 -4.661088 1.024765 0
M  V30 4 C 2.542992 -4.244107 0.300086 0
M  V30 5 C 2.569908 -3.097939 -0.451338 0
M  V30 6 C 1.440300 -2.308247 -0.488975 0
M  V30 7 C 1.255789 -1.034170 -1.226096 0
M  V30 8 N 1.586902 0.052757 -0.378550 0
M  V30 9 C 2.901867 0.103037 0.150332 0
M  V30 10 C 2.798958 0.918702 1.447443 0
M  V30 11 C 2.128984 2.226697 1.241596 0
M  V30 12 C 0.894547 2.198339 0.379156 0
M  V30 13 N -0.295108 1.751572 1.051335 0
M  V30 14 C -1.669181 1.752431 0.689865 0
M  V30 15 C -2.150963 2.285715 -0.485328 0
M  V30 16 C -3.477814 2.287040 -0.867847 0
M  V30 17 C -4.348334 1.699735 0.026420 0
M  V30 18 N -5.678633 1.502085 0.030654 0
M  V30 19 N -6.071824 0.870469 1.148065 0
M  V30 20 C -4.987689 0.634448 1.917854 0
M  V30 21 C -3.915307 1.152572 1.215781 0
M  V30 22 C -2.579647 1.177144 1.549861 0
M  V30 23 C 1.152728 1.340470 -0.874928 0
M  V30 24 C 0.330395 -2.723261 0.242700 0
M  V30 25 C 0.312685 -3.883435 0.999186 0
M  V30 26 H 1.172577 -5.960572 3.889951 0
M  V30 27 H 2.200957 -4.680809 3.292371 0
M  V30 28 H 0.444946 -6.389809 1.842215 0
M  V30 29 H 2.132054 -6.638213 1.378722 0
M  V30 30 H 3.448655 -4.861582 0.320382 0
M  V30 31 H 3.410092 -2.747407 -1.034356 0
M  V30 32 H 1.892315 -1.005288 -2.148253 0
M  V30 33 H 0.211082 -0.926964 -1.570701 0
M  V30 34 H 3.603169 0.592177 -0.528083 0
M  V30 35 H 3.243445 -0.906973 0.455993 0
M  V30 36 H 2.394426 0.306509 2.278410 0
M  V30 37 H 3.872152 1.118097 1.719429 0
M  V30 38 H 2.849185 2.935238 0.778689 0
M  V30 39 H 1.817428 2.626117 2.226728 0
M  V30 40 H 0.714392 3.221424 0.005031 0
M  V30 41 H -0.051310 1.348112 2.001301 0
M  V30 42 H -1.491238 2.759994 -1.192463 0
M  V30 43 H -3.826876 2.713406 -1.797977 0
M  V30 44 H -6.339921 1.793268 -0.725587 0
M  V30 45 H -4.993369 0.143641 2.872082 0
M  V30 46 H -2.264737 0.742324 2.486614 0
M  V30 47 H 0.214826 1.198303 -1.407870 0
M  V30 48 H 1.897653 1.882836 -1.456976 0
M  V30 49 H -0.592490 -2.159977 0.264629 0
M  V30 50 H -0.565979 -4.185312 1.561197 0
M  V30 END ATOM
M  V30 BEGIN BOND
M  V30 1 1 1 2
M  V30 2 1 2 3
M  V30 3 2 3 4
M  V30 4 1 4 5
M  V30 5 2 5 6
M  V30 6 1 6 7
M  V30 7 1 7 8
M  V30 8 1 8 9
M  V30 9 1 9 10
M  V30 10 1 10 11
M  V30 11 1 11 12
M  V30 12 1 12 13
M  V30 13 1 13 14
M  V30 14 2 14 15
M  V30 15 1 15 16
M  V30 16 2 16 17
M  V30 17 1 17 18
M  V30 18 1 18 19
M  V30 19 2 19 20
M  V30 20 1 20 21
M  V30 21 2 21 22
M  V30 22 1 12 23
M  V30 23 1 6 24
M  V30 24 2 24 25
M  V30 25 1 25 3
M  V30 26 1 23 8
M  V30 27 1 22 14
M  V30 28 1 21 17
M  V30 29 1 1 26
M  V30 30 1 1 27
M  V30 31 1 2 28
M  V30 32 1 2 29
M  V30 33 1 4 30
M  V30 34 1 5 31
M  V30 35 1 7 32
M  V30 36 1 7 33
M  V30 37 1 9 34
M  V30 38 1 9 35
M  V30 39 1 10 36
M  V30 40 1 10 37
M  V30 41 1 11 38
M  V30 42 1 11 39
M  V30 43 1 12 40
M  V30 44 1 13 41
M  V30 45 1 15 42
M  V30 46 1 16 43
M  V30 47 1 18 44
M  V30 48 1 20 45
M  V30 49 1 22 46
M  V30 50 1 23 47
M  V30 51 1 23 48
M  V30 52 1 24 49
M  V30 53 1 25 50
M  V30 END BOND
M  V30 END CTAB
M  END
>  <Dataset>  (960) 
ChEMBL_Kinases

>  <Ligand_Instance>  (960) 
nan

>  <PDB_ID>  (960) 
nan

>  <Standardized_SMILES>  (960) 
NCc1ccc(CN2CCCC(Nc3ccc4[nH]ncc4c3)C2)cc1

>  <Name>  (960) 
nan

>  <Pocket>  (960) 
nan

>  <ATP_Site>  (960) 
nan

>  <Peripheral>  (960) 
nan

>  <Num_H_Atoms_ProtBoundConf>  (960) 
nan

>  <Num_Resolved_Atoms>  (960) 
nan

>  <Num_Not_Resolved_Atoms>  (960) 
nan

$$$$
CHEMBL3689368
     RDKit          3D

  0  0  0  0  0  0  0  0  0  0999 V3000
M  V30 BEGIN CTAB
M  V30 COUNTS 51 54 0 0 0
M  V30 BEGIN ATOM
M  V30 1 C -0.584504 -5.119087 2.922273 0
M  V30 2 C 0.164036 -4.332183 1.912215 0
M  V30 3 C 1.484399 -3.975444 2.067341 0
M  V30 4 C 2.206894 -3.245641 1.146227 0
M  V30 5 C 1.551871 -2.841282 -0.023970 0
M  V30 6 C 2.170754 -2.058294 -1.119694 0
M  V30 7 N 1.737038 -0.718708 -1.075468 0
M  V30 8 C 2.210334 0.173756 -2.057138 0
M  V30 9 C 3.074216 1.270911 -1.499497 0
M  V30 10 C 2.542142 1.905904 -0.277925 0
M  V30 11 C 1.483546 1.207261 0.486860 0
M  V30 12 N 0.248079 2.008982 0.536205 0
M  V30 13 C -0.931187 1.750227 1.283507 0
M  V30 14 C -1.094179 0.683716 2.138398 0
M  V30 15 C -2.254076 0.450325 2.844010 0
M  V30 16 C -3.313254 1.317424 2.698705 0
M  V30 17 N -4.565150 1.409875 3.208648 0
M  V30 18 N -5.181774 2.472910 2.716260 0
M  V30 19 C -4.354122 3.128631 1.855116 0
M  V30 20 C -3.169035 2.391421 1.847143 0
M  V30 21 C -2.000149 2.605703 1.151407 0
M  V30 22 C 1.176731 -0.200364 0.099133 0
M  V30 23 C 0.209085 -3.189132 -0.209476 0
M  V30 24 C -0.553015 -2.798501 -1.419441 0
M  V30 25 C -0.468258 -3.928047 0.756641 0
M  V30 26 H -0.054783 -5.127983 3.883289 0
M  V30 27 H -0.678448 -6.192370 2.582094 0
M  V30 28 H -1.594978 -4.689811 3.081163 0
M  V30 29 H 1.995173 -4.286802 2.971599 0
M  V30 30 H 3.242312 -2.955843 1.248410 0
M  V30 31 H 1.786351 -2.505803 -2.083089 0
M  V30 32 H 3.269653 -2.199138 -1.118575 0
M  V30 33 H 1.324323 0.665208 -2.522866 0
M  V30 34 H 2.738452 -0.366564 -2.845126 0
M  V30 35 H 4.054632 0.771503 -1.239036 0
M  V30 36 H 3.328850 1.975169 -2.316938 0
M  V30 37 H 3.397850 2.220324 0.390889 0
M  V30 38 H 2.124264 2.907151 -0.601099 0
M  V30 39 H 1.794940 1.184311 1.562509 0
M  V30 40 H 0.266305 2.873263 -0.064908 0
M  V30 41 H -0.308749 -0.013278 2.295463 0
M  V30 42 H -2.357681 -0.395858 3.510584 0
M  V30 43 H -4.905788 0.692201 3.889824 0
M  V30 44 H -4.569437 4.024641 1.298995 0
M  V30 45 H -1.941125 3.479225 0.485991 0
M  V30 46 H 0.054025 -0.280073 -0.027199 0
M  V30 47 H 1.401008 -0.933655 0.930575 0
M  V30 48 H -0.504121 -3.615928 -2.185563 0
M  V30 49 H -1.636375 -2.708905 -1.151197 0
M  V30 50 H -0.249227 -1.824950 -1.836282 0
M  V30 51 H -1.520144 -4.193103 0.597675 0
M  V30 END ATOM
M  V30 BEGIN BOND
M  V30 1 1 1 2
M  V30 2 2 2 3
M  V30 3 1 3 4
M  V30 4 2 4 5
M  V30 5 1 5 6
M  V30 6 1 6 7
M  V30 7 1 7 8
M  V30 8 1 8 9
M  V30 9 1 9 10
M  V30 10 1 10 11
M  V30 11 1 11 12
M  V30 12 1 12 13
M  V30 13 2 13 14
M  V30 14 1 14 15
M  V30 15 2 15 16
M  V30 16 1 16 17
M  V30 17 1 17 18
M  V30 18 2 18 19
M  V30 19 1 19 20
M  V30 20 2 20 21
M  V30 21 1 11 22
M  V30 22 1 5 23
M  V30 23 1 23 24
M  V30 24 2 23 25
M  V30 25 1 25 2
M  V30 26 1 22 7
M  V30 27 1 21 13
M  V30 28 1 20 16
M  V30 29 1 1 26
M  V30 30 1 1 27
M  V30 31 1 1 28
M  V30 32 1 3 29
M  V30 33 1 4 30
M  V30 34 1 6 31
M  V30 35 1 6 32
M  V30 36 1 8 33
M  V30 37 1 8 34
M  V30 38 1 9 35
M  V30 39 1 9 36
M  V30 40 1 10 37
M  V30 41 1 10 38
M  V30 42 1 11 39
M  V30 43 1 12 40
M  V30 44 1 14 41
M  V30 45 1 15 42
M  V30 46 1 17 43
M  V30 47 1 19 44
M  V30 48 1 21 45
M  V30 49 1 22 46
M  V30 50 1 22 47
M  V30 51 1 24 48
M  V30 52 1 24 49
M  V30 53 1 24 50
M  V30 54 1 25 51
M  V30 END BOND
M  V30 END CTAB
M  END
>  <Dataset>  (961) 
ChEMBL_Kinases

>  <Ligand_Instance>  (961) 
nan

>  <PDB_ID>  (961) 
nan

>  <Standardized_SMILES>  (961) 
Cc1ccc(CN2CCCC(Nc3ccc4[nH]ncc4c3)C2)c(C)c1

>  <Name>  (961) 
nan

>  <Pocket>  (961) 
nan

>  <ATP_Site>  (961) 
nan

>  <Peripheral>  (961) 
nan

>  <Num_H_Atoms_ProtBoundConf>  (961) 
nan

>  <Num_Resolved_Atoms>  (961) 
nan

>  <Num_Not_Resolved_Atoms>  (961) 
nan

$$$$
CHEMBL3700477
     RDKit          3D

  0  0  0  0  0  0  0  0  0  0999 V3000
M  V30 BEGIN CTAB
M  V30 COUNTS 38 41 0 0 0
M  V30 BEGIN ATOM
M  V30 1 C 4.167478 -4.448354 0.534812 0
M  V30 2 N 4.105541 -3.033457 0.925864 0
M  V30 3 C 2.898766 -2.333808 1.272340 0
M  V30 4 N 2.505879 -2.328631 2.559462 0
M  V30 5 C 1.387937 -1.694597 2.954810 0
M  V30 6 C 0.653087 -1.046101 1.992031 0
M  V30 7 C 1.043962 -1.043394 0.670084 0
M  V30 8 N 2.175227 -1.696802 0.332495 0
M  V30 9 C 0.357080 -0.414940 -0.347425 0
M  V30 10 N 0.807954 -0.449027 -1.675564 0
M  V30 11 C 0.139993 0.184457 -2.782727 0
M  V30 12 C -0.070708 1.633035 -2.781091 0
M  V30 13 C 0.922502 1.065275 -3.711544 0
M  V30 14 N -0.763276 0.224582 0.026786 0
M  V30 15 C -1.183821 0.247831 1.311024 0
M  V30 16 C -2.344914 0.923790 1.628913 0
M  V30 17 C -2.784879 0.954656 2.937809 0
M  V30 18 C -4.022244 1.671661 3.294466 0
M  V30 19 O -4.534995 1.783829 4.417596 0
M  V30 20 O -4.741976 2.321120 2.276347 0
M  V30 21 C -2.091898 0.323756 3.947932 0
M  V30 22 C -0.922741 -0.356169 3.623830 0
M  V30 23 C -0.491424 -0.382869 2.321959 0
M  V30 24 H 3.131871 -4.852498 0.544799 0
M  V30 25 H 4.728326 -5.051128 1.293125 0
M  V30 26 H 4.561442 -4.588315 -0.481251 0
M  V30 27 H 5.077696 -2.655139 0.901682 0
M  V30 28 H 1.171803 -1.752414 3.982690 0
M  V30 29 H 1.687539 -0.964572 -1.898645 0
M  V30 30 H -0.616080 -0.460767 -3.318191 0
M  V30 31 H -1.043076 2.017771 -3.194445 0
M  V30 32 H 0.305174 2.256152 -1.929550 0
M  V30 33 H 0.679080 1.083858 -4.783471 0
M  V30 34 H 2.014745 1.234122 -3.484538 0
M  V30 35 H -2.910664 1.429531 0.853446 0
M  V30 36 H -5.604204 2.819331 2.440901 0
M  V30 37 H -2.474862 0.375168 4.957755 0
M  V30 38 H -0.446601 -0.818077 4.467664 0
M  V30 END ATOM
M  V30 BEGIN BOND
M  V30 1 1 1 2
M  V30 2 1 2 3
M  V30 3 2 3 4
M  V30 4 1 4 5
M  V30 5 2 5 6
M  V30 6 1 6 7
M  V30 7 2 7 8
M  V30 8 1 7 9
M  V30 9 1 9 10
M  V30 10 1 10 11
M  V30 11 1 11 12
M  V30 12 1 12 13
M  V30 13 2 9 14
M  V30 14 1 14 15
M  V30 15 2 15 16
M  V30 16 1 16 17
M  V30 17 1 17 18
M  V30 18 2 18 19
M  V30 19 1 18 20
M  V30 20 2 17 21
M  V30 21 1 21 22
M  V30 22 2 22 23
M  V30 23 1 8 3
M  V30 24 1 13 11
M  V30 25 1 23 15
M  V30 26 1 23 6
M  V30 27 1 1 24
M  V30 28 1 1 25
M  V30 29 1 1 26
M  V30 30 1 2 27
M  V30 31 1 5 28
M  V30 32 1 10 29
M  V30 33 1 11 30
M  V30 34 1 12 31
M  V30 35 1 12 32
M  V30 36 1 13 33
M  V30 37 1 13 34
M  V30 38 1 16 35
M  V30 39 1 20 36
M  V30 40 1 21 37
M  V30 41 1 22 38
M  V30 END BOND
M  V30 END CTAB
M  END
>  <Dataset>  (962) 
ChEMBL_Kinases

>  <Ligand_Instance>  (962) 
nan

>  <PDB_ID>  (962) 
nan

>  <Standardized_SMILES>  (962) 
CNc1ncc2c(n1)c(NC1CC1)nc1cc(C(=O)O)ccc12

>  <Name>  (962) 
nan

>  <Pocket>  (962) 
nan

>  <ATP_Site>  (962) 
nan

>  <Peripheral>  (962) 
nan

>  <Num_H_Atoms_ProtBoundConf>  (962) 
nan

>  <Num_Resolved_Atoms>  (962) 
nan

>  <Num_Not_Resolved_Atoms>  (962) 
nan

$$$$
CHEMBL3700476
     RDKit          3D

  0  0  0  0  0  0  0  0  0  0999 V3000
M  V30 BEGIN CTAB
M  V30 COUNTS 44 47 0 0 0
M  V30 BEGIN ATOM
M  V30 1 C 0.315346 -3.882624 -4.987662 0
M  V30 2 C 0.504749 -3.815132 -3.490075 0
M  V30 3 C 1.635551 -2.866072 -3.197721 0
M  V30 4 N 1.906737 -2.724282 -1.800433 0
M  V30 5 C 1.260451 -2.291445 -0.625461 0
M  V30 6 N 0.485873 -3.110069 0.137633 0
M  V30 7 C -0.095010 -2.648040 1.240421 0
M  V30 8 C 0.075464 -1.342267 1.627661 0
M  V30 9 C 0.861814 -0.526688 0.844957 0
M  V30 10 N 1.443454 -1.006857 -0.268300 0
M  V30 11 C 1.035701 0.795706 1.242129 0
M  V30 12 N 1.842307 1.692469 0.461568 0
M  V30 13 C 1.990353 3.060239 0.916633 0
M  V30 14 C 2.781363 4.036257 0.144047 0
M  V30 15 C 1.275526 4.179614 0.202593 0
M  V30 16 N 0.432894 1.216269 2.365542 0
M  V30 17 C -0.340245 0.447925 3.152616 0
M  V30 18 C -0.926782 0.952097 4.293804 0
M  V30 19 C -1.721201 0.104819 5.071853 0
M  V30 20 C -2.350339 0.629609 6.282639 0
M  V30 21 O -3.073761 -0.077608 7.030732 0
M  V30 22 O -2.155651 1.961747 6.641609 0
M  V30 23 C -1.899899 -1.193935 4.691610 0
M  V30 24 C -1.303916 -1.692198 3.540167 0
M  V30 25 C -0.521540 -0.872334 2.766182 0
M  V30 26 H -0.268882 -3.027556 -5.351880 0
M  V30 27 H 1.289235 -4.018767 -5.512723 0
M  V30 28 H -0.304930 -4.802601 -5.189414 0
M  V30 29 H -0.451544 -3.537611 -3.048731 0
M  V30 30 H 0.862946 -4.823556 -3.174848 0
M  V30 31 H 1.357867 -1.884067 -3.682625 0
M  V30 32 H 2.531852 -3.229336 -3.724746 0
M  V30 33 H 2.858053 -3.000177 -1.413529 0
M  V30 34 H -0.668949 -3.374362 1.744534 0
M  V30 35 H 2.290250 1.342443 -0.393508 0
M  V30 36 H 2.041090 3.188035 2.025468 0
M  V30 37 H 3.383944 4.800294 0.681516 0
M  V30 38 H 3.209036 3.793131 -0.863257 0
M  V30 39 H 0.877832 5.026411 0.813982 0
M  V30 40 H 0.679067 3.986149 -0.695906 0
M  V30 41 H -0.762540 1.993655 4.567600 0
M  V30 42 H -2.938302 2.419287 7.134773 0
M  V30 43 H -2.531603 -1.823743 5.332944 0
M  V30 44 H -1.515774 -2.725648 3.343193 0
M  V30 END ATOM
M  V30 BEGIN BOND
M  V30 1 1 1 2
M  V30 2 1 2 3
M  V30 3 1 3 4
M  V30 4 1 4 5
M  V30 5 2 5 6
M  V30 6 1 6 7
M  V30 7 2 7 8
M  V30 8 1 8 9
M  V30 9 2 9 10
M  V30 10 1 9 11
M  V30 11 1 11 12
M  V30 12 1 12 13
M  V30 13 1 13 14
M  V30 14 1 14 15
M  V30 15 2 11 16
M  V30 16 1 16 17
M  V30 17 2 17 18
M  V30 18 1 18 19
M  V30 19 1 19 20
M  V30 20 2 20 21
M  V30 21 1 20 22
M  V30 22 2 19 23
M  V30 23 1 23 24
M  V30 24 2 24 25
M  V30 25 1 10 5
M  V30 26 1 15 13
M  V30 27 1 25 17
M  V30 28 1 25 8
M  V30 29 1 1 26
M  V30 30 1 1 27
M  V30 31 1 1 28
M  V30 32 1 2 29
M  V30 33 1 2 30
M  V30 34 1 3 31
M  V30 35 1 3 32
M  V30 36 1 4 33
M  V30 37 1 7 34
M  V30 38 1 12 35
M  V30 39 1 13 36
M  V30 40 1 14 37
M  V30 41 1 14 38
M  V30 42 1 15 39
M  V30 43 1 15 40
M  V30 44 1 18 41
M  V30 45 1 22 42
M  V30 46 1 23 43
M  V30 47 1 24 44
M  V30 END BOND
M  V30 END CTAB
M  END
>  <Dataset>  (963) 
ChEMBL_Kinases

>  <Ligand_Instance>  (963) 
nan

>  <PDB_ID>  (963) 
nan

>  <Standardized_SMILES>  (963) 
CCCNc1ncc2c(n1)c(NC1CC1)nc1cc(C(=O)O)ccc12

>  <Name>  (963) 
nan

>  <Pocket>  (963) 
nan

>  <ATP_Site>  (963) 
nan

>  <Peripheral>  (963) 
nan

>  <Num_H_Atoms_ProtBoundConf>  (963) 
nan

>  <Num_Resolved_Atoms>  (963) 
nan

>  <Num_Not_Resolved_Atoms>  (963) 
nan

$$$$
CHEMBL3700475
     RDKit          3D

  0  0  0  0  0  0  0  0  0  0999 V3000
M  V30 BEGIN CTAB
M  V30 COUNTS 35 38 0 0 0
M  V30 BEGIN ATOM
M  V30 1 N 2.667304 -4.045320 1.641030 0
M  V30 2 C 1.837623 -2.874114 1.717504 0
M  V30 3 N 1.401392 -2.457354 2.921889 0
M  V30 4 C 0.624183 -1.366465 3.029746 0
M  V30 5 C 0.279554 -0.681047 1.897670 0
M  V30 6 C 0.708029 -1.079476 0.651458 0
M  V30 7 N 1.481275 -2.178313 0.622844 0
M  V30 8 C 0.407028 -0.449846 -0.534641 0
M  V30 9 N 0.851927 -0.859127 -1.817823 0
M  V30 10 C 1.699844 -1.985578 -2.136270 0
M  V30 11 C 2.030410 -2.285263 -3.558707 0
M  V30 12 C 1.136312 -3.212611 -2.776795 0
M  V30 13 N -0.371915 0.636667 -0.405562 0
M  V30 14 C -0.820192 1.072944 0.783507 0
M  V30 15 C -1.613524 2.206010 0.759674 0
M  V30 16 C -2.061728 2.631169 2.014323 0
M  V30 17 C -2.902233 3.826543 2.018988 0
M  V30 18 O -3.188816 4.416342 0.945102 0
M  V30 19 O -3.413696 4.354022 3.201833 0
M  V30 20 C -1.770753 2.013874 3.212906 0
M  V30 21 C -0.969812 0.879081 3.183022 0
M  V30 22 C -0.513445 0.436035 1.965351 0
M  V30 23 H 3.212239 -4.360062 2.454960 0
M  V30 24 H 2.691379 -4.562270 0.720544 0
M  V30 25 H 0.341940 -1.132654 4.018532 0
M  V30 26 H 0.544159 -0.297353 -2.640885 0
M  V30 27 H 2.571816 -2.096288 -1.452144 0
M  V30 28 H 3.011050 -2.697728 -3.839569 0
M  V30 29 H 1.541953 -1.728136 -4.399908 0
M  V30 30 H 0.073717 -3.270618 -3.046263 0
M  V30 31 H 1.540651 -4.214853 -2.479251 0
M  V30 32 H -1.877417 2.732233 -0.129001 0
M  V30 33 H -4.299976 4.874652 3.223566 0
M  V30 34 H -2.182739 2.446603 4.118918 0
M  V30 35 H -0.773376 0.436848 4.142742 0
M  V30 END ATOM
M  V30 BEGIN BOND
M  V30 1 1 1 2
M  V30 2 2 2 3
M  V30 3 1 3 4
M  V30 4 2 4 5
M  V30 5 1 5 6
M  V30 6 2 6 7
M  V30 7 1 6 8
M  V30 8 1 8 9
M  V30 9 1 9 10
M  V30 10 1 10 11
M  V30 11 1 11 12
M  V30 12 2 8 13
M  V30 13 1 13 14
M  V30 14 2 14 15
M  V30 15 1 15 16
M  V30 16 1 16 17
M  V30 17 2 17 18
M  V30 18 1 17 19
M  V30 19 2 16 20
M  V30 20 1 20 21
M  V30 21 2 21 22
M  V30 22 1 7 2
M  V30 23 1 12 10
M  V30 24 1 22 14
M  V30 25 1 22 5
M  V30 26 1 1 23
M  V30 27 1 1 24
M  V30 28 1 4 25
M  V30 29 1 9 26
M  V30 30 1 10 27
M  V30 31 1 11 28
M  V30 32 1 11 29
M  V30 33 1 12 30
M  V30 34 1 12 31
M  V30 35 1 15 32
M  V30 36 1 19 33
M  V30 37 1 20 34
M  V30 38 1 21 35
M  V30 END BOND
M  V30 END CTAB
M  END
>  <Dataset>  (964) 
ChEMBL_Kinases

>  <Ligand_Instance>  (964) 
nan

>  <PDB_ID>  (964) 
nan

>  <Standardized_SMILES>  (964) 
Nc1ncc2c(n1)c(NC1CC1)nc1cc(C(=O)O)ccc12

>  <Name>  (964) 
nan

>  <Pocket>  (964) 
nan

>  <ATP_Site>  (964) 
nan

>  <Peripheral>  (964) 
nan

>  <Num_H_Atoms_ProtBoundConf>  (964) 
nan

>  <Num_Resolved_Atoms>  (964) 
nan

>  <Num_Not_Resolved_Atoms>  (964) 
nan

$$$$
CHEMBL3700471
     RDKit          3D

  0  0  0  0  0  0  0  0  0  0999 V3000
M  V30 BEGIN CTAB
M  V30 COUNTS 50 54 0 0 0
M  V30 BEGIN ATOM
M  V30 1 O 6.850808 -3.041562 1.020355 0
M  V30 2 C 6.325144 -1.898938 1.020759 0
M  V30 3 O 7.503314 -1.355880 1.468870 0
M  V30 4 C 4.949788 -1.679788 0.620806 0
M  V30 5 C 4.297154 -2.825593 0.238895 0
M  V30 6 C 2.967585 -2.647166 -0.151733 0
M  V30 7 C 2.411119 -1.385736 -0.132636 0
M  V30 8 C 3.101179 -0.265728 0.257233 0
M  V30 9 C 4.417423 -0.410192 0.649059 0
M  V30 10 N 2.536974 0.955417 0.268313 0
M  V30 11 C 1.255450 1.163755 -0.102782 0
M  V30 12 N 0.613580 2.439123 -0.105975 0
M  V30 13 C -0.069220 2.853058 1.073517 0
M  V30 14 C -0.715465 4.055438 1.193799 0
M  V30 15 C -1.360999 4.405674 2.358906 0
M  V30 16 C -1.395819 3.576784 3.462570 0
M  V30 17 F -2.004902 3.842279 4.639811 0
M  V30 18 C -0.752899 2.341979 3.391053 0
M  V30 19 Cl -0.695213 1.168891 4.689226 0
M  V30 20 C -0.119406 2.035263 2.201598 0
M  V30 21 C 0.525772 0.038554 -0.506114 0
M  V30 22 N -0.772841 0.216556 -0.888566 0
M  V30 23 C -1.503009 -0.867361 -1.287050 0
M  V30 24 N -2.849619 -0.627151 -1.671509 0
M  V30 25 C -3.678824 -0.815851 -0.492427 0
M  V30 26 C -3.577242 -2.191066 0.034835 0
M  V30 27 C -2.710720 -2.722321 0.959918 0
M  V30 28 C -2.773725 -4.047096 1.327970 0
M  V30 29 C -3.746151 -4.865337 0.741302 0
M  V30 30 N -4.615077 -4.383059 -0.170335 0
M  V30 31 C -4.517272 -3.071937 -0.503548 0
M  V30 32 N -0.932538 -2.099476 -1.297903 0
M  V30 33 C 0.338565 -2.258625 -0.921168 0
M  V30 34 C 1.104407 -1.210951 -0.516914 0
M  V30 35 H 7.689632 -1.061354 2.432799 0
M  V30 36 H 4.742241 -3.804772 0.227963 0
M  V30 37 H 2.460503 -3.553749 -0.451072 0
M  V30 38 H 4.960694 0.462766 0.954660 0
M  V30 39 H 0.598662 3.110573 -0.908028 0
M  V30 40 H -0.713908 4.733369 0.357105 0
M  V30 41 H -1.881180 5.371660 2.458193 0
M  V30 42 H 0.397998 1.074111 2.103221 0
M  V30 43 H -3.159357 -0.361057 -2.649412 0
M  V30 44 H -3.388210 -0.105496 0.312771 0
M  V30 45 H -4.726497 -0.547651 -0.741244 0
M  V30 46 H -2.003023 -1.997487 1.345242 0
M  V30 47 H -2.066607 -4.409788 2.059591 0
M  V30 48 H -3.807740 -5.910696 1.020727 0
M  V30 49 H -5.274526 -2.802517 -1.249426 0
M  V30 50 H 0.665519 -3.261308 -0.973961 0
M  V30 END ATOM
M  V30 BEGIN BOND
M  V30 1 2 1 2
M  V30 2 1 2 3
M  V30 3 1 2 4
M  V30 4 2 4 5
M  V30 5 1 5 6
M  V30 6 2 6 7
M  V30 7 1 7 8
M  V30 8 2 8 9
M  V30 9 1 8 10
M  V30 10 2 10 11
M  V30 11 1 11 12
M  V30 12 1 12 13
M  V30 13 2 13 14
M  V30 14 1 14 15
M  V30 15 2 15 16
M  V30 16 1 16 17
M  V30 17 1 16 18
M  V30 18 1 18 19
M  V30 19 2 18 20
M  V30 20 1 11 21
M  V30 21 2 21 22
M  V30 22 1 22 23
M  V30 23 1 23 24
M  V30 24 1 24 25
M  V30 25 1 25 26
M  V30 26 2 26 27
M  V30 27 1 27 28
M  V30 28 2 28 29
M  V30 29 1 29 30
M  V30 30 2 30 31
M  V30 31 2 23 32
M  V30 32 1 32 33
M  V30 33 2 33 34
M  V30 34 1 9 4
M  V30 35 1 20 13
M  V30 36 1 34 21
M  V30 37 1 34 7
M  V30 38 1 31 26
M  V30 39 1 3 35
M  V30 40 1 5 36
M  V30 41 1 6 37
M  V30 42 1 9 38
M  V30 43 1 12 39
M  V30 44 1 14 40
M  V30 45 1 15 41
M  V30 46 1 20 42
M  V30 47 1 24 43
M  V30 48 1 25 44
M  V30 49 1 25 45
M  V30 50 1 27 46
M  V30 51 1 28 47
M  V30 52 1 29 48
M  V30 53 1 31 49
M  V30 54 1 33 50
M  V30 END BOND
M  V30 END CTAB
M  END
>  <Dataset>  (965) 
ChEMBL_Kinases

>  <Ligand_Instance>  (965) 
nan

>  <PDB_ID>  (965) 
nan

>  <Standardized_SMILES>  (965) 
O=C(O)c1ccc2c(c1)nc(Nc1ccc(F)c(Cl)c1)c1nc(NCc3cccnc3)ncc12

>  <Name>  (965) 
nan

>  <Pocket>  (965) 
nan

>  <ATP_Site>  (965) 
nan

>  <Peripheral>  (965) 
nan

>  <Num_H_Atoms_ProtBoundConf>  (965) 
nan

>  <Num_Resolved_Atoms>  (965) 
nan

>  <Num_Not_Resolved_Atoms>  (965) 
nan

$$$$
CHEMBL3700470
     RDKit          3D

  0  0  0  0  0  0  0  0  0  0999 V3000
M  V30 BEGIN CTAB
M  V30 COUNTS 48 52 0 0 0
M  V30 BEGIN ATOM
M  V30 1 C 5.551218 -3.774454 5.501994 0
M  V30 2 C 4.450545 -3.498298 4.538564 0
M  V30 3 C 4.323747 -2.224857 4.033008 0
M  V30 4 C 3.225355 -2.296364 3.183266 0
M  V30 5 N 2.627298 -1.287266 2.387793 0
M  V30 6 C 1.501728 -1.391402 1.527276 0
M  V30 7 N 0.836961 -2.549304 1.377792 0
M  V30 8 C -0.231211 -2.686400 0.571166 0
M  V30 9 C -0.679932 -1.603038 -0.142902 0
M  V30 10 C 0.019647 -0.431735 0.029773 0
M  V30 11 N 1.093380 -0.307427 0.845440 0
M  V30 12 C -0.409515 0.670023 -0.677579 0
M  V30 13 N 0.189812 1.953497 -0.617126 0
M  V30 14 C -0.110974 3.090701 0.180133 0
M  V30 15 C 0.687658 4.210548 0.010209 0
M  V30 16 C 0.417800 5.348461 0.768230 0
M  V30 17 C -0.641500 5.255592 1.636964 0
M  V30 18 F -0.933637 6.355625 2.396154 0
M  V30 19 C -1.463740 4.179452 1.847759 0
M  V30 20 Cl -2.785829 4.196050 2.991562 0
M  V30 21 C -1.163991 3.059798 1.072587 0
M  V30 22 N -1.490751 0.550797 -1.503663 0
M  V30 23 C -2.152131 -0.610643 -1.649207 0
M  V30 24 C -3.243669 -0.654161 -2.509685 0
M  V30 25 C -3.874223 -1.876100 -2.611838 0
M  V30 26 C -5.018184 -1.948387 -3.506802 0
M  V30 27 O -5.473504 -0.995494 -4.188170 0
M  V30 28 O -5.850473 -2.979021 -3.833931 0
M  V30 29 C -3.511455 -3.024621 -1.942082 0
M  V30 30 C -2.409122 -2.953148 -1.082294 0
M  V30 31 C -1.765664 -1.753764 -0.962364 0
M  V30 32 N 2.741177 -3.547342 3.195804 0
M  V30 33 N 3.495423 -4.277304 4.027797 0
M  V30 34 H 5.315250 -3.343912 6.512315 0
M  V30 35 H 5.700684 -4.856723 5.667375 0
M  V30 36 H 6.486893 -3.366031 5.097036 0
M  V30 37 H 4.883377 -1.310990 4.187228 0
M  V30 38 H 3.110834 -0.343490 2.471611 0
M  V30 39 H -0.631130 -3.683786 0.580693 0
M  V30 40 H 0.965282 1.948284 -1.311570 0
M  V30 41 H 1.497914 4.198461 -0.694164 0
M  V30 42 H 1.017107 6.240154 0.664389 0
M  V30 43 H -1.768586 2.165796 1.180748 0
M  V30 44 H -3.576906 0.214153 -3.062833 0
M  V30 45 H -5.965718 -3.376594 -4.778425 0
M  V30 46 H -4.061031 -3.920670 -2.087531 0
M  V30 47 H -2.152654 -3.844790 -0.582263 0
M  V30 48 H 1.970463 -4.087087 2.754489 0
M  V30 END ATOM
M  V30 BEGIN BOND
M  V30 1 1 1 2
M  V30 2 1 2 3
M  V30 3 2 3 4
M  V30 4 1 4 5
M  V30 5 1 5 6
M  V30 6 2 6 7
M  V30 7 1 7 8
M  V30 8 2 8 9
M  V30 9 1 9 10
M  V30 10 2 10 11
M  V30 11 1 10 12
M  V30 12 1 12 13
M  V30 13 1 13 14
M  V30 14 2 14 15
M  V30 15 1 15 16
M  V30 16 2 16 17
M  V30 17 1 17 18
M  V30 18 1 17 19
M  V30 19 1 19 20
M  V30 20 2 19 21
M  V30 21 2 12 22
M  V30 22 1 22 23
M  V30 23 2 23 24
M  V30 24 1 24 25
M  V30 25 1 25 26
M  V30 26 2 26 27
M  V30 27 1 26 28
M  V30 28 2 25 29
M  V30 29 1 29 30
M  V30 30 2 30 31
M  V30 31 1 4 32
M  V30 32 1 32 33
M  V30 33 2 33 2
M  V30 34 1 11 6
M  V30 35 1 21 14
M  V30 36 1 31 23
M  V30 37 1 31 9
M  V30 38 1 1 34
M  V30 39 1 1 35
M  V30 40 1 1 36
M  V30 41 1 3 37
M  V30 42 1 5 38
M  V30 43 1 8 39
M  V30 44 1 13 40
M  V30 45 1 15 41
M  V30 46 1 16 42
M  V30 47 1 21 43
M  V30 48 1 24 44
M  V30 49 1 28 45
M  V30 50 1 29 46
M  V30 51 1 30 47
M  V30 52 1 32 48
M  V30 END BOND
M  V30 END CTAB
M  END
>  <Dataset>  (966) 
ChEMBL_Kinases

>  <Ligand_Instance>  (966) 
nan

>  <PDB_ID>  (966) 
nan

>  <Standardized_SMILES>  (966) 
Cc1cc(Nc2ncc3c(n2)c(Nc2ccc(F)c(Cl)c2)nc2cc(C(=O)O)ccc23)[nH]n1

>  <Name>  (966) 
nan

>  <Pocket>  (966) 
nan

>  <ATP_Site>  (966) 
nan

>  <Peripheral>  (966) 
nan

>  <Num_H_Atoms_ProtBoundConf>  (966) 
nan

>  <Num_Resolved_Atoms>  (966) 
nan

>  <Num_Not_Resolved_Atoms>  (966) 
nan

$$$$
CHEMBL3700467
     RDKit          3D

  0  0  0  0  0  0  0  0  0  0999 V3000
M  V30 BEGIN CTAB
M  V30 COUNTS 52 55 0 0 0
M  V30 BEGIN ATOM
M  V30 1 C 1.288561 -2.226825 6.598336 0
M  V30 2 O 1.350104 -2.174022 5.195094 0
M  V30 3 C 0.574240 -1.082716 4.782566 0
M  V30 4 C 1.504864 -0.027465 4.194893 0
M  V30 5 N 2.250765 -0.520630 3.058620 0
M  V30 6 C 1.824025 -1.070552 1.826424 0
M  V30 7 N 1.743017 -2.413457 1.588187 0
M  V30 8 C 1.307313 -2.845741 0.363441 0
M  V30 9 C 0.977438 -1.880592 -0.552266 0
M  V30 10 C 1.055717 -0.519829 -0.322625 0
M  V30 11 N 1.490592 -0.152633 0.898764 0
M  V30 12 C 0.688778 0.365521 -1.343125 0
M  V30 13 N 0.823268 1.719469 -0.945353 0
M  V30 14 C -0.326956 2.362979 -0.372893 0
M  V30 15 C -0.292161 3.655308 0.115826 0
M  V30 16 C -1.373792 4.302536 0.667011 0
M  V30 17 C -2.580572 3.600265 0.732451 0
M  V30 18 F -3.661942 4.202743 1.265990 0
M  V30 19 C -2.679210 2.310502 0.262620 0
M  V30 20 Cl -4.189232 1.424527 0.341351 0
M  V30 21 C -1.550455 1.715375 -0.281511 0
M  V30 22 N 0.266031 -0.101263 -2.530824 0
M  V30 23 C 0.170298 -1.414479 -2.809333 0
M  V30 24 C -0.271455 -1.824864 -4.047299 0
M  V30 25 C -0.371914 -3.169437 -4.338402 0
M  V30 26 C -0.839484 -3.606305 -5.643933 0
M  V30 27 O -0.967601 -4.786837 -6.014754 0
M  V30 28 O -1.194146 -2.684276 -6.616939 0
M  V30 29 C -0.015631 -4.060930 -3.348961 0
M  V30 30 C 0.425733 -3.628159 -2.110907 0
M  V30 31 C 0.538190 -2.295360 -1.785752 0
M  V30 32 O -0.350854 -1.393494 3.814749 0
M  V30 33 C -1.644874 -1.057585 4.162404 0
M  V30 34 H 0.240269 -2.344547 6.903609 0
M  V30 35 H 1.874282 -3.090988 6.980394 0
M  V30 36 H 1.747901 -1.295926 6.979816 0
M  V30 37 H 0.136812 -0.615047 5.692390 0
M  V30 38 H 2.236361 0.281865 4.971079 0
M  V30 39 H 0.877541 0.834886 3.861469 0
M  V30 40 H 3.283672 -0.580625 2.895613 0
M  V30 41 H 1.274979 -3.888300 0.262217 0
M  V30 42 H 1.679453 2.306715 -1.024769 0
M  V30 43 H 0.649377 4.216655 0.069905 0
M  V30 44 H -1.282987 5.314541 1.032547 0
M  V30 45 H -1.595747 0.699100 -0.661645 0
M  V30 46 H -0.525923 -1.045219 -4.750848 0
M  V30 47 H -1.632611 -2.901327 -7.492793 0
M  V30 48 H -0.114658 -5.118857 -3.633007 0
M  V30 49 H 0.656169 -4.425907 -1.474368 0
M  V30 50 H -1.795062 0.026181 4.362271 0
M  V30 51 H -2.272872 -1.272816 3.253004 0
M  V30 52 H -2.041272 -1.718702 4.952955 0
M  V30 END ATOM
M  V30 BEGIN BOND
M  V30 1 1 1 2
M  V30 2 1 2 3
M  V30 3 1 3 4
M  V30 4 1 4 5
M  V30 5 1 5 6
M  V30 6 2 6 7
M  V30 7 1 7 8
M  V30 8 2 8 9
M  V30 9 1 9 10
M  V30 10 2 10 11
M  V30 11 1 10 12
M  V30 12 1 12 13
M  V30 13 1 13 14
M  V30 14 2 14 15
M  V30 15 1 15 16
M  V30 16 2 16 17
M  V30 17 1 17 18
M  V30 18 1 17 19
M  V30 19 1 19 20
M  V30 20 2 19 21
M  V30 21 2 12 22
M  V30 22 1 22 23
M  V30 23 2 23 24
M  V30 24 1 24 25
M  V30 25 1 25 26
M  V30 26 2 26 27
M  V30 27 1 26 28
M  V30 28 2 25 29
M  V30 29 1 29 30
M  V30 30 2 30 31
M  V30 31 1 3 32
M  V30 32 1 32 33
M  V30 33 1 11 6
M  V30 34 1 21 14
M  V30 35 1 31 23
M  V30 36 1 31 9
M  V30 37 1 1 34
M  V30 38 1 1 35
M  V30 39 1 1 36
M  V30 40 1 3 37
M  V30 41 1 4 38
M  V30 42 1 4 39
M  V30 43 1 5 40
M  V30 44 1 8 41
M  V30 45 1 13 42
M  V30 46 1 15 43
M  V30 47 1 16 44
M  V30 48 1 21 45
M  V30 49 1 24 46
M  V30 50 1 28 47
M  V30 51 1 29 48
M  V30 52 1 30 49
M  V30 53 1 33 50
M  V30 54 1 33 51
M  V30 55 1 33 52
M  V30 END BOND
M  V30 END CTAB
M  END
>  <Dataset>  (967) 
ChEMBL_Kinases

>  <Ligand_Instance>  (967) 
nan

>  <PDB_ID>  (967) 
nan

>  <Standardized_SMILES>  (967) 
COC(CNc1ncc2c(n1)c(Nc1ccc(F)c(Cl)c1)nc1cc(C(=O)O)ccc12)OC

>  <Name>  (967) 
nan

>  <Pocket>  (967) 
nan

>  <ATP_Site>  (967) 
nan

>  <Peripheral>  (967) 
nan

>  <Num_H_Atoms_ProtBoundConf>  (967) 
nan

>  <Num_Resolved_Atoms>  (967) 
nan

>  <Num_Not_Resolved_Atoms>  (967) 
nan

$$$$
CHEMBL3700466
     RDKit          3D

  0  0  0  0  0  0  0  0  0  0999 V3000
M  V30 BEGIN CTAB
M  V30 COUNTS 50 54 0 0 0
M  V30 BEGIN ATOM
M  V30 1 O 6.111153 -3.396443 1.565779 0
M  V30 2 C 5.630635 -2.212206 1.631607 0
M  V30 3 O 6.675424 -1.648710 2.318772 0
M  V30 4 C 4.332729 -1.841217 1.059498 0
M  V30 5 C 3.710494 -2.886670 0.427678 0
M  V30 6 C 2.473535 -2.538395 -0.135551 0
M  V30 7 C 1.981620 -1.232694 -0.028409 0
M  V30 8 C 2.707498 -0.256498 0.638203 0
M  V30 9 C 3.950446 -0.536547 1.225511 0
M  V30 10 N 2.168225 0.982290 0.701678 0
M  V30 11 C 0.977240 1.278688 0.145737 0
M  V30 12 N 0.652751 2.639549 0.381925 0
M  V30 13 C 0.116123 2.772801 1.702629 0
M  V30 14 C -0.067155 4.023178 2.295358 0
M  V30 15 C -0.575384 4.200643 3.565332 0
M  V30 16 C -0.925790 3.103282 4.299351 0
M  V30 17 F -1.434353 3.227011 5.564461 0
M  V30 18 C -0.787363 1.822462 3.811270 0
M  V30 19 Cl -1.209755 0.387904 4.686922 0
M  V30 20 C -0.275830 1.741519 2.546505 0
M  V30 21 C 0.295729 0.301363 -0.501531 0
M  V30 22 N -0.883391 0.728790 -1.048051 0
M  V30 23 C -1.630841 -0.159535 -1.740992 0
M  V30 24 N -2.853777 -0.226956 -2.462588 0
M  V30 25 C -3.943218 -0.942267 -1.828656 0
M  V30 26 C -3.432014 -2.243241 -1.266376 0
M  V30 27 C -3.099553 -2.192246 0.096060 0
M  V30 28 C -2.576404 -3.282292 0.801725 0
M  V30 29 C -2.390852 -4.432888 0.103244 0
M  V30 30 C -2.717229 -4.478287 -1.227966 0
M  V30 31 N -3.224458 -3.405737 -1.885563 0
M  V30 32 N -1.166001 -1.426728 -1.853119 0
M  V30 33 C 0.001821 -1.849787 -1.310742 0
M  V30 34 C 0.764243 -0.973844 -0.613575 0
M  V30 35 H 6.910900 -1.781626 3.291664 0
M  V30 36 H 4.097205 -3.890691 0.356017 0
M  V30 37 H 1.950623 -3.342855 -0.639353 0
M  V30 38 H 4.502894 0.214446 1.734195 0
M  V30 39 H 0.714492 3.519089 -0.172284 0
M  V30 40 H 0.197962 4.912883 1.745484 0
M  V30 41 H -0.699270 5.182281 3.988670 0
M  V30 42 H -0.159744 0.735611 2.137664 0
M  V30 43 H -2.998705 0.202188 -3.412204 0
M  V30 44 H -4.401485 -0.375242 -1.010775 0
M  V30 45 H -4.759765 -1.179752 -2.557543 0
M  V30 46 H -3.254682 -1.255035 0.662353 0
M  V30 47 H -2.358117 -3.127161 1.850739 0
M  V30 48 H -1.985745 -5.225209 0.704130 0
M  V30 49 H -2.555051 -5.404564 -1.753399 0
M  V30 50 H 0.343712 -2.872095 -1.422221 0
M  V30 END ATOM
M  V30 BEGIN BOND
M  V30 1 2 1 2
M  V30 2 1 2 3
M  V30 3 1 2 4
M  V30 4 2 4 5
M  V30 5 1 5 6
M  V30 6 2 6 7
M  V30 7 1 7 8
M  V30 8 2 8 9
M  V30 9 1 8 10
M  V30 10 2 10 11
M  V30 11 1 11 12
M  V30 12 1 12 13
M  V30 13 2 13 14
M  V30 14 1 14 15
M  V30 15 2 15 16
M  V30 16 1 16 17
M  V30 17 1 16 18
M  V30 18 1 18 19
M  V30 19 2 18 20
M  V30 20 1 11 21
M  V30 21 2 21 22
M  V30 22 1 22 23
M  V30 23 1 23 24
M  V30 24 1 24 25
M  V30 25 1 25 26
M  V30 26 2 26 27
M  V30 27 1 27 28
M  V30 28 2 28 29
M  V30 29 1 29 30
M  V30 30 2 30 31
M  V30 31 2 23 32
M  V30 32 1 32 33
M  V30 33 2 33 34
M  V30 34 1 9 4
M  V30 35 1 20 13
M  V30 36 1 34 21
M  V30 37 1 34 7
M  V30 38 1 31 26
M  V30 39 1 3 35
M  V30 40 1 5 36
M  V30 41 1 6 37
M  V30 42 1 9 38
M  V30 43 1 12 39
M  V30 44 1 14 40
M  V30 45 1 15 41
M  V30 46 1 20 42
M  V30 47 1 24 43
M  V30 48 1 25 44
M  V30 49 1 25 45
M  V30 50 1 27 46
M  V30 51 1 28 47
M  V30 52 1 29 48
M  V30 53 1 30 49
M  V30 54 1 33 50
M  V30 END BOND
M  V30 END CTAB
M  END
>  <Dataset>  (968) 
ChEMBL_Kinases

>  <Ligand_Instance>  (968) 
nan

>  <PDB_ID>  (968) 
nan

>  <Standardized_SMILES>  (968) 
O=C(O)c1ccc2c(c1)nc(Nc1ccc(F)c(Cl)c1)c1nc(NCc3ccccn3)ncc12

>  <Name>  (968) 
nan

>  <Pocket>  (968) 
nan

>  <ATP_Site>  (968) 
nan

>  <Peripheral>  (968) 
nan

>  <Num_H_Atoms_ProtBoundConf>  (968) 
nan

>  <Num_Resolved_Atoms>  (968) 
nan

>  <Num_Not_Resolved_Atoms>  (968) 
nan

$$$$
CHEMBL3700465
     RDKit          3D

  0  0  0  0  0  0  0  0  0  0999 V3000
M  V30 BEGIN CTAB
M  V30 COUNTS 65 69 0 0 0
M  V30 BEGIN ATOM
M  V30 1 C 1.004597 -1.576438 1.912289 0
M  V30 2 C 2.309961 -2.314871 2.072513 0
M  V30 3 C 2.447524 -3.023256 3.394448 0
M  V30 4 C 2.035341 -4.473922 3.314946 0
M  V30 5 C 2.720209 -5.235706 2.213665 0
M  V30 6 C 3.395931 -4.259782 1.245780 0
M  V30 7 N 2.434637 -3.244042 0.950807 0
M  V30 8 C 2.736974 -2.422812 -0.191952 0
M  V30 9 C 2.677956 -3.130046 -1.512239 0
M  V30 10 C 3.019527 -2.095123 -2.590908 0
M  V30 11 N 2.097595 -1.009665 -2.659640 0
M  V30 12 C 1.426725 0.015102 -1.972753 0
M  V30 13 N 2.039770 1.153157 -1.690051 0
M  V30 14 C 1.459819 2.179210 -1.041269 0
M  V30 15 C 0.153508 1.980312 -0.673181 0
M  V30 16 C -0.535001 0.828951 -0.935724 0
M  V30 17 N 0.134977 -0.123351 -1.583913 0
M  V30 18 C -1.847473 0.609061 -0.578211 0
M  V30 19 N -2.462213 -0.622867 -0.902684 0
M  V30 20 C -3.791614 -1.023478 -0.630227 0
M  V30 21 C -4.760514 -0.263273 -0.013626 0
M  V30 22 C -6.047261 -0.655831 0.251610 0
M  V30 23 C -6.429621 -1.926595 -0.125967 0
M  V30 24 F -7.680667 -2.403479 0.090936 0
M  V30 25 C -5.508260 -2.739286 -0.747586 0
M  V30 26 Cl -5.960010 -4.361114 -1.241309 0
M  V30 27 C -4.232286 -2.279621 -0.982781 0
M  V30 28 N -2.411831 1.640198 0.064626 0
M  V30 29 C -1.813143 2.794467 0.359788 0
M  V30 30 C -2.563468 3.733204 1.027142 0
M  V30 31 C -1.917103 4.922518 1.322217 0
M  V30 32 C -2.645832 5.986170 2.034151 0
M  V30 33 O -2.236815 7.118397 2.391999 0
M  V30 34 O -3.987402 5.783129 2.397585 0
M  V30 35 C -0.603263 5.161388 0.973366 0
M  V30 36 C 0.099913 4.182103 0.304173 0
M  V30 37 C -0.502922 2.988061 -0.008213 0
M  V30 38 H 0.350883 -2.185907 1.253195 0
M  V30 39 H 0.531589 -1.406425 2.911727 0
M  V30 40 H 1.220879 -0.595185 1.444159 0
M  V30 41 H 3.148431 -1.578553 2.022195 0
M  V30 42 H 3.490643 -2.938850 3.803315 0
M  V30 43 H 1.759321 -2.520538 4.101131 0
M  V30 44 H 2.320047 -4.941155 4.282077 0
M  V30 45 H 0.929098 -4.479803 3.225739 0
M  V30 46 H 1.912529 -5.817235 1.679081 0
M  V30 47 H 3.435843 -6.005315 2.581506 0
M  V30 48 H 4.306231 -3.895377 1.748711 0
M  V30 49 H 3.695845 -4.816511 0.333954 0
M  V30 50 H 3.739337 -1.934755 -0.100149 0
M  V30 51 H 1.999595 -1.599540 -0.200769 0
M  V30 52 H 3.392960 -3.969493 -1.604491 0
M  V30 53 H 1.673993 -3.554778 -1.684737 0
M  V30 54 H 3.129120 -2.579125 -3.559035 0
M  V30 55 H 4.030409 -1.653178 -2.364215 0
M  V30 56 H 1.676729 -0.800479 -3.618259 0
M  V30 57 H 2.064609 3.048630 -0.872913 0
M  V30 58 H -1.871908 -1.335654 -1.406328 0
M  V30 59 H -4.531699 0.730719 0.305063 0
M  V30 60 H -6.768827 -0.014310 0.740606 0
M  V30 61 H -3.551329 -2.971633 -1.475907 0
M  V30 62 H -3.580530 3.572434 1.308059 0
M  V30 63 H -4.408522 6.207486 3.221916 0
M  V30 64 H -0.145915 6.107083 1.226044 0
M  V30 65 H 1.111310 4.428771 0.063308 0
M  V30 END ATOM
M  V30 BEGIN BOND
M  V30 1 1 1 2
M  V30 2 1 2 3
M  V30 3 1 3 4
M  V30 4 1 4 5
M  V30 5 1 5 6
M  V30 6 1 6 7
M  V30 7 1 7 8
M  V30 8 1 8 9
M  V30 9 1 9 10
M  V30 10 1 10 11
M  V30 11 1 11 12
M  V30 12 2 12 13
M  V30 13 1 13 14
M  V30 14 2 14 15
M  V30 15 1 15 16
M  V30 16 2 16 17
M  V30 17 1 16 18
M  V30 18 1 18 19
M  V30 19 1 19 20
M  V30 20 2 20 21
M  V30 21 1 21 22
M  V30 22 2 22 23
M  V30 23 1 23 24
M  V30 24 1 23 25
M  V30 25 1 25 26
M  V30 26 2 25 27
M  V30 27 2 18 28
M  V30 28 1 28 29
M  V30 29 2 29 30
M  V30 30 1 30 31
M  V30 31 1 31 32
M  V30 32 2 32 33
M  V30 33 1 32 34
M  V30 34 2 31 35
M  V30 35 1 35 36
M  V30 36 2 36 37
M  V30 37 1 7 2
M  V30 38 1 17 12
M  V30 39 1 27 20
M  V30 40 1 37 29
M  V30 41 1 37 15
M  V30 42 1 1 38
M  V30 43 1 1 39
M  V30 44 1 1 40
M  V30 45 1 2 41
M  V30 46 1 3 42
M  V30 47 1 3 43
M  V30 48 1 4 44
M  V30 49 1 4 45
M  V30 50 1 5 46
M  V30 51 1 5 47
M  V30 52 1 6 48
M  V30 53 1 6 49
M  V30 54 1 8 50
M  V30 55 1 8 51
M  V30 56 1 9 52
M  V30 57 1 9 53
M  V30 58 1 10 54
M  V30 59 1 10 55
M  V30 60 1 11 56
M  V30 61 1 14 57
M  V30 62 1 19 58
M  V30 63 1 21 59
M  V30 64 1 22 60
M  V30 65 1 27 61
M  V30 66 1 30 62
M  V30 67 1 34 63
M  V30 68 1 35 64
M  V30 69 1 36 65
M  V30 END BOND
M  V30 END CTAB
M  END
>  <Dataset>  (969) 
ChEMBL_Kinases

>  <Ligand_Instance>  (969) 
nan

>  <PDB_ID>  (969) 
nan

>  <Standardized_SMILES>  (969) 
CC1CCCCN1CCCNc1ncc2c(n1)c(Nc1ccc(F)c(Cl)c1)nc1cc(C(=O)O)ccc12

>  <Name>  (969) 
nan

>  <Pocket>  (969) 
nan

>  <ATP_Site>  (969) 
nan

>  <Peripheral>  (969) 
nan

>  <Num_H_Atoms_ProtBoundConf>  (969) 
nan

>  <Num_Resolved_Atoms>  (969) 
nan

>  <Num_Not_Resolved_Atoms>  (969) 
nan

$$$$
CHEMBL3700464
     RDKit          3D

  0  0  0  0  0  0  0  0  0  0999 V3000
M  V30 BEGIN CTAB
M  V30 COUNTS 52 55 0 0 0
M  V30 BEGIN ATOM
M  V30 1 C 3.792011 1.484178 4.728712 0
M  V30 2 N 3.426913 0.353063 3.897355 0
M  V30 3 C 2.605893 -0.536496 4.688644 0
M  V30 4 C 2.660377 0.861506 2.774260 0
M  V30 5 C 3.512190 1.686913 1.843586 0
M  V30 6 N 2.751569 2.205578 0.708131 0
M  V30 7 C 2.158804 1.177055 -0.075777 0
M  V30 8 N 2.795454 0.580704 -1.120419 0
M  V30 9 C 2.164058 -0.401384 -1.832513 0
M  V30 10 C 0.897046 -0.777062 -1.489529 0
M  V30 11 C 0.251872 -0.177093 -0.435669 0
M  V30 12 N 0.909946 0.798136 0.253001 0
M  V30 13 C -1.035393 -0.532711 -0.060054 0
M  V30 14 N -1.652841 0.117199 1.037612 0
M  V30 15 C -2.951452 -0.083701 1.566818 0
M  V30 16 C -3.360416 0.581544 2.695347 0
M  V30 17 C -4.571884 0.486850 3.305666 0
M  V30 18 C -5.501296 -0.377577 2.725912 0
M  V30 19 F -6.731257 -0.534305 3.264048 0
M  V30 20 C -5.142633 -1.069216 1.593478 0
M  V30 21 Cl -6.325700 -2.160510 0.865036 0
M  V30 22 C -3.897777 -0.928252 1.024307 0
M  V30 23 N -1.581647 -1.499453 -0.807200 0
M  V30 24 C -0.995506 -2.114419 -1.841640 0
M  V30 25 C -1.698365 -3.097360 -2.510481 0
M  V30 26 C -1.046076 -3.698109 -3.566580 0
M  V30 27 C -1.778815 -4.737525 -4.276198 0
M  V30 28 O -2.942960 -5.058606 -3.933062 0
M  V30 29 O -1.348536 -5.480442 -5.355920 0
M  V30 30 C 0.232770 -3.353748 -3.949998 0
M  V30 31 C 0.926121 -2.369698 -3.274063 0
M  V30 32 C 0.283698 -1.764647 -2.219156 0
M  V30 33 H 3.710083 1.206028 5.799652 0
M  V30 34 H 4.795914 1.904852 4.473731 0
M  V30 35 H 3.022446 2.295440 4.573679 0
M  V30 36 H 1.537236 -0.205381 4.602449 0
M  V30 37 H 2.890148 -0.401578 5.759770 0
M  V30 38 H 2.697014 -1.585514 4.358900 0
M  V30 39 H 2.197061 0.023596 2.187936 0
M  V30 40 H 1.811085 1.428382 3.188707 0
M  V30 41 H 4.375857 1.085440 1.492385 0
M  V30 42 H 3.915027 2.542367 2.420089 0
M  V30 43 H 2.598048 3.216556 0.415474 0
M  V30 44 H 2.776012 -0.761370 -2.600016 0
M  V30 45 H -1.071374 0.850012 1.529008 0
M  V30 46 H -2.669918 1.264750 3.178341 0
M  V30 47 H -4.822490 1.046137 4.197880 0
M  V30 48 H -3.690967 -1.499200 0.140867 0
M  V30 49 H -2.698198 -3.328921 -2.167428 0
M  V30 50 H -1.350041 -6.501391 -5.375468 0
M  V30 51 H 0.636885 -3.904351 -4.800852 0
M  V30 52 H 1.898346 -2.152811 -3.615068 0
M  V30 END ATOM
M  V30 BEGIN BOND
M  V30 1 1 1 2
M  V30 2 1 2 3
M  V30 3 1 2 4
M  V30 4 1 4 5
M  V30 5 1 5 6
M  V30 6 1 6 7
M  V30 7 2 7 8
M  V30 8 1 8 9
M  V30 9 2 9 10
M  V30 10 1 10 11
M  V30 11 2 11 12
M  V30 12 1 11 13
M  V30 13 1 13 14
M  V30 14 1 14 15
M  V30 15 2 15 16
M  V30 16 1 16 17
M  V30 17 2 17 18
M  V30 18 1 18 19
M  V30 19 1 18 20
M  V30 20 1 20 21
M  V30 21 2 20 22
M  V30 22 2 13 23
M  V30 23 1 23 24
M  V30 24 2 24 25
M  V30 25 1 25 26
M  V30 26 1 26 27
M  V30 27 2 27 28
M  V30 28 1 27 29
M  V30 29 2 26 30
M  V30 30 1 30 31
M  V30 31 2 31 32
M  V30 32 1 12 7
M  V30 33 1 22 15
M  V30 34 1 32 24
M  V30 35 1 32 10
M  V30 36 1 1 33
M  V30 37 1 1 34
M  V30 38 1 1 35
M  V30 39 1 3 36
M  V30 40 1 3 37
M  V30 41 1 3 38
M  V30 42 1 4 39
M  V30 43 1 4 40
M  V30 44 1 5 41
M  V30 45 1 5 42
M  V30 46 1 6 43
M  V30 47 1 9 44
M  V30 48 1 14 45
M  V30 49 1 16 46
M  V30 50 1 17 47
M  V30 51 1 22 48
M  V30 52 1 25 49
M  V30 53 1 29 50
M  V30 54 1 30 51
M  V30 55 1 31 52
M  V30 END BOND
M  V30 END CTAB
M  END
>  <Dataset>  (970) 
ChEMBL_Kinases

>  <Ligand_Instance>  (970) 
nan

>  <PDB_ID>  (970) 
nan

>  <Standardized_SMILES>  (970) 
CN(C)CCNc1ncc2c(n1)c(Nc1ccc(F)c(Cl)c1)nc1cc(C(=O)O)ccc12

>  <Name>  (970) 
nan

>  <Pocket>  (970) 
nan

>  <ATP_Site>  (970) 
nan

>  <Peripheral>  (970) 
nan

>  <Num_H_Atoms_ProtBoundConf>  (970) 
nan

>  <Num_Resolved_Atoms>  (970) 
nan

>  <Num_Not_Resolved_Atoms>  (970) 
nan

$$$$
CHEMBL3700462
     RDKit          3D

  0  0  0  0  0  0  0  0  0  0999 V3000
M  V30 BEGIN CTAB
M  V30 COUNTS 48 52 0 0 0
M  V30 BEGIN ATOM
M  V30 1 O 6.127303 -0.300964 1.324743 0
M  V30 2 C 5.724304 -1.371677 0.803325 0
M  V30 3 O 6.713507 -2.317546 0.570949 0
M  V30 4 C 4.332250 -1.638452 0.454250 0
M  V30 5 C 3.974681 -2.852546 -0.120045 0
M  V30 6 C 2.648752 -3.077531 -0.440227 0
M  V30 7 C 1.756691 -2.067295 -0.164228 0
M  V30 8 C 2.063708 -0.847505 0.403893 0
M  V30 9 C 3.407948 -0.623512 0.726764 0
M  V30 10 N 1.136214 0.093089 0.644440 0
M  V30 11 C -0.167766 -0.056882 0.359750 0
M  V30 12 N -1.064243 1.003032 0.653818 0
M  V30 13 C -0.831106 2.299170 1.242619 0
M  V30 14 C -0.282393 2.178442 2.608044 0
M  V30 15 C 1.032827 2.170176 2.999947 0
M  V30 16 C 1.403876 2.040439 4.318860 0
M  V30 17 C 0.469868 1.911515 5.321842 0
M  V30 18 C -0.847355 1.915078 4.977039 0
M  V30 19 C -1.188446 2.046813 3.644816 0
M  V30 20 C -0.525285 -1.263304 -0.211283 0
M  V30 21 N -1.843482 -1.447572 -0.512931 0
M  V30 22 C -2.251706 -2.610595 -1.074244 0
M  V30 23 N -3.627058 -2.802426 -1.388710 0
M  V30 24 C -4.503105 -1.677764 -1.061372 0
M  V30 25 C -4.220519 -0.377421 -1.714863 0
M  V30 26 C -5.375727 -1.203663 -2.149844 0
M  V30 27 N -1.340000 -3.581860 -1.330449 0
M  V30 28 C -0.019226 -3.391070 -1.025607 0
M  V30 29 C 0.423697 -2.226561 -0.457777 0
M  V30 30 H 7.512732 -2.431416 1.207950 0
M  V30 31 H 4.731527 -3.608097 -0.311244 0
M  V30 32 H 2.419613 -4.012617 -0.874695 0
M  V30 33 H 3.724319 0.290606 1.167169 0
M  V30 34 H -2.064422 0.759643 0.378370 0
M  V30 35 H -1.776483 2.849008 1.306649 0
M  V30 36 H -0.170279 2.932949 0.597192 0
M  V30 37 H 1.766316 2.277686 2.214652 0
M  V30 38 H 2.458620 2.041287 4.559872 0
M  V30 39 H 0.727599 1.808296 6.362229 0
M  V30 40 H -1.630979 1.815803 5.735352 0
M  V30 41 H -2.262407 2.042808 3.429430 0
M  V30 42 H -3.920168 -3.706439 -1.820994 0
M  V30 43 H -4.927446 -1.649353 -0.025138 0
M  V30 44 H -3.294260 -0.321815 -2.318143 0
M  V30 45 H -4.461613 0.582203 -1.206639 0
M  V30 46 H -6.405819 -0.840007 -1.876828 0
M  V30 47 H -5.359504 -1.686511 -3.148577 0
M  V30 48 H 0.548470 -4.232854 -1.285400 0
M  V30 END ATOM
M  V30 BEGIN BOND
M  V30 1 2 1 2
M  V30 2 1 2 3
M  V30 3 1 2 4
M  V30 4 2 4 5
M  V30 5 1 5 6
M  V30 6 2 6 7
M  V30 7 1 7 8
M  V30 8 2 8 9
M  V30 9 1 8 10
M  V30 10 2 10 11
M  V30 11 1 11 12
M  V30 12 1 12 13
M  V30 13 1 13 14
M  V30 14 2 14 15
M  V30 15 1 15 16
M  V30 16 2 16 17
M  V30 17 1 17 18
M  V30 18 2 18 19
M  V30 19 1 11 20
M  V30 20 2 20 21
M  V30 21 1 21 22
M  V30 22 1 22 23
M  V30 23 1 23 24
M  V30 24 1 24 25
M  V30 25 1 25 26
M  V30 26 2 22 27
M  V30 27 1 27 28
M  V30 28 2 28 29
M  V30 29 1 9 4
M  V30 30 1 19 14
M  V30 31 1 29 20
M  V30 32 1 29 7
M  V30 33 1 26 24
M  V30 34 1 3 30
M  V30 35 1 5 31
M  V30 36 1 6 32
M  V30 37 1 9 33
M  V30 38 1 12 34
M  V30 39 1 13 35
M  V30 40 1 13 36
M  V30 41 1 15 37
M  V30 42 1 16 38
M  V30 43 1 17 39
M  V30 44 1 18 40
M  V30 45 1 19 41
M  V30 46 1 23 42
M  V30 47 1 24 43
M  V30 48 1 25 44
M  V30 49 1 25 45
M  V30 50 1 26 46
M  V30 51 1 26 47
M  V30 52 1 28 48
M  V30 END BOND
M  V30 END CTAB
M  END
>  <Dataset>  (971) 
ChEMBL_Kinases

>  <Ligand_Instance>  (971) 
nan

>  <PDB_ID>  (971) 
nan

>  <Standardized_SMILES>  (971) 
O=C(O)c1ccc2c(c1)nc(NCc1ccccc1)c1nc(NC3CC3)ncc12

>  <Name>  (971) 
nan

>  <Pocket>  (971) 
nan

>  <ATP_Site>  (971) 
nan

>  <Peripheral>  (971) 
nan

>  <Num_H_Atoms_ProtBoundConf>  (971) 
nan

>  <Num_Resolved_Atoms>  (971) 
nan

>  <Num_Not_Resolved_Atoms>  (971) 
nan

$$$$
CHEMBL3700461
     RDKit          3D

  0  0  0  0  0  0  0  0  0  0999 V3000
M  V30 BEGIN CTAB
M  V30 COUNTS 47 51 0 0 0
M  V30 BEGIN ATOM
M  V30 1 O 5.894527 -2.848208 1.255456 0
M  V30 2 C 5.030788 -3.493815 1.907706 0
M  V30 3 O 5.489674 -4.549629 2.683716 0
M  V30 4 C 3.607543 -3.175523 1.873328 0
M  V30 5 C 2.708778 -3.937281 2.624397 0
M  V30 6 C 1.360029 -3.625782 2.583957 0
M  V30 7 C 0.990176 -2.579892 1.801962 0
M  V30 8 C 1.834513 -1.796887 1.042298 0
M  V30 9 C 3.202496 -2.099903 1.072932 0
M  V30 10 N 1.433092 -0.768079 0.278998 0
M  V30 11 C 0.142840 -0.407339 0.190009 0
M  V30 12 N -0.220160 0.686649 -0.633877 0
M  V30 13 C 0.620785 1.532173 -1.442169 0
M  V30 14 C 1.642439 2.282195 -0.674607 0
M  V30 15 C 1.235368 3.515002 -0.156104 0
M  V30 16 C 2.042717 4.362170 0.579196 0
M  V30 17 C 3.335196 3.938290 0.802722 0
M  V30 18 N 3.740223 2.755253 0.310020 0
M  V30 19 C 2.946291 1.938144 -0.404653 0
M  V30 20 C -0.762264 -1.158699 0.933708 0
M  V30 21 N -2.083404 -0.819530 0.866793 0
M  V30 22 C -3.003672 -1.511935 1.565474 0
M  V30 23 N -4.384700 -1.170116 1.505878 0
M  V30 24 C -4.752582 -0.048818 0.663475 0
M  V30 25 C -6.170035 0.369006 0.548684 0
M  V30 26 C -5.488074 -0.312754 -0.621694 0
M  V30 27 N -2.587143 -2.547879 2.332154 0
M  V30 28 C -1.282563 -2.897495 2.410045 0
M  V30 29 C -0.322530 -2.206954 1.706679 0
M  V30 30 H 6.277447 -5.138637 2.381375 0
M  V30 31 H 3.120248 -4.746989 3.210381 0
M  V30 32 H 0.725233 -4.231419 3.168691 0
M  V30 33 H 3.957137 -1.556400 0.519459 0
M  V30 34 H -1.268624 0.872662 -0.622872 0
M  V30 35 H 1.149964 0.910991 -2.219167 0
M  V30 36 H -0.026786 2.265197 -1.974196 0
M  V30 37 H 0.210064 3.871676 -0.322484 0
M  V30 38 H 1.658903 5.302589 0.949154 0
M  V30 39 H 3.998688 4.589201 1.382902 0
M  V30 40 H 3.264464 1.001822 -0.801790 0
M  V30 41 H -5.068213 -1.726490 2.058511 0
M  V30 42 H -4.034803 0.813104 0.595310 0
M  V30 43 H -6.431311 1.455749 0.430504 0
M  V30 44 H -6.915335 -0.264282 1.066702 0
M  V30 45 H -5.310561 0.323488 -1.504050 0
M  V30 46 H -5.784855 -1.371915 -0.863690 0
M  V30 47 H -1.131920 -3.736981 3.060372 0
M  V30 END ATOM
M  V30 BEGIN BOND
M  V30 1 2 1 2
M  V30 2 1 2 3
M  V30 3 1 2 4
M  V30 4 2 4 5
M  V30 5 1 5 6
M  V30 6 2 6 7
M  V30 7 1 7 8
M  V30 8 2 8 9
M  V30 9 1 8 10
M  V30 10 2 10 11
M  V30 11 1 11 12
M  V30 12 1 12 13
M  V30 13 1 13 14
M  V30 14 2 14 15
M  V30 15 1 15 16
M  V30 16 2 16 17
M  V30 17 1 17 18
M  V30 18 2 18 19
M  V30 19 1 11 20
M  V30 20 2 20 21
M  V30 21 1 21 22
M  V30 22 1 22 23
M  V30 23 1 23 24
M  V30 24 1 24 25
M  V30 25 1 25 26
M  V30 26 2 22 27
M  V30 27 1 27 28
M  V30 28 2 28 29
M  V30 29 1 9 4
M  V30 30 1 19 14
M  V30 31 1 29 20
M  V30 32 1 29 7
M  V30 33 1 26 24
M  V30 34 1 3 30
M  V30 35 1 5 31
M  V30 36 1 6 32
M  V30 37 1 9 33
M  V30 38 1 12 34
M  V30 39 1 13 35
M  V30 40 1 13 36
M  V30 41 1 15 37
M  V30 42 1 16 38
M  V30 43 1 17 39
M  V30 44 1 19 40
M  V30 45 1 23 41
M  V30 46 1 24 42
M  V30 47 1 25 43
M  V30 48 1 25 44
M  V30 49 1 26 45
M  V30 50 1 26 46
M  V30 51 1 28 47
M  V30 END BOND
M  V30 END CTAB
M  END
>  <Dataset>  (972) 
ChEMBL_Kinases

>  <Ligand_Instance>  (972) 
nan

>  <PDB_ID>  (972) 
nan

>  <Standardized_SMILES>  (972) 
O=C(O)c1ccc2c(c1)nc(NCc1cccnc1)c1nc(NC3CC3)ncc12

>  <Name>  (972) 
nan

>  <Pocket>  (972) 
nan

>  <ATP_Site>  (972) 
nan

>  <Peripheral>  (972) 
nan

>  <Num_H_Atoms_ProtBoundConf>  (972) 
nan

>  <Num_Resolved_Atoms>  (972) 
nan

>  <Num_Not_Resolved_Atoms>  (972) 
nan

$$$$
CHEMBL3700460
     RDKit          3D

  0  0  0  0  0  0  0  0  0  0999 V3000
M  V30 BEGIN CTAB
M  V30 COUNTS 49 53 0 0 0
M  V30 BEGIN ATOM
M  V30 1 C -0.416582 -3.302336 -2.834791 0
M  V30 2 O 0.221000 -4.272834 -2.025626 0
M  V30 3 C 1.038382 -3.893276 -0.972696 0
M  V30 4 C 1.540978 -5.033466 -0.343169 0
M  V30 5 C 2.397290 -4.943150 0.753266 0
M  V30 6 C 2.739115 -3.686351 1.206904 0
M  V30 7 C 2.257194 -2.547256 0.604442 0
M  V30 8 N 2.518584 -1.185025 0.894639 0
M  V30 9 C 1.707750 -0.047355 1.039726 0
M  V30 10 N 2.342937 1.137819 1.041462 0
M  V30 11 C 1.643361 2.301819 1.186649 0
M  V30 12 C 2.304767 3.509384 1.188351 0
M  V30 13 C 1.651392 4.710366 1.333077 0
M  V30 14 C 2.364667 5.983162 1.337644 0
M  V30 15 O 1.767241 7.089843 1.467637 0
M  V30 16 O 3.739161 6.030480 1.197819 0
M  V30 17 C 0.258376 4.734949 1.485759 0
M  V30 18 C -0.412305 3.518363 1.484407 0
M  V30 19 C 0.268674 2.333175 1.338214 0
M  V30 20 C -0.370466 1.119457 1.337568 0
M  V30 21 C -1.733036 1.097296 1.512144 0
M  V30 22 N -2.323762 -0.111042 1.534990 0
M  V30 23 C -1.642591 -1.259222 1.395773 0
M  V30 24 N -2.252068 -2.540962 1.449673 0
M  V30 25 C -3.701267 -2.670341 1.666457 0
M  V30 26 C -4.281852 -4.049383 1.839495 0
M  V30 27 C -4.463845 -3.335248 0.531605 0
M  V30 28 N -0.308464 -1.185707 1.225027 0
M  V30 29 C 0.354433 -0.038064 1.189968 0
M  V30 30 C 1.397528 -2.668492 -0.497811 0
M  V30 31 H -0.701256 -2.438870 -2.201173 0
M  V30 32 H -1.261527 -3.727204 -3.409146 0
M  V30 33 H 0.392757 -2.913706 -3.514552 0
M  V30 34 H 1.349399 -6.086379 -0.602796 0
M  V30 35 H 2.815903 -5.789564 1.277287 0
M  V30 36 H 3.386216 -3.451365 2.036581 0
M  V30 37 H 3.552776 -1.177144 0.995117 0
M  V30 38 H 3.384065 3.550175 1.074787 0
M  V30 39 H 4.300440 6.830330 1.489472 0
M  V30 40 H -0.269490 5.682989 1.599633 0
M  V30 41 H -1.457133 3.598272 1.601995 0
M  V30 42 H -2.395393 1.918835 1.632067 0
M  V30 43 H -1.709583 -3.401639 1.341947 0
M  V30 44 H -4.247134 -1.818054 2.130434 0
M  V30 45 H -5.163152 -4.138662 2.517421 0
M  V30 46 H -3.573985 -4.913467 1.861603 0
M  V30 47 H -3.857823 -3.711918 -0.332490 0
M  V30 48 H -5.487770 -3.007890 0.288045 0
M  V30 49 H 0.928995 -1.908795 -1.109236 0
M  V30 END ATOM
M  V30 BEGIN BOND
M  V30 1 1 1 2
M  V30 2 1 2 3
M  V30 3 2 3 4
M  V30 4 1 4 5
M  V30 5 2 5 6
M  V30 6 1 6 7
M  V30 7 1 7 8
M  V30 8 1 8 9
M  V30 9 2 9 10
M  V30 10 1 10 11
M  V30 11 2 11 12
M  V30 12 1 12 13
M  V30 13 1 13 14
M  V30 14 2 14 15
M  V30 15 1 14 16
M  V30 16 2 13 17
M  V30 17 1 17 18
M  V30 18 2 18 19
M  V30 19 1 19 20
M  V30 20 2 20 21
M  V30 21 1 21 22
M  V30 22 2 22 23
M  V30 23 1 23 24
M  V30 24 1 24 25
M  V30 25 1 25 26
M  V30 26 1 26 27
M  V30 27 1 23 28
M  V30 28 2 28 29
M  V30 29 2 7 30
M  V30 30 1 30 3
M  V30 31 1 29 9
M  V30 32 1 19 11
M  V30 33 1 29 20
M  V30 34 1 27 25
M  V30 35 1 1 31
M  V30 36 1 1 32
M  V30 37 1 1 33
M  V30 38 1 4 34
M  V30 39 1 5 35
M  V30 40 1 6 36
M  V30 41 1 8 37
M  V30 42 1 12 38
M  V30 43 1 16 39
M  V30 44 1 17 40
M  V30 45 1 18 41
M  V30 46 1 21 42
M  V30 47 1 24 43
M  V30 48 1 25 44
M  V30 49 1 26 45
M  V30 50 1 26 46
M  V30 51 1 27 47
M  V30 52 1 27 48
M  V30 53 1 30 49
M  V30 END BOND
M  V30 END CTAB
M  END
>  <Dataset>  (973) 
ChEMBL_Kinases

>  <Ligand_Instance>  (973) 
nan

>  <PDB_ID>  (973) 
nan

>  <Standardized_SMILES>  (973) 
COc1cccc(Nc2nc3cc(C(=O)O)ccc3c3cnc(NC4CC4)nc23)c1

>  <Name>  (973) 
nan

>  <Pocket>  (973) 
nan

>  <ATP_Site>  (973) 
nan

>  <Peripheral>  (973) 
nan

>  <Num_H_Atoms_ProtBoundConf>  (973) 
nan

>  <Num_Resolved_Atoms>  (973) 
nan

>  <Num_Not_Resolved_Atoms>  (973) 
nan

$$$$
CHEMBL3700459
     RDKit          3D

  0  0  0  0  0  0  0  0  0  0999 V3000
M  V30 BEGIN CTAB
M  V30 COUNTS 45 49 0 0 0
M  V30 BEGIN ATOM
M  V30 1 O 6.531849 1.929402 1.334238 0
M  V30 2 C 6.282065 0.792285 0.904855 0
M  V30 3 O 7.362574 -0.032885 0.685700 0
M  V30 4 C 4.927311 0.318859 0.634458 0
M  V30 5 C 4.735697 -0.980073 0.150795 0
M  V30 6 C 3.448152 -1.423468 -0.103858 0
M  V30 7 C 2.423663 -0.546157 0.138248 0
M  V30 8 C 2.553501 0.742409 0.613628 0
M  V30 9 C 3.856883 1.186304 0.869633 0
M  V30 10 N 1.501130 1.553487 0.829696 0
M  V30 11 C 0.221024 1.159701 0.593478 0
M  V30 12 N -0.887013 2.022962 0.824277 0
M  V30 13 C -1.490802 2.000070 2.112289 0
M  V30 14 C -1.000156 1.159351 3.092137 0
M  V30 15 C -1.576527 1.124935 4.351416 0
M  V30 16 F -1.110089 0.307049 5.326961 0
M  V30 17 C -2.651287 1.956904 4.586140 0
M  V30 18 C -3.192900 2.821537 3.654056 0
M  V30 19 F -4.241979 3.622050 3.910452 0
M  V30 20 C -2.570222 2.807240 2.415021 0
M  V30 21 C 0.033544 -0.121760 0.116444 0
M  V30 22 N -1.228273 -0.517779 -0.119278 0
M  V30 23 C -1.465199 -1.778600 -0.592511 0
M  V30 24 N -2.802889 -2.220137 -0.848187 0
M  V30 25 C -3.205056 -3.515801 -1.349188 0
M  V30 26 C -2.837717 -4.746696 -0.555139 0
M  V30 27 C -2.303890 -4.471580 -1.985180 0
M  V30 28 N -0.418266 -2.591930 -0.809788 0
M  V30 29 C 0.842804 -2.193677 -0.573318 0
M  V30 30 C 1.126912 -0.934992 -0.097404 0
M  V30 31 H 8.322625 0.181680 0.798957 0
M  V30 32 H 5.635475 -1.569463 0.003634 0
M  V30 33 H 3.368065 -2.402127 -0.463549 0
M  V30 34 H 4.049145 2.183139 1.244121 0
M  V30 35 H -1.278792 2.668527 0.104106 0
M  V30 36 H -0.165497 0.515722 2.903952 0
M  V30 37 H -3.140799 1.965228 5.567130 0
M  V30 38 H -2.981495 3.482929 1.662107 0
M  V30 39 H -3.568844 -1.507697 -0.641830 0
M  V30 40 H -4.263077 -3.560805 -1.708507 0
M  V30 41 H -3.543431 -5.578103 -0.446332 0
M  V30 42 H -2.059156 -4.665274 0.234694 0
M  V30 43 H -1.224943 -4.392419 -2.093039 0
M  V30 44 H -2.730554 -5.175419 -2.760884 0
M  V30 45 H 1.545266 -2.947934 -0.794488 0
M  V30 END ATOM
M  V30 BEGIN BOND
M  V30 1 2 1 2
M  V30 2 1 2 3
M  V30 3 1 2 4
M  V30 4 2 4 5
M  V30 5 1 5 6
M  V30 6 2 6 7
M  V30 7 1 7 8
M  V30 8 2 8 9
M  V30 9 1 8 10
M  V30 10 2 10 11
M  V30 11 1 11 12
M  V30 12 1 12 13
M  V30 13 2 13 14
M  V30 14 1 14 15
M  V30 15 1 15 16
M  V30 16 2 15 17
M  V30 17 1 17 18
M  V30 18 1 18 19
M  V30 19 2 18 20
M  V30 20 1 11 21
M  V30 21 2 21 22
M  V30 22 1 22 23
M  V30 23 1 23 24
M  V30 24 1 24 25
M  V30 25 1 25 26
M  V30 26 1 26 27
M  V30 27 2 23 28
M  V30 28 1 28 29
M  V30 29 2 29 30
M  V30 30 1 9 4
M  V30 31 1 20 13
M  V30 32 1 30 21
M  V30 33 1 30 7
M  V30 34 1 27 25
M  V30 35 1 3 31
M  V30 36 1 5 32
M  V30 37 1 6 33
M  V30 38 1 9 34
M  V30 39 1 12 35
M  V30 40 1 14 36
M  V30 41 1 17 37
M  V30 42 1 20 38
M  V30 43 1 24 39
M  V30 44 1 25 40
M  V30 45 1 26 41
M  V30 46 1 26 42
M  V30 47 1 27 43
M  V30 48 1 27 44
M  V30 49 1 29 45
M  V30 END BOND
M  V30 END CTAB
M  END
>  <Dataset>  (974) 
ChEMBL_Kinases

>  <Ligand_Instance>  (974) 
nan

>  <PDB_ID>  (974) 
nan

>  <Standardized_SMILES>  (974) 
O=C(O)c1ccc2c(c1)nc(Nc1cc(F)cc(F)c1)c1nc(NC3CC3)ncc12

>  <Name>  (974) 
nan

>  <Pocket>  (974) 
nan

>  <ATP_Site>  (974) 
nan

>  <Peripheral>  (974) 
nan

>  <Num_H_Atoms_ProtBoundConf>  (974) 
nan

>  <Num_Resolved_Atoms>  (974) 
nan

>  <Num_Not_Resolved_Atoms>  (974) 
nan

$$$$
CHEMBL3700458
     RDKit          3D

  0  0  0  0  0  0  0  0  0  0999 V3000
M  V30 BEGIN CTAB
M  V30 COUNTS 40 43 0 0 0
M  V30 BEGIN ATOM
M  V30 1 O 4.237465 -4.789823 2.388301 0
M  V30 2 C 3.464459 -3.814306 2.527804 0
M  V30 3 O 3.321904 -3.279685 3.795177 0
M  V30 4 C 2.743878 -3.269534 1.381446 0
M  V30 5 C 2.940648 -3.860728 0.143043 0
M  V30 6 C 2.242119 -3.324257 -0.938074 0
M  V30 7 C 1.394626 -2.259000 -0.796901 0
M  V30 8 C 1.244369 -1.719008 0.459264 0
M  V30 9 C 1.894379 -2.182892 1.589145 0
M  V30 10 N 0.415794 -0.680820 0.586072 0
M  V30 11 C -0.294654 -0.098933 -0.386070 0
M  V30 12 N -1.168911 1.003034 -0.228741 0
M  V30 13 C -1.490332 1.721210 0.950648 0
M  V30 14 C -2.348789 2.809045 1.005860 0
M  V30 15 C -2.654207 3.496377 2.149916 0
M  V30 16 C -2.098173 3.122333 3.351829 0
M  V30 17 C -1.237556 2.044901 3.345726 0
M  V30 18 C -0.670416 1.689919 4.672477 0
M  V30 19 F -0.535285 2.791450 5.480152 0
M  V30 20 F -1.384929 0.686941 5.279318 0
M  V30 21 F 0.620185 1.218570 4.421767 0
M  V30 22 C -0.963961 1.387931 2.166462 0
M  V30 23 C -0.134868 -0.648670 -1.635867 0
M  V30 24 C -0.767269 -0.209966 -2.777816 0
M  V30 25 C -0.632248 -0.735281 -4.046225 0
M  V30 26 N 0.206723 -1.784138 -4.166706 0
M  V30 27 C 0.871147 -2.276427 -3.076695 0
M  V30 28 C 0.704140 -1.721636 -1.840527 0
M  V30 29 H 4.104046 -3.264179 4.454991 0
M  V30 30 H 3.615908 -4.696603 0.075601 0
M  V30 31 H 2.438818 -3.826572 -1.865542 0
M  V30 32 H 1.769676 -1.751305 2.573592 0
M  V30 33 H -1.681877 1.403446 -1.017772 0
M  V30 34 H -2.814285 3.139390 0.063850 0
M  V30 35 H -3.337603 4.330193 2.073569 0
M  V30 36 H -2.398913 3.724177 4.197331 0
M  V30 37 H -0.288987 0.591533 2.345976 0
M  V30 38 H -1.445700 0.624819 -2.726357 0
M  V30 39 H -1.162040 -0.338841 -4.901549 0
M  V30 40 H 1.484199 -3.101112 -3.368650 0
M  V30 END ATOM
M  V30 BEGIN BOND
M  V30 1 2 1 2
M  V30 2 1 2 3
M  V30 3 1 2 4
M  V30 4 2 4 5
M  V30 5 1 5 6
M  V30 6 2 6 7
M  V30 7 1 7 8
M  V30 8 2 8 9
M  V30 9 1 8 10
M  V30 10 2 10 11
M  V30 11 1 11 12
M  V30 12 1 12 13
M  V30 13 2 13 14
M  V30 14 1 14 15
M  V30 15 2 15 16
M  V30 16 1 16 17
M  V30 17 1 17 18
M  V30 18 1 18 19
M  V30 19 1 18 20
M  V30 20 1 18 21
M  V30 21 2 17 22
M  V30 22 1 11 23
M  V30 23 2 23 24
M  V30 24 1 24 25
M  V30 25 2 25 26
M  V30 26 1 26 27
M  V30 27 2 27 28
M  V30 28 1 9 4
M  V30 29 1 22 13
M  V30 30 1 28 23
M  V30 31 1 28 7
M  V30 32 1 3 29
M  V30 33 1 5 30
M  V30 34 1 6 31
M  V30 35 1 9 32
M  V30 36 1 12 33
M  V30 37 1 14 34
M  V30 38 1 15 35
M  V30 39 1 16 36
M  V30 40 1 22 37
M  V30 41 1 24 38
M  V30 42 1 25 39
M  V30 43 1 27 40
M  V30 END BOND
M  V30 END CTAB
M  END
>  <Dataset>  (975) 
ChEMBL_Kinases

>  <Ligand_Instance>  (975) 
nan

>  <PDB_ID>  (975) 
nan

>  <Standardized_SMILES>  (975) 
O=C(O)c1ccc2c(c1)nc(Nc1cccc(C(F)(F)F)c1)c1ccncc12

>  <Name>  (975) 
nan

>  <Pocket>  (975) 
nan

>  <ATP_Site>  (975) 
nan

>  <Peripheral>  (975) 
nan

>  <Num_H_Atoms_ProtBoundConf>  (975) 
nan

>  <Num_Resolved_Atoms>  (975) 
nan

>  <Num_Not_Resolved_Atoms>  (975) 
nan

$$$$
CHEMBL3700457
     RDKit          3D

  0  0  0  0  0  0  0  0  0  0999 V3000
M  V30 BEGIN CTAB
M  V30 COUNTS 40 43 0 0 0
M  V30 BEGIN ATOM
M  V30 1 C 2.493773 -2.912091 5.937642 0
M  V30 2 C 2.208897 -2.571673 4.520078 0
M  V30 3 C 2.940484 -3.083394 3.462387 0
M  V30 4 C 2.679563 -2.769663 2.139398 0
M  V30 5 C 1.634977 -1.900749 1.858206 0
M  V30 6 C 0.878131 -1.366052 2.883580 0
M  V30 7 N -0.178039 -0.486122 2.580343 0
M  V30 8 C -0.458211 -0.153346 1.225785 0
M  V30 9 N 0.158600 0.913516 0.690469 0
M  V30 10 C -0.093148 1.244346 -0.588991 0
M  V30 11 C 0.584105 2.364283 -1.076126 0
M  V30 12 C 0.352307 2.735495 -2.384389 0
M  V30 13 C 1.053618 3.900994 -2.900141 0
M  V30 14 O 1.843154 4.542369 -2.169834 0
M  V30 15 O 0.890807 4.356588 -4.199671 0
M  V30 16 C -0.518420 2.040323 -3.213895 0
M  V30 17 C -1.172069 0.925999 -2.678402 0
M  V30 18 C -0.964863 0.529031 -1.381601 0
M  V30 19 C -1.617988 -0.569239 -0.876191 0
M  V30 20 C -2.480694 -1.275870 -1.663304 0
M  V30 21 N -3.058076 -2.331651 -1.050723 0
M  V30 22 C -2.813093 -2.664963 0.216612 0
M  V30 23 C -1.949527 -1.964807 1.018534 0
M  V30 24 C -1.331821 -0.873520 0.437893 0
M  V30 25 C 1.177349 -1.709232 4.185736 0
M  V30 26 H 1.592917 -2.789860 6.559997 0
M  V30 27 H 2.769351 -3.985749 6.003399 0
M  V30 28 H 3.338608 -2.276452 6.322466 0
M  V30 29 H 3.751877 -3.763356 3.745838 0
M  V30 30 H 3.316651 -3.229878 1.407361 0
M  V30 31 H 1.436881 -1.660535 0.827662 0
M  V30 32 H -0.755274 -0.080012 3.373976 0
M  V30 33 H 1.274582 2.938427 -0.463036 0
M  V30 34 H 0.870231 5.354792 -4.428312 0
M  V30 35 H -0.632727 2.407008 -4.218031 0
M  V30 36 H -1.822176 0.454659 -3.390967 0
M  V30 37 H -2.731881 -1.083844 -2.670052 0
M  V30 38 H -3.329348 -3.530598 0.611137 0
M  V30 39 H -1.737552 -2.218228 2.046746 0
M  V30 40 H 0.601524 -1.305389 5.004250 0
M  V30 END ATOM
M  V30 BEGIN BOND
M  V30 1 1 1 2
M  V30 2 2 2 3
M  V30 3 1 3 4
M  V30 4 2 4 5
M  V30 5 1 5 6
M  V30 6 1 6 7
M  V30 7 1 7 8
M  V30 8 2 8 9
M  V30 9 1 9 10
M  V30 10 2 10 11
M  V30 11 1 11 12
M  V30 12 1 12 13
M  V30 13 2 13 14
M  V30 14 1 13 15
M  V30 15 2 12 16
M  V30 16 1 16 17
M  V30 17 2 17 18
M  V30 18 1 18 19
M  V30 19 2 19 20
M  V30 20 1 20 21
M  V30 21 2 21 22
M  V30 22 1 22 23
M  V30 23 2 23 24
M  V30 24 2 6 25
M  V30 25 1 25 2
M  V30 26 1 24 8
M  V30 27 1 18 10
M  V30 28 1 24 19
M  V30 29 1 1 26
M  V30 30 1 1 27
M  V30 31 1 1 28
M  V30 32 1 3 29
M  V30 33 1 4 30
M  V30 34 1 5 31
M  V30 35 1 7 32
M  V30 36 1 11 33
M  V30 37 1 15 34
M  V30 38 1 16 35
M  V30 39 1 17 36
M  V30 40 1 20 37
M  V30 41 1 22 38
M  V30 42 1 23 39
M  V30 43 1 25 40
M  V30 END BOND
M  V30 END CTAB
M  END
>  <Dataset>  (976) 
ChEMBL_Kinases

>  <Ligand_Instance>  (976) 
nan

>  <PDB_ID>  (976) 
nan

>  <Standardized_SMILES>  (976) 
Cc1cccc(Nc2nc3cc(C(=O)O)ccc3c3cnccc23)c1

>  <Name>  (976) 
nan

>  <Pocket>  (976) 
nan

>  <ATP_Site>  (976) 
nan

>  <Peripheral>  (976) 
nan

>  <Num_H_Atoms_ProtBoundConf>  (976) 
nan

>  <Num_Resolved_Atoms>  (976) 
nan

>  <Num_Not_Resolved_Atoms>  (976) 
nan

$$$$
CHEMBL3694393
     RDKit          3D

  0  0  0  0  0  0  0  0  0  0999 V3000
M  V30 BEGIN CTAB
M  V30 COUNTS 53 55 0 0 0
M  V30 BEGIN ATOM
M  V30 1 C -1.978363 -3.389320 3.114454 0
M  V30 2 O -1.331031 -3.343245 1.860270 0
M  V30 3 C 0.020549 -3.043073 1.793336 0
M  V30 4 C 0.601525 -3.011579 0.544438 0
M  V30 5 C 1.938338 -2.720312 0.407820 0
M  V30 6 C 2.788035 -2.444386 1.456156 0
M  V30 7 C 4.224918 -2.108775 1.511346 0
M  V30 8 N 4.568458 -0.758230 1.606697 0
M  V30 9 C 4.404015 0.196567 0.614028 0
M  V30 10 C 3.076211 0.567791 0.135210 0
M  V30 11 C 2.364825 1.506270 0.897757 0
M  V30 12 C 1.130155 2.002689 0.595117 0
M  V30 13 C 0.504180 1.573820 -0.535607 0
M  V30 14 N -0.781781 2.069925 -0.880888 0
M  V30 15 C -1.914739 1.369336 -0.392927 0
M  V30 16 O -1.655304 0.352441 0.315090 0
M  V30 17 N -3.258732 1.738103 -0.649522 0
M  V30 18 C -4.277994 0.918015 -0.078380 0
M  V30 19 C -4.856641 -0.185522 -0.670450 0
M  V30 20 N -5.812335 -0.876266 -0.022658 0
M  V30 21 C -6.216130 -0.492273 1.221738 0
M  V30 22 C -7.245398 -1.251605 1.897260 0
M  V30 23 N -8.078846 -1.846797 2.450872 0
M  V30 24 C -5.627602 0.618309 1.806976 0
M  V30 25 N -4.658921 1.317702 1.149320 0
M  V30 26 C 1.136514 0.651097 -1.340559 0
M  V30 27 O 0.546696 0.179026 -2.503578 0
M  V30 28 C 1.215057 -0.782204 -3.334303 0
M  V30 29 C 2.380624 0.184344 -0.987541 0
M  V30 30 C 2.122995 -2.495847 2.693367 0
M  V30 31 C 0.791146 -2.780012 2.905060 0
M  V30 32 H -2.053680 -2.382058 3.554829 0
M  V30 33 H -2.941671 -3.924245 3.076639 0
M  V30 34 H -1.316109 -3.993658 3.794725 0
M  V30 35 H 0.087200 -3.203874 -0.406665 0
M  V30 36 H 2.475986 -2.676511 -0.551672 0
M  V30 37 H 4.761542 -2.566691 0.618190 0
M  V30 38 H 4.607156 -2.645919 2.439228 0
M  V30 39 H 5.098315 -0.475171 2.456433 0
M  V30 40 H 5.100086 0.007707 -0.282430 0
M  V30 41 H 4.861648 1.172878 1.008486 0
M  V30 42 H 2.804799 1.891684 1.813117 0
M  V30 43 H 0.635055 2.726394 1.227160 0
M  V30 44 H -0.930803 2.915797 -1.469858 0
M  V30 45 H -3.382443 2.601153 -1.250435 0
M  V30 46 H -4.474450 -0.409718 -1.648251 0
M  V30 47 H -5.959708 0.919115 2.808883 0
M  V30 48 H 1.199214 -1.738362 -2.797511 0
M  V30 49 H 2.262759 -0.419315 -3.517372 0
M  V30 50 H 0.673732 -0.884691 -4.287986 0
M  V30 51 H 2.922989 -0.547237 -1.592009 0
M  V30 52 H 2.678134 -2.296933 3.612071 0
M  V30 53 H 0.355891 -2.800317 3.882133 0
M  V30 END ATOM
M  V30 BEGIN BOND
M  V30 1 1 1 2
M  V30 2 1 2 3
M  V30 3 2 3 4
M  V30 4 1 4 5
M  V30 5 2 5 6
M  V30 6 1 6 7
M  V30 7 1 7 8
M  V30 8 1 8 9
M  V30 9 1 9 10
M  V30 10 2 10 11
M  V30 11 1 11 12
M  V30 12 2 12 13
M  V30 13 1 13 14
M  V30 14 1 14 15
M  V30 15 2 15 16
M  V30 16 1 15 17
M  V30 17 1 17 18
M  V30 18 2 18 19
M  V30 19 1 19 20
M  V30 20 2 20 21
M  V30 21 1 21 22
M  V30 22 3 22 23
M  V30 23 1 21 24
M  V30 24 2 24 25
M  V30 25 1 13 26
M  V30 26 1 26 27
M  V30 27 1 27 28
M  V30 28 2 26 29
M  V30 29 1 6 30
M  V30 30 2 30 31
M  V30 31 1 31 3
M  V30 32 1 29 10
M  V30 33 1 25 18
M  V30 34 1 1 32
M  V30 35 1 1 33
M  V30 36 1 1 34
M  V30 37 1 4 35
M  V30 38 1 5 36
M  V30 39 1 7 37
M  V30 40 1 7 38
M  V30 41 1 8 39
M  V30 42 1 9 40
M  V30 43 1 9 41
M  V30 44 1 11 42
M  V30 45 1 12 43
M  V30 46 1 14 44
M  V30 47 1 17 45
M  V30 48 1 19 46
M  V30 49 1 24 47
M  V30 50 1 28 48
M  V30 51 1 28 49
M  V30 52 1 28 50
M  V30 53 1 29 51
M  V30 54 1 30 52
M  V30 55 1 31 53
M  V30 END BOND
M  V30 END CTAB
M  END
>  <Dataset>  (977) 
ChEMBL_Kinases

>  <Ligand_Instance>  (977) 
nan

>  <PDB_ID>  (977) 
nan

>  <Standardized_SMILES>  (977) 
COc1ccc(CNCc2ccc(NC(=O)Nc3cnc(C#N)cn3)c(OC)c2)cc1

>  <Name>  (977) 
nan

>  <Pocket>  (977) 
nan

>  <ATP_Site>  (977) 
nan

>  <Peripheral>  (977) 
nan

>  <Num_H_Atoms_ProtBoundConf>  (977) 
nan

>  <Num_Resolved_Atoms>  (977) 
nan

>  <Num_Not_Resolved_Atoms>  (977) 
nan

$$$$
CHEMBL3700454
     RDKit          3D

  0  0  0  0  0  0  0  0  0  0999 V3000
M  V30 BEGIN CTAB
M  V30 COUNTS 48 52 0 0 0
M  V30 BEGIN ATOM
M  V30 1 O 4.779239 -4.829177 4.061991 0
M  V30 2 C 3.668202 -4.250076 4.113790 0
M  V30 3 O 3.029661 -4.273456 5.336651 0
M  V30 4 C 3.079903 -3.588195 2.951341 0
M  V30 5 C 3.765744 -3.598288 1.755670 0
M  V30 6 C 3.209320 -2.967622 0.640666 0
M  V30 7 C 1.987480 -2.349445 0.760360 0
M  V30 8 C 1.330847 -2.359091 1.969776 0
M  V30 9 C 1.852718 -2.975651 3.099482 0
M  V30 10 N 0.139630 -1.767907 2.124654 0
M  V30 11 C -0.495288 -1.123850 1.105196 0
M  V30 12 N -1.759584 -0.505629 1.317055 0
M  V30 13 C -2.594787 0.201949 0.397908 0
M  V30 14 C -3.881543 0.805451 0.924543 0
M  V30 15 C -2.751115 1.680941 0.409308 0
M  V30 16 C 0.175970 -1.123177 -0.099745 0
M  V30 17 N -0.381795 -0.507208 -1.154044 0
M  V30 18 C 0.233342 -0.477927 -2.346579 0
M  V30 19 N -0.384238 0.183256 -3.444698 0
M  V30 20 C -1.675395 0.822770 -3.270764 0
M  V30 21 C -2.139539 1.454427 -4.545132 0
M  V30 22 C -1.848913 2.761944 -4.900224 0
M  V30 23 C -2.327015 3.245555 -6.099800 0
M  V30 24 C -3.081045 2.500789 -6.971051 0
M  V30 25 C -3.394495 1.182825 -6.650519 0
M  V30 26 C -2.900503 0.715898 -5.433255 0
M  V30 27 N 1.428865 -1.067575 -2.515242 0
M  V30 28 C 2.063162 -1.708833 -1.512859 0
M  V30 29 C 1.401583 -1.716721 -0.308458 0
M  V30 30 H 3.175072 -4.991590 6.055513 0
M  V30 31 H 4.740337 -4.105387 1.707162 0
M  V30 32 H 3.792907 -3.021378 -0.225484 0
M  V30 33 H 1.334593 -2.981370 4.047425 0
M  V30 34 H -2.136054 -0.584266 2.309675 0
M  V30 35 H -2.645231 -0.296346 -0.608909 0
M  V30 36 H -4.001138 0.860768 2.015260 0
M  V30 37 H -4.773999 0.713636 0.290933 0
M  V30 38 H -2.150466 2.277404 1.145893 0
M  V30 39 H -2.965316 2.206568 -0.535648 0
M  V30 40 H 0.084703 0.212523 -4.377472 0
M  V30 41 H -1.663006 1.563378 -2.446059 0
M  V30 42 H -2.413104 0.027919 -3.026129 0
M  V30 43 H -1.254271 3.340024 -4.206859 0
M  V30 44 H -2.087104 4.280598 -6.362916 0
M  V30 45 H -3.460464 2.875344 -7.916767 0
M  V30 46 H -3.982805 0.531040 -7.282427 0
M  V30 47 H -3.149540 -0.312844 -5.191037 0
M  V30 48 H 2.989523 -2.133936 -1.749212 0
M  V30 END ATOM
M  V30 BEGIN BOND
M  V30 1 2 1 2
M  V30 2 1 2 3
M  V30 3 1 2 4
M  V30 4 2 4 5
M  V30 5 1 5 6
M  V30 6 2 6 7
M  V30 7 1 7 8
M  V30 8 2 8 9
M  V30 9 1 8 10
M  V30 10 2 10 11
M  V30 11 1 11 12
M  V30 12 1 12 13
M  V30 13 1 13 14
M  V30 14 1 14 15
M  V30 15 1 11 16
M  V30 16 2 16 17
M  V30 17 1 17 18
M  V30 18 1 18 19
M  V30 19 1 19 20
M  V30 20 1 20 21
M  V30 21 2 21 22
M  V30 22 1 22 23
M  V30 23 2 23 24
M  V30 24 1 24 25
M  V30 25 2 25 26
M  V30 26 2 18 27
M  V30 27 1 27 28
M  V30 28 2 28 29
M  V30 29 1 9 4
M  V30 30 1 15 13
M  V30 31 1 29 16
M  V30 32 1 29 7
M  V30 33 1 26 21
M  V30 34 1 3 30
M  V30 35 1 5 31
M  V30 36 1 6 32
M  V30 37 1 9 33
M  V30 38 1 12 34
M  V30 39 1 13 35
M  V30 40 1 14 36
M  V30 41 1 14 37
M  V30 42 1 15 38
M  V30 43 1 15 39
M  V30 44 1 19 40
M  V30 45 1 20 41
M  V30 46 1 20 42
M  V30 47 1 22 43
M  V30 48 1 23 44
M  V30 49 1 24 45
M  V30 50 1 25 46
M  V30 51 1 26 47
M  V30 52 1 28 48
M  V30 END BOND
M  V30 END CTAB
M  END
>  <Dataset>  (978) 
ChEMBL_Kinases

>  <Ligand_Instance>  (978) 
nan

>  <PDB_ID>  (978) 
nan

>  <Standardized_SMILES>  (978) 
O=C(O)c1ccc2c(c1)nc(NC1CC1)c1nc(NCc3ccccc3)ncc12

>  <Name>  (978) 
nan

>  <Pocket>  (978) 
nan

>  <ATP_Site>  (978) 
nan

>  <Peripheral>  (978) 
nan

>  <Num_H_Atoms_ProtBoundConf>  (978) 
nan

>  <Num_Resolved_Atoms>  (978) 
nan

>  <Num_Not_Resolved_Atoms>  (978) 
nan

$$$$
CHEMBL3700453
     RDKit          3D

  0  0  0  0  0  0  0  0  0  0999 V3000
M  V30 BEGIN CTAB
M  V30 COUNTS 42 46 0 0 0
M  V30 BEGIN ATOM
M  V30 1 O 7.311054 -1.631048 1.604449 0
M  V30 2 C 6.557471 -2.603583 1.333356 0
M  V30 3 O 7.132920 -3.865338 1.257812 0
M  V30 4 C 5.119924 -2.447121 1.099794 0
M  V30 5 C 4.344451 -3.550414 0.806385 0
M  V30 6 C 2.992244 -3.383384 0.589465 0
M  V30 7 C 2.419115 -2.143464 0.662314 0
M  V30 8 C 3.208528 -1.054601 0.956166 0
M  V30 9 C 4.564089 -1.180693 1.179450 0
M  V30 10 N 2.719779 0.177165 1.042784 0
M  V30 11 C 1.392272 0.425366 0.841612 0
M  V30 12 N 0.855791 1.741640 0.935130 0
M  V30 13 C -0.492633 2.181458 0.747334 0
M  V30 14 C -0.799086 3.629247 0.939490 0
M  V30 15 C -1.400198 2.558185 1.843684 0
M  V30 16 C 0.582777 -0.675114 0.542682 0
M  V30 17 N -0.737255 -0.527839 0.331045 0
M  V30 18 C -1.540465 -1.566971 0.044020 0
M  V30 19 N -2.938124 -1.419272 -0.180105 0
M  V30 20 C -3.644992 -0.156584 -0.127494 0
M  V30 21 C -5.113358 -0.103491 -0.368194 0
M  V30 22 C -4.509900 0.242758 0.982180 0
M  V30 23 N -1.007876 -2.785351 -0.033168 0
M  V30 24 C 0.298342 -3.046550 0.160066 0
M  V30 25 C 1.074073 -1.959719 0.449068 0
M  V30 26 H 7.996253 -4.117617 1.722614 0
M  V30 27 H 4.872081 -4.512180 0.764649 0
M  V30 28 H 2.473513 -4.293509 0.368922 0
M  V30 29 H 5.208934 -0.355915 1.410375 0
M  V30 30 H 1.564367 2.487442 1.177756 0
M  V30 31 H -0.978562 1.763179 -0.177491 0
M  V30 32 H -1.491643 4.189894 0.304352 0
M  V30 33 H -0.021288 4.261526 1.432493 0
M  V30 34 H -2.483424 2.416989 1.742515 0
M  V30 35 H -1.056990 2.549598 2.909723 0
M  V30 36 H -3.530954 -2.245405 -0.399322 0
M  V30 37 H -3.054422 0.669395 -0.620881 0
M  V30 38 H -5.521605 0.763008 -0.917692 0
M  V30 39 H -5.710230 -1.012161 -0.501769 0
M  V30 40 H -4.562086 1.298080 1.318533 0
M  V30 41 H -4.816894 -0.455183 1.787880 0
M  V30 42 H 0.588898 -4.054969 0.069731 0
M  V30 END ATOM
M  V30 BEGIN BOND
M  V30 1 2 1 2
M  V30 2 1 2 3
M  V30 3 1 2 4
M  V30 4 2 4 5
M  V30 5 1 5 6
M  V30 6 2 6 7
M  V30 7 1 7 8
M  V30 8 2 8 9
M  V30 9 1 8 10
M  V30 10 2 10 11
M  V30 11 1 11 12
M  V30 12 1 12 13
M  V30 13 1 13 14
M  V30 14 1 14 15
M  V30 15 1 11 16
M  V30 16 2 16 17
M  V30 17 1 17 18
M  V30 18 1 18 19
M  V30 19 1 19 20
M  V30 20 1 20 21
M  V30 21 1 21 22
M  V30 22 2 18 23
M  V30 23 1 23 24
M  V30 24 2 24 25
M  V30 25 1 9 4
M  V30 26 1 15 13
M  V30 27 1 25 16
M  V30 28 1 25 7
M  V30 29 1 22 20
M  V30 30 1 3 26
M  V30 31 1 5 27
M  V30 32 1 6 28
M  V30 33 1 9 29
M  V30 34 1 12 30
M  V30 35 1 13 31
M  V30 36 1 14 32
M  V30 37 1 14 33
M  V30 38 1 15 34
M  V30 39 1 15 35
M  V30 40 1 19 36
M  V30 41 1 20 37
M  V30 42 1 21 38
M  V30 43 1 21 39
M  V30 44 1 22 40
M  V30 45 1 22 41
M  V30 46 1 24 42
M  V30 END BOND
M  V30 END CTAB
M  END
>  <Dataset>  (979) 
ChEMBL_Kinases

>  <Ligand_Instance>  (979) 
nan

>  <PDB_ID>  (979) 
nan

>  <Standardized_SMILES>  (979) 
O=C(O)c1ccc2c(c1)nc(NC1CC1)c1nc(NC3CC3)ncc12

>  <Name>  (979) 
nan

>  <Pocket>  (979) 
nan

>  <ATP_Site>  (979) 
nan

>  <Peripheral>  (979) 
nan

>  <Num_H_Atoms_ProtBoundConf>  (979) 
nan

>  <Num_Resolved_Atoms>  (979) 
nan

>  <Num_Not_Resolved_Atoms>  (979) 
nan

$$$$
CHEMBL3700452
     RDKit          3D

  0  0  0  0  0  0  0  0  0  0999 V3000
M  V30 BEGIN CTAB
M  V30 COUNTS 40 43 0 0 0
M  V30 BEGIN ATOM
M  V30 1 C 2.471742 -6.477348 -0.533528 0
M  V30 2 C 1.844364 -5.400520 0.284885 0
M  V30 3 O 1.711025 -4.163481 -0.391966 0
M  V30 4 C 1.132669 -3.109263 0.310568 0
M  V30 5 N 0.735084 -3.337249 1.597485 0
M  V30 6 C 0.170389 -2.338936 2.309583 0
M  V30 7 C 0.027764 -1.128559 1.680799 0
M  V30 8 C 0.427785 -0.895023 0.382490 0
M  V30 9 N 0.989744 -1.918026 -0.301244 0
M  V30 10 C 0.300579 0.305103 -0.280089 0
M  V30 11 N 0.722885 0.504717 -1.611121 0
M  V30 12 C 0.554057 1.797113 -2.236977 0
M  V30 13 C 1.050079 1.910802 -3.698612 0
M  V30 14 C 1.759092 2.614605 -2.602481 0
M  V30 15 N -0.258244 1.299433 0.419212 0
M  V30 16 C -0.674777 1.150349 1.691708 0
M  V30 17 C -1.240691 2.250351 2.321333 0
M  V30 18 C -1.664145 2.085033 3.626564 0
M  V30 19 C -2.276757 3.213052 4.361086 0
M  V30 20 O -2.683821 3.132374 5.549751 0
M  V30 21 O -2.445389 4.461639 3.771663 0
M  V30 22 C -1.539450 0.896129 4.286590 0
M  V30 23 C -0.968114 -0.195026 3.634576 0
M  V30 24 C -0.537574 -0.060282 2.335631 0
M  V30 25 H 3.227341 -7.026940 0.063327 0
M  V30 26 H 1.699336 -7.220083 -0.799483 0
M  V30 27 H 2.875090 -6.079547 -1.485283 0
M  V30 28 H 2.409565 -5.231549 1.229377 0
M  V30 29 H 0.819094 -5.689391 0.602874 0
M  V30 30 H -0.117144 -2.568535 3.294905 0
M  V30 31 H 1.145936 -0.293486 -2.102170 0
M  V30 32 H -0.363506 2.389376 -2.005473 0
M  V30 33 H 1.523038 0.995715 -4.126892 0
M  V30 34 H 0.420015 2.460855 -4.407374 0
M  V30 35 H 2.710060 2.204448 -2.210090 0
M  V30 36 H 1.721772 3.705985 -2.589166 0
M  V30 37 H -1.346906 3.209030 1.804733 0
M  V30 38 H -3.322904 4.965979 3.969774 0
M  V30 39 H -1.892738 0.818756 5.324450 0
M  V30 40 H -0.912867 -1.086043 4.234413 0
M  V30 END ATOM
M  V30 BEGIN BOND
M  V30 1 1 1 2
M  V30 2 1 2 3
M  V30 3 1 3 4
M  V30 4 2 4 5
M  V30 5 1 5 6
M  V30 6 2 6 7
M  V30 7 1 7 8
M  V30 8 2 8 9
M  V30 9 1 8 10
M  V30 10 1 10 11
M  V30 11 1 11 12
M  V30 12 1 12 13
M  V30 13 1 13 14
M  V30 14 2 10 15
M  V30 15 1 15 16
M  V30 16 2 16 17
M  V30 17 1 17 18
M  V30 18 1 18 19
M  V30 19 2 19 20
M  V30 20 1 19 21
M  V30 21 2 18 22
M  V30 22 1 22 23
M  V30 23 2 23 24
M  V30 24 1 9 4
M  V30 25 1 14 12
M  V30 26 1 24 16
M  V30 27 1 24 7
M  V30 28 1 1 25
M  V30 29 1 1 26
M  V30 30 1 1 27
M  V30 31 1 2 28
M  V30 32 1 2 29
M  V30 33 1 6 30
M  V30 34 1 11 31
M  V30 35 1 12 32
M  V30 36 1 13 33
M  V30 37 1 13 34
M  V30 38 1 14 35
M  V30 39 1 14 36
M  V30 40 1 17 37
M  V30 41 1 21 38
M  V30 42 1 22 39
M  V30 43 1 23 40
M  V30 END BOND
M  V30 END CTAB
M  END
>  <Dataset>  (980) 
ChEMBL_Kinases

>  <Ligand_Instance>  (980) 
nan

>  <PDB_ID>  (980) 
nan

>  <Standardized_SMILES>  (980) 
CCOc1ncc2c(n1)c(NC1CC1)nc1cc(C(=O)O)ccc12

>  <Name>  (980) 
nan

>  <Pocket>  (980) 
nan

>  <ATP_Site>  (980) 
nan

>  <Peripheral>  (980) 
nan

>  <Num_H_Atoms_ProtBoundConf>  (980) 
nan

>  <Num_Resolved_Atoms>  (980) 
nan

>  <Num_Not_Resolved_Atoms>  (980) 
nan

$$$$
CHEMBL3700450
     RDKit          3D

  0  0  0  0  0  0  0  0  0  0999 V3000
M  V30 BEGIN CTAB
M  V30 COUNTS 47 50 0 0 0
M  V30 BEGIN ATOM
M  V30 1 O 1.607336 -4.359279 -0.844241 0
M  V30 2 C 0.914876 -4.543750 0.191047 0
M  V30 3 O 1.502555 -3.844439 1.231554 0
M  V30 4 C -0.293510 -5.392524 0.134606 0
M  V30 5 C -1.550555 -4.645135 -0.135541 0
M  V30 6 N -1.607344 -3.909980 -1.369205 0
M  V30 7 C -0.976049 -2.836543 -2.039504 0
M  V30 8 N -0.002269 -2.776852 -2.966848 0
M  V30 9 C 0.444012 -1.599757 -3.444495 0
M  V30 10 C -0.087922 -0.414021 -2.993717 0
M  V30 11 C -1.086384 -0.471282 -2.043484 0
M  V30 12 N -1.496523 -1.674998 -1.599259 0
M  V30 13 C -1.640654 0.726379 -1.569528 0
M  V30 14 N -2.662011 0.565747 -0.595169 0
M  V30 15 C -2.356034 0.490914 0.792364 0
M  V30 16 C -1.042431 0.538522 1.212256 0
M  V30 17 C -0.770284 0.464697 2.559728 0
M  V30 18 C -1.812487 0.343677 3.482412 0
M  V30 19 C -3.128755 0.296000 3.062212 0
M  V30 20 Cl -4.449412 0.144487 4.200829 0
M  V30 21 C -3.385411 0.372349 1.689472 0
M  V30 22 N -1.165350 1.890264 -2.071412 0
M  V30 23 C -0.189003 1.919871 -2.999376 0
M  V30 24 C 0.234889 3.148992 -3.452989 0
M  V30 25 C 1.238909 3.173791 -4.404683 0
M  V30 26 C 1.739090 4.438472 -4.931335 0
M  V30 27 O 2.643950 4.567166 -5.791400 0
M  V30 28 O 1.263051 5.676993 -4.535088 0
M  V30 29 C 1.800518 2.008996 -4.886274 0
M  V30 30 C 1.388557 0.754562 -4.442713 0
M  V30 31 C 0.390567 0.773320 -3.499413 0
M  V30 32 H 1.709073 -2.845690 1.087823 0
M  V30 33 H -0.357050 -5.884966 1.154984 0
M  V30 34 H -0.114106 -6.218214 -0.599568 0
M  V30 35 H -1.783657 -3.992013 0.746969 0
M  V30 36 H -2.375574 -5.419328 -0.186754 0
M  V30 37 H -2.299499 -4.139071 -2.125557 0
M  V30 38 H 1.199296 -1.744196 -4.154260 0
M  V30 39 H -3.645108 0.503825 -0.935587 0
M  V30 40 H -0.293619 0.632945 0.436540 0
M  V30 41 H 0.285678 0.505757 2.837267 0
M  V30 42 H -1.568308 0.288417 4.526926 0
M  V30 43 H -4.427777 0.335608 1.356038 0
M  V30 44 H -0.172259 4.087971 -3.107868 0
M  V30 45 H 1.847756 6.515541 -4.442554 0
M  V30 46 H 2.598599 2.065086 -5.643527 0
M  V30 47 H 1.858800 -0.082975 -4.852269 0
M  V30 END ATOM
M  V30 BEGIN BOND
M  V30 1 2 1 2
M  V30 2 1 2 3
M  V30 3 1 2 4
M  V30 4 1 4 5
M  V30 5 1 5 6
M  V30 6 1 6 7
M  V30 7 2 7 8
M  V30 8 1 8 9
M  V30 9 2 9 10
M  V30 10 1 10 11
M  V30 11 2 11 12
M  V30 12 1 11 13
M  V30 13 1 13 14
M  V30 14 1 14 15
M  V30 15 2 15 16
M  V30 16 1 16 17
M  V30 17 2 17 18
M  V30 18 1 18 19
M  V30 19 1 19 20
M  V30 20 2 19 21
M  V30 21 2 13 22
M  V30 22 1 22 23
M  V30 23 2 23 24
M  V30 24 1 24 25
M  V30 25 1 25 26
M  V30 26 2 26 27
M  V30 27 1 26 28
M  V30 28 2 25 29
M  V30 29 1 29 30
M  V30 30 2 30 31
M  V30 31 1 12 7
M  V30 32 1 21 15
M  V30 33 1 31 23
M  V30 34 1 31 10
M  V30 35 1 3 32
M  V30 36 1 4 33
M  V30 37 1 4 34
M  V30 38 1 5 35
M  V30 39 1 5 36
M  V30 40 1 6 37
M  V30 41 1 9 38
M  V30 42 1 14 39
M  V30 43 1 16 40
M  V30 44 1 17 41
M  V30 45 1 18 42
M  V30 46 1 21 43
M  V30 47 1 24 44
M  V30 48 1 28 45
M  V30 49 1 29 46
M  V30 50 1 30 47
M  V30 END BOND
M  V30 END CTAB
M  END
>  <Dataset>  (981) 
ChEMBL_Kinases

>  <Ligand_Instance>  (981) 
nan

>  <PDB_ID>  (981) 
nan

>  <Standardized_SMILES>  (981) 
O=C(O)CCNc1ncc2c(n1)c(Nc1cccc(Cl)c1)nc1cc(C(=O)O)ccc12

>  <Name>  (981) 
nan

>  <Pocket>  (981) 
nan

>  <ATP_Site>  (981) 
nan

>  <Peripheral>  (981) 
nan

>  <Num_H_Atoms_ProtBoundConf>  (981) 
nan

>  <Num_Resolved_Atoms>  (981) 
nan

>  <Num_Not_Resolved_Atoms>  (981) 
nan

$$$$
CHEMBL3700449
     RDKit          3D

  0  0  0  0  0  0  0  0  0  0999 V3000
M  V30 BEGIN CTAB
M  V30 COUNTS 48 51 0 0 0
M  V30 BEGIN ATOM
M  V30 1 N 4.493204 -3.332533 3.798516 0
M  V30 2 C 4.568921 -1.927195 3.489527 0
M  V30 3 O 4.766491 -1.511354 4.656884 0
M  V30 4 C 4.392192 -1.610479 2.030796 0
M  V30 5 C 4.357947 -0.115727 1.932712 0
M  V30 6 N 4.187902 0.398341 0.595913 0
M  V30 7 C 3.006728 -0.158879 0.035693 0
M  V30 8 N 3.014312 -1.127155 -0.932020 0
M  V30 9 C 1.844173 -1.603849 -1.390566 0
M  V30 10 C 0.625181 -1.159205 -0.928234 0
M  V30 11 C 0.672018 -0.186657 0.043195 0
M  V30 12 N 1.834010 0.330438 0.542399 0
M  V30 13 C -0.490379 0.320659 0.567867 0
M  V30 14 N -0.508795 1.316921 1.588993 0
M  V30 15 C -1.580986 2.016777 2.207746 0
M  V30 16 C -1.444190 2.685842 3.403929 0
M  V30 17 C -2.550700 3.347941 3.905183 0
M  V30 18 C -3.750819 3.340168 3.231935 0
M  V30 19 C -3.868213 2.665823 2.036908 0
M  V30 20 Cl -5.474295 2.755543 1.296041 0
M  V30 21 C -2.772387 1.982441 1.494581 0
M  V30 22 N -1.622778 -0.198587 0.064870 0
M  V30 23 C -1.697694 -1.144155 -0.879004 0
M  V30 24 C -2.925542 -1.596058 -1.317451 0
M  V30 25 C -2.926123 -2.576245 -2.303863 0
M  V30 26 C -4.196237 -3.086633 -2.804444 0
M  V30 27 O -4.373405 -3.966968 -3.693211 0
M  V30 28 O -5.425300 -2.638438 -2.336947 0
M  V30 29 C -1.762850 -3.087694 -2.833039 0
M  V30 30 C -0.513680 -2.638502 -2.396644 0
M  V30 31 C -0.549198 -1.670288 -1.422218 0
M  V30 32 H 4.630696 -4.367721 3.840560 0
M  V30 33 H 3.940470 -3.956234 4.432137 0
M  V30 34 H 3.435805 -2.105394 1.752679 0
M  V30 35 H 5.240417 -2.068647 1.522557 0
M  V30 36 H 5.296747 0.261393 2.396543 0
M  V30 37 H 3.548040 0.286714 2.578733 0
M  V30 38 H 4.881267 1.076422 0.183488 0
M  V30 39 H 1.989159 -2.341285 -2.131742 0
M  V30 40 H 0.433305 1.592586 1.952549 0
M  V30 41 H -0.453484 2.629769 3.856821 0
M  V30 42 H -2.338031 3.844788 4.852494 0
M  V30 43 H -4.563320 3.879089 3.683426 0
M  V30 44 H -3.066587 1.535914 0.569759 0
M  V30 45 H -3.824817 -1.180839 -0.886474 0
M  V30 46 H -6.286649 -3.162522 -2.357360 0
M  V30 47 H -1.814913 -3.847683 -3.598736 0
M  V30 48 H 0.366412 -3.067856 -2.838757 0
M  V30 END ATOM
M  V30 BEGIN BOND
M  V30 1 1 1 2
M  V30 2 2 2 3
M  V30 3 1 2 4
M  V30 4 1 4 5
M  V30 5 1 5 6
M  V30 6 1 6 7
M  V30 7 2 7 8
M  V30 8 1 8 9
M  V30 9 2 9 10
M  V30 10 1 10 11
M  V30 11 2 11 12
M  V30 12 1 11 13
M  V30 13 1 13 14
M  V30 14 1 14 15
M  V30 15 2 15 16
M  V30 16 1 16 17
M  V30 17 2 17 18
M  V30 18 1 18 19
M  V30 19 1 19 20
M  V30 20 2 19 21
M  V30 21 2 13 22
M  V30 22 1 22 23
M  V30 23 2 23 24
M  V30 24 1 24 25
M  V30 25 1 25 26
M  V30 26 2 26 27
M  V30 27 1 26 28
M  V30 28 2 25 29
M  V30 29 1 29 30
M  V30 30 2 30 31
M  V30 31 1 12 7
M  V30 32 1 21 15
M  V30 33 1 31 23
M  V30 34 1 31 10
M  V30 35 1 1 32
M  V30 36 1 1 33
M  V30 37 1 4 34
M  V30 38 1 4 35
M  V30 39 1 5 36
M  V30 40 1 5 37
M  V30 41 1 6 38
M  V30 42 1 9 39
M  V30 43 1 14 40
M  V30 44 1 16 41
M  V30 45 1 17 42
M  V30 46 1 18 43
M  V30 47 1 21 44
M  V30 48 1 24 45
M  V30 49 1 28 46
M  V30 50 1 29 47
M  V30 51 1 30 48
M  V30 END BOND
M  V30 END CTAB
M  END
>  <Dataset>  (982) 
ChEMBL_Kinases

>  <Ligand_Instance>  (982) 
nan

>  <PDB_ID>  (982) 
nan

>  <Standardized_SMILES>  (982) 
NC(=O)CCNc1ncc2c(n1)c(Nc1cccc(Cl)c1)nc1cc(C(=O)O)ccc12

>  <Name>  (982) 
nan

>  <Pocket>  (982) 
nan

>  <ATP_Site>  (982) 
nan

>  <Peripheral>  (982) 
nan

>  <Num_H_Atoms_ProtBoundConf>  (982) 
nan

>  <Num_Resolved_Atoms>  (982) 
nan

>  <Num_Not_Resolved_Atoms>  (982) 
nan

$$$$
CHEMBL3700445
     RDKit          3D

  0  0  0  0  0  0  0  0  0  0999 V3000
M  V30 BEGIN CTAB
M  V30 COUNTS 37 40 0 0 0
M  V30 BEGIN ATOM
M  V30 1 O 3.720843 -0.041789 4.317456 0
M  V30 2 C 3.600758 -1.201282 3.855473 0
M  V30 3 O 4.428305 -1.793784 4.787055 0
M  V30 4 C 2.826180 -1.666106 2.715300 0
M  V30 5 C 2.759485 -2.975356 2.294130 0
M  V30 6 C 1.993561 -3.286965 1.190030 0
M  V30 7 C 1.324498 -2.268965 0.552813 0
M  V30 8 C 1.394475 -0.961420 0.978240 0
M  V30 9 C 2.159804 -0.609677 2.092535 0
M  V30 10 N 0.720934 0.005635 0.306365 0
M  V30 11 C -0.034535 -0.228147 -0.781220 0
M  V30 12 N -0.658152 0.934127 -1.320698 0
M  V30 13 C -1.250793 1.827096 -0.353008 0
M  V30 14 C -1.439559 3.183013 -0.499573 0
M  V30 15 C -2.059199 3.893025 0.518215 0
M  V30 16 C -2.502333 3.318374 1.679475 0
M  V30 17 C -2.337576 1.953630 1.880028 0
M  V30 18 Cl -2.852154 1.067436 3.298949 0
M  V30 19 C -1.716483 1.275991 0.846798 0
M  V30 20 C -0.112701 -1.529510 -1.216036 0
M  V30 21 N -0.885681 -1.705001 -2.305654 0
M  V30 22 C -0.973426 -2.994870 -2.746057 0
M  V30 23 O -1.745748 -3.293082 -3.866535 0
M  V30 24 N -0.329923 -4.007712 -2.127231 0
M  V30 25 C 0.444281 -3.801200 -1.026948 0
M  V30 26 C 0.566324 -2.520407 -0.542087 0
M  V30 27 H 4.215870 -1.996663 5.743366 0
M  V30 28 H 3.340237 -3.700036 2.886387 0
M  V30 29 H 1.985234 -4.311489 0.917653 0
M  V30 30 H 2.190097 0.426079 2.398064 0
M  V30 31 H -0.738460 1.222219 -2.318716 0
M  V30 32 H -1.069678 3.570457 -1.430233 0
M  V30 33 H -2.185507 4.970148 0.354522 0
M  V30 34 H -2.980055 3.860733 2.463557 0
M  V30 35 H -1.574441 0.192590 0.976500 0
M  V30 36 H -1.533446 -4.082251 -4.456567 0
M  V30 37 H 0.906615 -4.681268 -0.619379 0
M  V30 END ATOM
M  V30 BEGIN BOND
M  V30 1 2 1 2
M  V30 2 1 2 3
M  V30 3 1 2 4
M  V30 4 2 4 5
M  V30 5 1 5 6
M  V30 6 2 6 7
M  V30 7 1 7 8
M  V30 8 2 8 9
M  V30 9 1 8 10
M  V30 10 2 10 11
M  V30 11 1 11 12
M  V30 12 1 12 13
M  V30 13 2 13 14
M  V30 14 1 14 15
M  V30 15 2 15 16
M  V30 16 1 16 17
M  V30 17 1 17 18
M  V30 18 2 17 19
M  V30 19 1 11 20
M  V30 20 2 20 21
M  V30 21 1 21 22
M  V30 22 1 22 23
M  V30 23 2 22 24
M  V30 24 1 24 25
M  V30 25 2 25 26
M  V30 26 1 9 4
M  V30 27 1 19 13
M  V30 28 1 26 20
M  V30 29 1 26 7
M  V30 30 1 3 27
M  V30 31 1 5 28
M  V30 32 1 6 29
M  V30 33 1 9 30
M  V30 34 1 12 31
M  V30 35 1 14 32
M  V30 36 1 15 33
M  V30 37 1 16 34
M  V30 38 1 19 35
M  V30 39 1 23 36
M  V30 40 1 25 37
M  V30 END BOND
M  V30 END CTAB
M  END
>  <Dataset>  (983) 
ChEMBL_Kinases

>  <Ligand_Instance>  (983) 
nan

>  <PDB_ID>  (983) 
nan

>  <Standardized_SMILES>  (983) 
O=C(O)c1ccc2c(c1)nc(Nc1cccc(Cl)c1)c1nc(O)ncc12

>  <Name>  (983) 
nan

>  <Pocket>  (983) 
nan

>  <ATP_Site>  (983) 
nan

>  <Peripheral>  (983) 
nan

>  <Num_H_Atoms_ProtBoundConf>  (983) 
nan

>  <Num_Resolved_Atoms>  (983) 
nan

>  <Num_Not_Resolved_Atoms>  (983) 
nan

$$$$
CHEMBL3700444
     RDKit          3D

  0  0  0  0  0  0  0  0  0  0999 V3000
M  V30 BEGIN CTAB
M  V30 COUNTS 50 54 0 0 0
M  V30 BEGIN ATOM
M  V30 1 C 2.387718 -3.847377 4.147219 0
M  V30 2 C 2.871481 -3.329682 3.165730 0
M  V30 3 C 3.444416 -2.727849 1.978531 0
M  V30 4 C 4.668477 -3.113689 1.475393 0
M  V30 5 C 5.219154 -2.541383 0.330961 0
M  V30 6 C 4.534529 -1.551531 -0.339827 0
M  V30 7 C 3.308225 -1.182811 0.186136 0
M  V30 8 N 2.578231 -0.174350 -0.502108 0
M  V30 9 C 1.400483 0.563246 -0.197825 0
M  V30 10 N 1.510930 1.834243 0.269725 0
M  V30 11 C 0.437293 2.579702 0.583176 0
M  V30 12 C 0.573166 3.873572 1.052433 0
M  V30 13 C -0.551190 4.611320 1.359922 0
M  V30 14 C -0.438577 5.988994 1.855435 0
M  V30 15 O -1.439783 6.707916 2.155452 0
M  V30 16 O 0.781813 6.615292 2.035062 0
M  V30 17 C -1.849527 4.111200 1.220152 0
M  V30 18 C -1.976973 2.804605 0.745859 0
M  V30 19 C -0.854162 2.085393 0.444762 0
M  V30 20 C -0.927963 0.809057 -0.025631 0
M  V30 21 C -2.166662 0.241744 -0.187423 0
M  V30 22 N -2.258866 -1.014962 -0.646093 0
M  V30 23 C -1.216985 -1.795520 -0.972543 0
M  V30 24 N -1.381352 -3.120357 -1.449912 0
M  V30 25 C -2.562996 -3.910194 -1.562604 0
M  V30 26 C -3.127077 -4.480355 -0.315457 0
M  V30 27 C -3.594216 -3.755899 0.858899 0
M  V30 28 C -2.310274 -4.606136 0.943689 0
M  V30 29 N 0.001704 -1.259225 -0.821488 0
M  V30 30 C 0.129893 -0.004247 -0.364325 0
M  V30 31 C 2.751388 -1.741285 1.318692 0
M  V30 32 H 1.965142 -4.322151 5.008799 0
M  V30 33 H 5.232205 -3.887291 1.977372 0
M  V30 34 H 6.179084 -2.836407 -0.072141 0
M  V30 35 H 4.889965 -1.045105 -1.245879 0
M  V30 36 H 2.862625 0.194188 -1.436534 0
M  V30 37 H 1.556887 4.332311 1.188103 0
M  V30 38 H 0.954580 7.310999 2.763120 0
M  V30 39 H -2.714336 4.706495 1.466865 0
M  V30 40 H -2.972160 2.464358 0.655444 0
M  V30 41 H -3.135889 0.664527 0.003742 0
M  V30 42 H -0.494911 -3.614940 -1.777495 0
M  V30 43 H -3.376757 -3.246961 -2.004227 0
M  V30 44 H -2.428911 -4.748888 -2.309067 0
M  V30 45 H -3.707334 -5.436154 -0.518893 0
M  V30 46 H -4.426929 -4.221799 1.475996 0
M  V30 47 H -3.506041 -2.696123 1.071544 0
M  V30 48 H -2.339992 -5.541975 1.529095 0
M  V30 49 H -1.361636 -4.007876 1.008546 0
M  V30 50 H 1.783631 -1.378077 1.642884 0
M  V30 END ATOM
M  V30 BEGIN BOND
M  V30 1 3 1 2
M  V30 2 1 2 3
M  V30 3 2 3 4
M  V30 4 1 4 5
M  V30 5 2 5 6
M  V30 6 1 6 7
M  V30 7 1 7 8
M  V30 8 1 8 9
M  V30 9 2 9 10
M  V30 10 1 10 11
M  V30 11 2 11 12
M  V30 12 1 12 13
M  V30 13 1 13 14
M  V30 14 2 14 15
M  V30 15 1 14 16
M  V30 16 2 13 17
M  V30 17 1 17 18
M  V30 18 2 18 19
M  V30 19 1 19 20
M  V30 20 2 20 21
M  V30 21 1 21 22
M  V30 22 2 22 23
M  V30 23 1 23 24
M  V30 24 1 24 25
M  V30 25 1 25 26
M  V30 26 1 26 27
M  V30 27 1 27 28
M  V30 28 1 23 29
M  V30 29 2 29 30
M  V30 30 2 7 31
M  V30 31 1 31 3
M  V30 32 1 30 9
M  V30 33 1 19 11
M  V30 34 1 30 20
M  V30 35 1 28 26
M  V30 36 1 1 32
M  V30 37 1 4 33
M  V30 38 1 5 34
M  V30 39 1 6 35
M  V30 40 1 8 36
M  V30 41 1 12 37
M  V30 42 1 16 38
M  V30 43 1 17 39
M  V30 44 1 18 40
M  V30 45 1 21 41
M  V30 46 1 24 42
M  V30 47 1 25 43
M  V30 48 1 25 44
M  V30 49 1 26 45
M  V30 50 1 27 46
M  V30 51 1 27 47
M  V30 52 1 28 48
M  V30 53 1 28 49
M  V30 54 1 31 50
M  V30 END BOND
M  V30 END CTAB
M  END
>  <Dataset>  (984) 
ChEMBL_Kinases

>  <Ligand_Instance>  (984) 
nan

>  <PDB_ID>  (984) 
nan

>  <Standardized_SMILES>  (984) 
C#Cc1cccc(Nc2nc3cc(C(=O)O)ccc3c3cnc(NCC4CC4)nc23)c1

>  <Name>  (984) 
nan

>  <Pocket>  (984) 
nan

>  <ATP_Site>  (984) 
nan

>  <Peripheral>  (984) 
nan

>  <Num_H_Atoms_ProtBoundConf>  (984) 
nan

>  <Num_Resolved_Atoms>  (984) 
nan

>  <Num_Not_Resolved_Atoms>  (984) 
nan

$$$$
CHEMBL3700443
     RDKit          3D

  0  0  0  0  0  0  0  0  0  0999 V3000
M  V30 BEGIN CTAB
M  V30 COUNTS 54 58 0 0 0
M  V30 BEGIN ATOM
M  V30 1 C 1.360476 -0.553596 5.966872 0
M  V30 2 C 1.460738 -1.311846 5.036236 0
M  V30 3 C 1.600673 -2.233315 3.929920 0
M  V30 4 C 1.903652 -3.568014 4.072662 0
M  V30 5 C 2.006739 -4.326597 2.945859 0
M  V30 6 C 1.820242 -3.810028 1.679572 0
M  V30 7 C 1.511959 -2.454993 1.524867 0
M  V30 8 N 1.302396 -1.845209 0.231657 0
M  V30 9 C 0.984014 -0.458337 0.183942 0
M  V30 10 N 1.890772 0.555633 0.087190 0
M  V30 11 C 1.467187 1.851786 0.053059 0
M  V30 12 C 2.440686 2.824242 -0.046254 0
M  V30 13 C 2.031803 4.145591 -0.083028 0
M  V30 14 C 3.025297 5.212544 -0.187939 0
M  V30 15 O 2.792807 6.436047 -0.230082 0
M  V30 16 O 4.374311 4.917310 -0.251467 0
M  V30 17 C 0.687129 4.441483 -0.020232 0
M  V30 18 C -0.246600 3.428441 0.078652 0
M  V30 19 C 0.115032 2.103585 0.118241 0
M  V30 20 C -0.845298 1.126268 0.216324 0
M  V30 21 C -2.164995 1.462072 0.276347 0
M  V30 22 N -3.050832 0.454900 0.371766 0
M  V30 23 C -2.627631 -0.845236 0.405749 0
M  V30 24 N -3.558231 -1.913814 0.507887 0
M  V30 25 C -4.187608 -2.513302 -0.633205 0
M  V30 26 C -3.207865 -3.123346 -1.605584 0
M  V30 27 C -2.409380 -4.233252 -1.016601 0
M  V30 28 C -1.093090 -4.129073 -1.708562 0
M  V30 29 C -1.164728 -2.853117 -2.463083 0
M  V30 30 O -2.321290 -2.182739 -2.106302 0
M  V30 31 N -1.317186 -1.139656 0.344547 0
M  V30 32 C -0.363819 -0.168032 0.247037 0
M  V30 33 C 1.407737 -1.682765 2.683955 0
M  V30 34 H 1.262150 0.138542 6.789683 0
M  V30 35 H 2.044966 -3.950728 5.062515 0
M  V30 36 H 2.244110 -5.380880 3.025994 0
M  V30 37 H 1.894040 -4.379992 0.766501 0
M  V30 38 H 1.392644 -2.439101 -0.601274 0
M  V30 39 H 3.497293 2.617574 -0.096670 0
M  V30 40 H 5.122819 5.579193 -0.096112 0
M  V30 41 H 0.439523 5.508373 -0.054504 0
M  V30 42 H -1.249430 3.814679 0.117723 0
M  V30 43 H -2.578050 2.437759 0.256118 0
M  V30 44 H -3.658388 -2.132623 1.536999 0
M  V30 45 H -4.905124 -3.284488 -0.313961 0
M  V30 46 H -4.785465 -1.745264 -1.182271 0
M  V30 47 H -3.811521 -3.480073 -2.478154 0
M  V30 48 H -2.889305 -5.192975 -1.339660 0
M  V30 49 H -2.317943 -4.197579 0.087756 0
M  V30 50 H -0.901421 -5.002733 -2.393031 0
M  V30 51 H -0.264489 -4.146939 -0.968454 0
M  V30 52 H -1.140008 -3.085845 -3.566195 0
M  V30 53 H -0.302258 -2.163295 -2.296223 0
M  V30 54 H 1.171720 -0.650693 2.541915 0
M  V30 END ATOM
M  V30 BEGIN BOND
M  V30 1 3 1 2
M  V30 2 1 2 3
M  V30 3 2 3 4
M  V30 4 1 4 5
M  V30 5 2 5 6
M  V30 6 1 6 7
M  V30 7 1 7 8
M  V30 8 1 8 9
M  V30 9 2 9 10
M  V30 10 1 10 11
M  V30 11 2 11 12
M  V30 12 1 12 13
M  V30 13 1 13 14
M  V30 14 2 14 15
M  V30 15 1 14 16
M  V30 16 2 13 17
M  V30 17 1 17 18
M  V30 18 2 18 19
M  V30 19 1 19 20
M  V30 20 2 20 21
M  V30 21 1 21 22
M  V30 22 2 22 23
M  V30 23 1 23 24
M  V30 24 1 24 25
M  V30 25 1 25 26
M  V30 26 1 26 27
M  V30 27 1 27 28
M  V30 28 1 28 29
M  V30 29 1 29 30
M  V30 30 1 23 31
M  V30 31 2 31 32
M  V30 32 2 7 33
M  V30 33 1 33 3
M  V30 34 1 32 9
M  V30 35 1 19 11
M  V30 36 1 32 20
M  V30 37 1 30 26
M  V30 38 1 1 34
M  V30 39 1 4 35
M  V30 40 1 5 36
M  V30 41 1 6 37
M  V30 42 1 8 38
M  V30 43 1 12 39
M  V30 44 1 16 40
M  V30 45 1 17 41
M  V30 46 1 18 42
M  V30 47 1 21 43
M  V30 48 1 24 44
M  V30 49 1 25 45
M  V30 50 1 25 46
M  V30 51 1 26 47
M  V30 52 1 27 48
M  V30 53 1 27 49
M  V30 54 1 28 50
M  V30 55 1 28 51
M  V30 56 1 29 52
M  V30 57 1 29 53
M  V30 58 1 33 54
M  V30 END BOND
M  V30 END CTAB
M  END
>  <Dataset>  (985) 
ChEMBL_Kinases

>  <Ligand_Instance>  (985) 
nan

>  <PDB_ID>  (985) 
nan

>  <Standardized_SMILES>  (985) 
C#Cc1cccc(Nc2nc3cc(C(=O)O)ccc3c3cnc(NCC4CCCO4)nc23)c1

>  <Name>  (985) 
nan

>  <Pocket>  (985) 
nan

>  <ATP_Site>  (985) 
nan

>  <Peripheral>  (985) 
nan

>  <Num_H_Atoms_ProtBoundConf>  (985) 
nan

>  <Num_Resolved_Atoms>  (985) 
nan

>  <Num_Not_Resolved_Atoms>  (985) 
nan

$$$$
CHEMBL3700442
     RDKit          3D

  0  0  0  0  0  0  0  0  0  0999 V3000
M  V30 BEGIN CTAB
M  V30 COUNTS 59 62 0 0 0
M  V30 BEGIN ATOM
M  V30 1 C 1.026391 -4.011490 7.173277 0
M  V30 2 C 1.122065 -3.353032 6.173929 0
M  V30 3 C 1.235678 -2.583736 4.964941 0
M  V30 4 C 2.097953 -3.093567 3.987989 0
M  V30 5 C 2.256667 -2.409362 2.787819 0
M  V30 6 C 1.582612 -1.236492 2.536096 0
M  V30 7 C 0.736852 -0.744646 3.503811 0
M  V30 8 N 0.016544 0.455368 3.277154 0
M  V30 9 C 0.105473 1.151745 2.042075 0
M  V30 10 N 0.940491 2.186899 1.741502 0
M  V30 11 C 0.931304 2.770925 0.531881 0
M  V30 12 C 1.850537 3.808288 0.385219 0
M  V30 13 C 1.851128 4.412597 -0.871815 0
M  V30 14 C 2.779722 5.503586 -1.126261 0
M  V30 15 O 2.860526 6.116151 -2.249359 0
M  V30 16 O 3.684241 6.021792 -0.215402 0
M  V30 17 C 1.019174 4.026449 -1.889152 0
M  V30 18 C 0.123098 2.997226 -1.706611 0
M  V30 19 C 0.085915 2.370394 -0.484284 0
M  V30 20 C -0.774788 1.334542 -0.240853 0
M  V30 21 C -1.632150 0.889432 -1.221019 0
M  V30 22 N -2.434195 -0.124154 -0.925776 0
M  V30 23 C -2.428417 -0.713693 0.279884 0
M  V30 24 N -3.316836 -1.793709 0.489665 0
M  V30 25 C -3.514779 -3.182222 0.196609 0
M  V30 26 C -2.337491 -4.036316 0.592578 0
M  V30 27 C -1.099139 -3.631367 -0.149413 0
M  V30 28 O -1.329743 -3.796593 -1.533792 0
M  V30 29 C -0.213740 -3.436790 -2.260653 0
M  V30 30 C -0.584026 -2.382164 -3.266180 0
M  V30 31 C 0.347661 -4.623244 -3.067361 0
M  V30 32 N -1.577306 -0.260174 1.233377 0
M  V30 33 C -0.733823 0.762756 1.012469 0
M  V30 34 C 0.573489 -1.415457 4.694900 0
M  V30 35 H 0.948876 -4.579373 8.065237 0
M  V30 36 H 2.667011 -4.023215 4.121937 0
M  V30 37 H 2.915595 -2.814788 2.059332 0
M  V30 38 H 1.703067 -0.702591 1.601135 0
M  V30 39 H -0.604548 0.883600 3.996675 0
M  V30 40 H 2.534694 4.179406 1.112478 0
M  V30 41 H 4.330504 6.779726 -0.394826 0
M  V30 42 H 1.076691 4.548368 -2.855252 0
M  V30 43 H -0.496225 2.748320 -2.547005 0
M  V30 44 H -1.702378 1.293746 -2.197017 0
M  V30 45 H -4.033680 -1.262600 1.069747 0
M  V30 46 H -4.439011 -3.527416 0.747943 0
M  V30 47 H -3.729930 -3.325648 -0.890821 0
M  V30 48 H -2.211933 -4.038082 1.692083 0
M  V30 49 H -2.557559 -5.098910 0.274256 0
M  V30 50 H -0.731465 -2.620680 0.072057 0
M  V30 51 H -0.290171 -4.372075 0.117247 0
M  V30 52 H 0.616603 -3.073012 -1.611717 0
M  V30 53 H 0.289802 -1.708365 -3.463757 0
M  V30 54 H -1.435201 -1.765618 -2.946053 0
M  V30 55 H -0.909652 -2.847017 -4.243329 0
M  V30 56 H 0.966131 -5.256074 -2.376272 0
M  V30 57 H 1.068832 -4.164751 -3.761996 0
M  V30 58 H -0.467529 -5.191972 -3.525939 0
M  V30 59 H -0.090746 -1.055856 5.496158 0
M  V30 END ATOM
M  V30 BEGIN BOND
M  V30 1 3 1 2
M  V30 2 1 2 3
M  V30 3 2 3 4
M  V30 4 1 4 5
M  V30 5 2 5 6
M  V30 6 1 6 7
M  V30 7 1 7 8
M  V30 8 1 8 9
M  V30 9 2 9 10
M  V30 10 1 10 11
M  V30 11 2 11 12
M  V30 12 1 12 13
M  V30 13 1 13 14
M  V30 14 2 14 15
M  V30 15 1 14 16
M  V30 16 2 13 17
M  V30 17 1 17 18
M  V30 18 2 18 19
M  V30 19 1 19 20
M  V30 20 2 20 21
M  V30 21 1 21 22
M  V30 22 2 22 23
M  V30 23 1 23 24
M  V30 24 1 24 25
M  V30 25 1 25 26
M  V30 26 1 26 27
M  V30 27 1 27 28
M  V30 28 1 28 29
M  V30 29 1 29 30
M  V30 30 1 29 31
M  V30 31 1 23 32
M  V30 32 2 32 33
M  V30 33 2 7 34
M  V30 34 1 34 3
M  V30 35 1 33 9
M  V30 36 1 19 11
M  V30 37 1 33 20
M  V30 38 1 1 35
M  V30 39 1 4 36
M  V30 40 1 5 37
M  V30 41 1 6 38
M  V30 42 1 8 39
M  V30 43 1 12 40
M  V30 44 1 16 41
M  V30 45 1 17 42
M  V30 46 1 18 43
M  V30 47 1 21 44
M  V30 48 1 24 45
M  V30 49 1 25 46
M  V30 50 1 25 47
M  V30 51 1 26 48
M  V30 52 1 26 49
M  V30 53 1 27 50
M  V30 54 1 27 51
M  V30 55 1 29 52
M  V30 56 1 30 53
M  V30 57 1 30 54
M  V30 58 1 30 55
M  V30 59 1 31 56
M  V30 60 1 31 57
M  V30 61 1 31 58
M  V30 62 1 34 59
M  V30 END BOND
M  V30 END CTAB
M  END
>  <Dataset>  (986) 
ChEMBL_Kinases

>  <Ligand_Instance>  (986) 
nan

>  <PDB_ID>  (986) 
nan

>  <Standardized_SMILES>  (986) 
C#Cc1cccc(Nc2nc3cc(C(=O)O)ccc3c3cnc(NCCCOC(C)C)nc23)c1

>  <Name>  (986) 
nan

>  <Pocket>  (986) 
nan

>  <ATP_Site>  (986) 
nan

>  <Peripheral>  (986) 
nan

>  <Num_H_Atoms_ProtBoundConf>  (986) 
nan

>  <Num_Resolved_Atoms>  (986) 
nan

>  <Num_Not_Resolved_Atoms>  (986) 
nan

$$$$
CHEMBL3700441
     RDKit          3D

  0  0  0  0  0  0  0  0  0  0999 V3000
M  V30 BEGIN CTAB
M  V30 COUNTS 56 59 0 0 0
M  V30 BEGIN ATOM
M  V30 1 C 2.219141 -4.249619 3.282849 0
M  V30 2 C 2.521701 -3.497235 2.379907 0
M  V30 3 C 2.867558 -2.587800 1.323831 0
M  V30 4 C 4.170937 -2.239254 1.046313 0
M  V30 5 C 4.491935 -1.347543 0.015079 0
M  V30 6 C 3.395854 -0.856211 -0.685960 0
M  V30 7 C 2.047634 -1.187315 -0.429327 0
M  V30 8 N 1.206974 -0.477648 -1.335406 0
M  V30 9 C 0.742825 0.460567 -0.353209 0
M  V30 10 N 1.490809 1.486353 0.075059 0
M  V30 11 C 1.083129 2.402052 1.011061 0
M  V30 12 C 2.058945 3.324218 1.258668 0
M  V30 13 C 1.656739 4.262156 2.228198 0
M  V30 14 C 2.587320 5.329596 2.596855 0
M  V30 15 O 2.480685 6.262753 3.431540 0
M  V30 16 O 3.843164 5.498394 2.037925 0
M  V30 17 C 0.404923 4.230719 2.848413 0
M  V30 18 C -0.475199 3.206092 2.470331 0
M  V30 19 C -0.171692 2.245735 1.532482 0
M  V30 20 C -1.024008 1.235812 1.167557 0
M  V30 21 C -2.257641 1.173572 1.732304 0
M  V30 22 N -3.011460 0.149851 1.285319 0
M  V30 23 C -2.570162 -0.745607 0.348372 0
M  V30 24 N -3.551457 -1.715842 0.024785 0
M  V30 25 C -4.536028 -2.285384 -0.797097 0
M  V30 26 C -4.243099 -3.444006 -1.673888 0
M  V30 27 C -3.739160 -4.650869 -0.963325 0
M  V30 28 O -2.547596 -4.617839 -0.339742 0
M  V30 29 C -1.391332 -4.557138 -1.020364 0
M  V30 30 C -1.094715 -3.453833 -1.946918 0
M  V30 31 N -1.337902 -0.591313 -0.140675 0
M  V30 32 C -0.499233 0.381260 0.220898 0
M  V30 33 C 1.841640 -2.070734 0.599744 0
M  V30 34 H 1.932011 -4.912327 4.087564 0
M  V30 35 H 4.990286 -2.657076 1.627947 0
M  V30 36 H 5.512156 -1.072644 -0.198298 0
M  V30 37 H 3.733387 -0.169778 -1.471305 0
M  V30 38 H 1.009372 -0.606808 -2.345014 0
M  V30 39 H 3.029828 3.371732 0.794860 0
M  V30 40 H 4.707320 5.643397 2.543737 0
M  V30 41 H 0.127073 4.964218 3.592919 0
M  V30 42 H -1.425827 3.226556 2.979276 0
M  V30 43 H -2.632485 1.843227 2.455949 0
M  V30 44 H -3.493580 -2.365821 0.870207 0
M  V30 45 H -4.926360 -1.476734 -1.533963 0
M  V30 46 H -5.496464 -2.513060 -0.242703 0
M  V30 47 H -3.694516 -3.128059 -2.572375 0
M  V30 48 H -5.272862 -3.720760 -2.127362 0
M  V30 49 H -3.875384 -5.580914 -1.602076 0
M  V30 50 H -4.509291 -4.850535 -0.142085 0
M  V30 51 H -0.554888 -4.594595 -0.251257 0
M  V30 52 H -1.223905 -5.537271 -1.581676 0
M  V30 53 H -1.650583 -2.529150 -1.856126 0
M  V30 54 H -1.098738 -3.831177 -3.015067 0
M  V30 55 H -0.006684 -3.132490 -1.823456 0
M  V30 56 H 0.782415 -2.249734 0.701568 0
M  V30 END ATOM
M  V30 BEGIN BOND
M  V30 1 3 1 2
M  V30 2 1 2 3
M  V30 3 2 3 4
M  V30 4 1 4 5
M  V30 5 2 5 6
M  V30 6 1 6 7
M  V30 7 1 7 8
M  V30 8 1 8 9
M  V30 9 2 9 10
M  V30 10 1 10 11
M  V30 11 2 11 12
M  V30 12 1 12 13
M  V30 13 1 13 14
M  V30 14 2 14 15
M  V30 15 1 14 16
M  V30 16 2 13 17
M  V30 17 1 17 18
M  V30 18 2 18 19
M  V30 19 1 19 20
M  V30 20 2 20 21
M  V30 21 1 21 22
M  V30 22 2 22 23
M  V30 23 1 23 24
M  V30 24 1 24 25
M  V30 25 1 25 26
M  V30 26 1 26 27
M  V30 27 1 27 28
M  V30 28 1 28 29
M  V30 29 1 29 30
M  V30 30 1 23 31
M  V30 31 2 31 32
M  V30 32 2 7 33
M  V30 33 1 33 3
M  V30 34 1 32 9
M  V30 35 1 19 11
M  V30 36 1 32 20
M  V30 37 1 1 34
M  V30 38 1 4 35
M  V30 39 1 5 36
M  V30 40 1 6 37
M  V30 41 1 8 38
M  V30 42 1 12 39
M  V30 43 1 16 40
M  V30 44 1 17 41
M  V30 45 1 18 42
M  V30 46 1 21 43
M  V30 47 1 24 44
M  V30 48 1 25 45
M  V30 49 1 25 46
M  V30 50 1 26 47
M  V30 51 1 26 48
M  V30 52 1 27 49
M  V30 53 1 27 50
M  V30 54 1 29 51
M  V30 55 1 29 52
M  V30 56 1 30 53
M  V30 57 1 30 54
M  V30 58 1 30 55
M  V30 59 1 33 56
M  V30 END BOND
M  V30 END CTAB
M  END
>  <Dataset>  (987) 
ChEMBL_Kinases

>  <Ligand_Instance>  (987) 
nan

>  <PDB_ID>  (987) 
nan

>  <Standardized_SMILES>  (987) 
C#Cc1cccc(Nc2nc3cc(C(=O)O)ccc3c3cnc(NCCCOCC)nc23)c1

>  <Name>  (987) 
nan

>  <Pocket>  (987) 
nan

>  <ATP_Site>  (987) 
nan

>  <Peripheral>  (987) 
nan

>  <Num_H_Atoms_ProtBoundConf>  (987) 
nan

>  <Num_Resolved_Atoms>  (987) 
nan

>  <Num_Not_Resolved_Atoms>  (987) 
nan

$$$$
CHEMBL3700440
     RDKit          3D

  0  0  0  0  0  0  0  0  0  0999 V3000
M  V30 BEGIN CTAB
M  V30 COUNTS 53 56 0 0 0
M  V30 BEGIN ATOM
M  V30 1 C 0.647335 -4.143210 5.234929 0
M  V30 2 C 1.295073 -3.502177 4.419421 0
M  V30 3 C 2.061673 -2.729592 3.473855 0
M  V30 4 C 3.335189 -2.288533 3.747061 0
M  V30 5 C 4.010533 -1.551906 2.787811 0
M  V30 6 C 3.385651 -1.274185 1.568898 0
M  V30 7 C 2.099553 -1.731942 1.320298 0
M  V30 8 N 1.684063 -1.320701 0.010029 0
M  V30 9 C 0.949001 -0.117961 0.185054 0
M  V30 10 N 1.662963 1.026680 0.199041 0
M  V30 11 C 1.067693 2.233552 0.362761 0
M  V30 12 C 1.913321 3.341899 0.361246 0
M  V30 13 C 1.274754 4.554435 0.532051 0
M  V30 14 C 2.056453 5.788471 0.549314 0
M  V30 15 O 1.687375 7.004831 0.690694 0
M  V30 16 O 3.427278 5.843063 0.404169 0
M  V30 17 C -0.101460 4.697002 0.695518 0
M  V30 18 C -0.879508 3.532944 0.684986 0
M  V30 19 C -0.300529 2.294749 0.518730 0
M  V30 20 C -1.082249 1.163826 0.512938 0
M  V30 21 C -2.448810 1.230518 0.668632 0
M  V30 22 N -3.121917 0.047014 0.646496 0
M  V30 23 C -2.483165 -1.140171 0.479571 0
M  V30 24 N -3.410059 -2.212220 0.498981 0
M  V30 25 C -4.285404 -2.948745 -0.369986 0
M  V30 26 C -3.505284 -3.621157 -1.448423 0
M  V30 27 O -2.596690 -4.497934 -0.855491 0
M  V30 28 C -1.828438 -5.185214 -1.801528 0
M  V30 29 C -1.017998 -4.262930 -2.675173 0
M  V30 30 N -1.141048 -1.166072 0.329701 0
M  V30 31 C -0.415766 -0.031064 0.342466 0
M  V30 32 C 1.432946 -2.464288 2.278133 0
M  V30 33 H 0.081273 -4.685243 5.951241 0
M  V30 34 H 3.726988 -2.562899 4.733156 0
M  V30 35 H 5.007801 -1.241552 3.079856 0
M  V30 36 H 4.050646 -0.695115 0.944628 0
M  V30 37 H 1.790594 -1.678679 -0.971451 0
M  V30 38 H 2.971012 3.244615 0.236807 0
M  V30 39 H 4.071373 6.410404 0.919310 0
M  V30 40 H -0.542464 5.687041 0.825746 0
M  V30 41 H -1.932868 3.711275 0.815564 0
M  V30 42 H -2.991169 2.127293 0.802093 0
M  V30 43 H -3.345503 -2.457808 1.531645 0
M  V30 44 H -4.879020 -3.659291 0.214442 0
M  V30 45 H -5.008051 -2.185737 -0.779483 0
M  V30 46 H -4.181996 -4.163821 -2.141318 0
M  V30 47 H -2.898017 -2.830121 -1.976984 0
M  V30 48 H -1.162324 -5.848974 -1.227934 0
M  V30 49 H -2.567848 -5.755563 -2.413195 0
M  V30 50 H -0.895139 -3.265130 -2.226434 0
M  V30 51 H -0.034023 -4.773731 -2.885938 0
M  V30 52 H -1.498843 -4.201135 -3.679379 0
M  V30 53 H 0.451110 -2.758792 1.963051 0
M  V30 END ATOM
M  V30 BEGIN BOND
M  V30 1 3 1 2
M  V30 2 1 2 3
M  V30 3 2 3 4
M  V30 4 1 4 5
M  V30 5 2 5 6
M  V30 6 1 6 7
M  V30 7 1 7 8
M  V30 8 1 8 9
M  V30 9 2 9 10
M  V30 10 1 10 11
M  V30 11 2 11 12
M  V30 12 1 12 13
M  V30 13 1 13 14
M  V30 14 2 14 15
M  V30 15 1 14 16
M  V30 16 2 13 17
M  V30 17 1 17 18
M  V30 18 2 18 19
M  V30 19 1 19 20
M  V30 20 2 20 21
M  V30 21 1 21 22
M  V30 22 2 22 23
M  V30 23 1 23 24
M  V30 24 1 24 25
M  V30 25 1 25 26
M  V30 26 1 26 27
M  V30 27 1 27 28
M  V30 28 1 28 29
M  V30 29 1 23 30
M  V30 30 2 30 31
M  V30 31 2 7 32
M  V30 32 1 32 3
M  V30 33 1 31 9
M  V30 34 1 19 11
M  V30 35 1 31 20
M  V30 36 1 1 33
M  V30 37 1 4 34
M  V30 38 1 5 35
M  V30 39 1 6 36
M  V30 40 1 8 37
M  V30 41 1 12 38
M  V30 42 1 16 39
M  V30 43 1 17 40
M  V30 44 1 18 41
M  V30 45 1 21 42
M  V30 46 1 24 43
M  V30 47 1 25 44
M  V30 48 1 25 45
M  V30 49 1 26 46
M  V30 50 1 26 47
M  V30 51 1 28 48
M  V30 52 1 28 49
M  V30 53 1 29 50
M  V30 54 1 29 51
M  V30 55 1 29 52
M  V30 56 1 32 53
M  V30 END BOND
M  V30 END CTAB
M  END
>  <Dataset>  (988) 
ChEMBL_Kinases

>  <Ligand_Instance>  (988) 
nan

>  <PDB_ID>  (988) 
nan

>  <Standardized_SMILES>  (988) 
C#Cc1cccc(Nc2nc3cc(C(=O)O)ccc3c3cnc(NCCOCC)nc23)c1

>  <Name>  (988) 
nan

>  <Pocket>  (988) 
nan

>  <ATP_Site>  (988) 
nan

>  <Peripheral>  (988) 
nan

>  <Num_H_Atoms_ProtBoundConf>  (988) 
nan

>  <Num_Resolved_Atoms>  (988) 
nan

>  <Num_Not_Resolved_Atoms>  (988) 
nan

$$$$
CHEMBL3700439
     RDKit          3D

  0  0  0  0  0  0  0  0  0  0999 V3000
M  V30 BEGIN CTAB
M  V30 COUNTS 48 51 0 0 0
M  V30 BEGIN ATOM
M  V30 1 C 3.689265 -3.383566 4.638709 0
M  V30 2 O 4.078652 -2.126634 4.172967 0
M  V30 3 C 4.020628 -2.089192 2.776320 0
M  V30 4 C 4.412129 -0.709599 2.323618 0
M  V30 5 N 4.384968 -0.551852 0.883300 0
M  V30 6 C 3.096615 -0.857410 0.332542 0
M  V30 7 N 2.957928 -1.955433 -0.472117 0
M  V30 8 C 1.744067 -2.265454 -0.991664 0
M  V30 9 C 0.635725 -1.491575 -0.724340 0
M  V30 10 C 0.795067 -0.391146 0.088161 0
M  V30 11 N 2.010950 -0.090103 0.601235 0
M  V30 12 C -0.300500 0.397491 0.378339 0
M  V30 13 N -0.216351 1.535209 1.225651 0
M  V30 14 C -1.188971 2.480026 1.625994 0
M  V30 15 C -1.026291 3.295234 2.732168 0
M  V30 16 C -2.011535 4.199947 3.069871 0
M  V30 17 C -3.161452 4.287408 2.295502 0
M  V30 18 F -4.110025 5.205953 2.683044 0
M  V30 19 C -3.318448 3.472696 1.193442 0
M  V30 20 Cl -4.833325 3.706766 0.310788 0
M  V30 21 C -2.329145 2.551358 0.841013 0
M  V30 22 N -1.467673 0.023231 -0.167524 0
M  V30 23 C -1.646549 -1.045664 -0.963007 0
M  V30 24 C -2.914328 -1.301245 -1.447875 0
M  V30 25 C -3.035634 -2.414119 -2.259277 0
M  V30 26 C -4.351805 -2.735613 -2.790443 0
M  V30 27 O -4.701645 -3.684877 -3.547324 0
M  V30 28 O -5.505023 -2.021037 -2.546495 0
M  V30 29 C -1.968960 -3.235760 -2.580729 0
M  V30 30 C -0.702163 -2.962148 -2.083054 0
M  V30 31 C -0.572814 -1.856028 -1.273151 0
M  V30 32 H 2.630080 -3.583155 4.290960 0
M  V30 33 H 4.368679 -4.152412 4.234273 0
M  V30 34 H 3.660674 -3.426551 5.738488 0
M  V30 35 H 4.665997 -2.877468 2.328595 0
M  V30 36 H 2.982545 -2.348070 2.491186 0
M  V30 37 H 5.381767 -0.384654 2.729684 0
M  V30 38 H 3.603405 -0.023393 2.719885 0
M  V30 39 H 5.244928 -0.250822 0.402271 0
M  V30 40 H 1.787223 -3.126898 -1.587023 0
M  V30 41 H 0.749171 1.720955 1.635685 0
M  V30 42 H -0.108132 3.180131 3.296438 0
M  V30 43 H -1.872043 4.839776 3.949844 0
M  V30 44 H -2.620251 2.019957 -0.032153 0
M  V30 45 H -3.705156 -0.633578 -1.168239 0
M  V30 46 H -6.405009 -2.413067 -2.284275 0
M  V30 47 H -2.169845 -4.091745 -3.231268 0
M  V30 48 H 0.086635 -3.603083 -2.345291 0
M  V30 END ATOM
M  V30 BEGIN BOND
M  V30 1 1 1 2
M  V30 2 1 2 3
M  V30 3 1 3 4
M  V30 4 1 4 5
M  V30 5 1 5 6
M  V30 6 2 6 7
M  V30 7 1 7 8
M  V30 8 2 8 9
M  V30 9 1 9 10
M  V30 10 2 10 11
M  V30 11 1 10 12
M  V30 12 1 12 13
M  V30 13 1 13 14
M  V30 14 2 14 15
M  V30 15 1 15 16
M  V30 16 2 16 17
M  V30 17 1 17 18
M  V30 18 1 17 19
M  V30 19 1 19 20
M  V30 20 2 19 21
M  V30 21 2 12 22
M  V30 22 1 22 23
M  V30 23 2 23 24
M  V30 24 1 24 25
M  V30 25 1 25 26
M  V30 26 2 26 27
M  V30 27 1 26 28
M  V30 28 2 25 29
M  V30 29 1 29 30
M  V30 30 2 30 31
M  V30 31 1 11 6
M  V30 32 1 21 14
M  V30 33 1 31 23
M  V30 34 1 31 9
M  V30 35 1 1 32
M  V30 36 1 1 33
M  V30 37 1 1 34
M  V30 38 1 3 35
M  V30 39 1 3 36
M  V30 40 1 4 37
M  V30 41 1 4 38
M  V30 42 1 5 39
M  V30 43 1 8 40
M  V30 44 1 13 41
M  V30 45 1 15 42
M  V30 46 1 16 43
M  V30 47 1 21 44
M  V30 48 1 24 45
M  V30 49 1 28 46
M  V30 50 1 29 47
M  V30 51 1 30 48
M  V30 END BOND
M  V30 END CTAB
M  END
>  <Dataset>  (989) 
ChEMBL_Kinases

>  <Ligand_Instance>  (989) 
nan

>  <PDB_ID>  (989) 
nan

>  <Standardized_SMILES>  (989) 
COCCNc1ncc2c(n1)c(Nc1ccc(F)c(Cl)c1)nc1cc(C(=O)O)ccc12

>  <Name>  (989) 
nan

>  <Pocket>  (989) 
nan

>  <ATP_Site>  (989) 
nan

>  <Peripheral>  (989) 
nan

>  <Num_H_Atoms_ProtBoundConf>  (989) 
nan

>  <Num_Resolved_Atoms>  (989) 
nan

>  <Num_Not_Resolved_Atoms>  (989) 
nan

$$$$
CHEMBL3700438
     RDKit          3D

  0  0  0  0  0  0  0  0  0  0999 V3000
M  V30 BEGIN CTAB
M  V30 COUNTS 45 49 0 0 0
M  V30 BEGIN ATOM
M  V30 1 O 7.253901 0.271557 0.000892 0
M  V30 2 C 6.173502 0.809814 0.344528 0
M  V30 3 O 6.467843 2.008955 0.986366 0
M  V30 4 C 4.809074 0.339877 0.150191 0
M  V30 5 C 4.607453 -0.862851 -0.494190 0
M  V30 6 C 3.313509 -1.311493 -0.678985 0
M  V30 7 C 2.282287 -0.534228 -0.209392 0
M  V30 8 C 2.506917 0.675907 0.437696 0
M  V30 9 C 3.792333 1.136453 0.629287 0
M  V30 10 N 1.448357 1.381590 0.871138 0
M  V30 11 C 0.166704 1.006432 0.727724 0
M  V30 12 N -0.799027 1.904559 1.256226 0
M  V30 13 C -1.099055 1.732299 2.631809 0
M  V30 14 C -0.465450 0.783520 3.411440 0
M  V30 15 C -0.738652 0.598119 4.754372 0
M  V30 16 C -1.684777 1.386931 5.363136 0
M  V30 17 F -2.076053 1.348792 6.651212 0
M  V30 18 C -2.358551 2.359172 4.637112 0
M  V30 19 Cl -3.587267 3.449237 5.238051 0
M  V30 20 C -2.043645 2.504938 3.281533 0
M  V30 21 C -0.104422 -0.188956 0.090772 0
M  V30 22 N -1.392588 -0.532333 -0.036879 0
M  V30 23 C -1.640115 -1.717999 -0.672193 0
M  V30 24 N -2.983714 -2.148783 -0.841081 0
M  V30 25 C -3.596284 -3.307391 -1.451617 0
M  V30 26 C -3.248292 -4.678629 -0.908065 0
M  V30 27 C -2.750706 -4.268667 -2.260285 0
M  V30 28 N -0.611638 -2.453679 -1.121092 0
M  V30 29 C 0.676336 -2.103662 -0.989495 0
M  V30 30 C 0.973369 -0.919435 -0.357166 0
M  V30 31 H 7.283323 2.162429 1.575083 0
M  V30 32 H 5.460680 -1.455682 -0.855688 0
M  V30 33 H 3.193642 -2.227334 -1.170796 0
M  V30 34 H 3.945577 2.081734 1.136357 0
M  V30 35 H -1.277205 2.645315 0.723153 0
M  V30 36 H 0.294330 0.135416 2.968176 0
M  V30 37 H -0.265257 -0.128400 5.388291 0
M  V30 38 H -2.530464 3.249870 2.636575 0
M  V30 39 H -3.734463 -1.502905 -0.439376 0
M  V30 40 H -4.612964 -3.188004 -1.903226 0
M  V30 41 H -4.104341 -5.370608 -0.818209 0
M  V30 42 H -2.555254 -4.743073 -0.049817 0
M  V30 43 H -3.228523 -4.850075 -3.080490 0
M  V30 44 H -1.695547 -4.059577 -2.436412 0
M  V30 45 H 1.363949 -2.792155 -1.396518 0
M  V30 END ATOM
M  V30 BEGIN BOND
M  V30 1 2 1 2
M  V30 2 1 2 3
M  V30 3 1 2 4
M  V30 4 2 4 5
M  V30 5 1 5 6
M  V30 6 2 6 7
M  V30 7 1 7 8
M  V30 8 2 8 9
M  V30 9 1 8 10
M  V30 10 2 10 11
M  V30 11 1 11 12
M  V30 12 1 12 13
M  V30 13 2 13 14
M  V30 14 1 14 15
M  V30 15 2 15 16
M  V30 16 1 16 17
M  V30 17 1 16 18
M  V30 18 1 18 19
M  V30 19 2 18 20
M  V30 20 1 11 21
M  V30 21 2 21 22
M  V30 22 1 22 23
M  V30 23 1 23 24
M  V30 24 1 24 25
M  V30 25 1 25 26
M  V30 26 1 26 27
M  V30 27 2 23 28
M  V30 28 1 28 29
M  V30 29 2 29 30
M  V30 30 1 9 4
M  V30 31 1 20 13
M  V30 32 1 30 21
M  V30 33 1 30 7
M  V30 34 1 27 25
M  V30 35 1 3 31
M  V30 36 1 5 32
M  V30 37 1 6 33
M  V30 38 1 9 34
M  V30 39 1 12 35
M  V30 40 1 14 36
M  V30 41 1 15 37
M  V30 42 1 20 38
M  V30 43 1 24 39
M  V30 44 1 25 40
M  V30 45 1 26 41
M  V30 46 1 26 42
M  V30 47 1 27 43
M  V30 48 1 27 44
M  V30 49 1 29 45
M  V30 END BOND
M  V30 END CTAB
M  END
>  <Dataset>  (990) 
ChEMBL_Kinases

>  <Ligand_Instance>  (990) 
nan

>  <PDB_ID>  (990) 
nan

>  <Standardized_SMILES>  (990) 
O=C(O)c1ccc2c(c1)nc(Nc1ccc(F)c(Cl)c1)c1nc(NC3CC3)ncc12

>  <Name>  (990) 
nan

>  <Pocket>  (990) 
nan

>  <ATP_Site>  (990) 
nan

>  <Peripheral>  (990) 
nan

>  <Num_H_Atoms_ProtBoundConf>  (990) 
nan

>  <Num_Resolved_Atoms>  (990) 
nan

>  <Num_Not_Resolved_Atoms>  (990) 
nan

$$$$
CHEMBL3700437
     RDKit          3D

  0  0  0  0  0  0  0  0  0  0999 V3000
M  V30 BEGIN CTAB
M  V30 COUNTS 38 41 0 0 0
M  V30 BEGIN ATOM
M  V30 1 N 3.689129 -0.266002 4.075847 0
M  V30 2 C 2.736037 -0.841839 3.229491 0
M  V30 3 N 2.392259 -2.107187 3.507882 0
M  V30 4 C 1.492421 -2.798543 2.801964 0
M  V30 5 C 0.956625 -2.077176 1.763062 0
M  V30 6 C 1.269187 -0.780678 1.430604 0
M  V30 7 N 2.203887 -0.125924 2.196906 0
M  V30 8 C 0.770050 -0.023239 0.408903 0
M  V30 9 N 1.143203 1.310025 0.124318 0
M  V30 10 C 0.555832 2.596857 0.119546 0
M  V30 11 C -0.806279 2.783649 0.277109 0
M  V30 12 C -1.216879 4.090364 0.236153 0
M  V30 13 C -0.357831 5.167727 0.052448 0
M  V30 14 F -0.750221 6.470408 0.006716 0
M  V30 15 C 0.988877 4.925609 -0.098425 0
M  V30 16 Cl 2.115893 6.256841 -0.332132 0
M  V30 17 C 1.445184 3.633766 -0.064226 0
M  V30 18 N -0.140597 -0.632779 -0.360063 0
M  V30 19 C -0.516444 -1.905400 -0.115209 0
M  V30 20 C -1.458897 -2.576224 -0.876576 0
M  V30 21 C -1.827250 -3.898423 -0.586056 0
M  V30 22 C -2.843964 -4.253443 -1.567002 0
M  V30 23 O -3.665997 -4.429693 -2.413644 0
M  V30 24 O -3.422789 -5.534797 -1.600887 0
M  V30 25 C -1.281950 -4.603105 0.458897 0
M  V30 26 C -0.357100 -3.923395 1.196001 0
M  V30 27 C 0.017418 -2.615989 0.922867 0
M  V30 28 H 4.606015 -0.669728 4.420465 0
M  V30 29 H 4.204486 0.361501 4.687858 0
M  V30 30 H 1.247890 -3.806269 3.054396 0
M  V30 31 H 2.151108 1.140222 -0.141697 0
M  V30 32 H -1.471426 1.964505 0.416158 0
M  V30 33 H -2.262619 4.358656 0.346369 0
M  V30 34 H 2.510822 3.483437 -0.186052 0
M  V30 35 H -1.834097 -1.941347 -1.677453 0
M  V30 36 H -3.076771 -6.377136 -2.086431 0
M  V30 37 H -1.693630 -5.577016 0.502873 0
M  V30 38 H -0.036863 -4.599367 1.951200 0
M  V30 END ATOM
M  V30 BEGIN BOND
M  V30 1 1 1 2
M  V30 2 2 2 3
M  V30 3 1 3 4
M  V30 4 2 4 5
M  V30 5 1 5 6
M  V30 6 2 6 7
M  V30 7 1 6 8
M  V30 8 1 8 9
M  V30 9 1 9 10
M  V30 10 2 10 11
M  V30 11 1 11 12
M  V30 12 2 12 13
M  V30 13 1 13 14
M  V30 14 1 13 15
M  V30 15 1 15 16
M  V30 16 2 15 17
M  V30 17 2 8 18
M  V30 18 1 18 19
M  V30 19 2 19 20
M  V30 20 1 20 21
M  V30 21 1 21 22
M  V30 22 2 22 23
M  V30 23 1 22 24
M  V30 24 2 21 25
M  V30 25 1 25 26
M  V30 26 2 26 27
M  V30 27 1 7 2
M  V30 28 1 17 10
M  V30 29 1 27 19
M  V30 30 1 27 5
M  V30 31 1 1 28
M  V30 32 1 1 29
M  V30 33 1 4 30
M  V30 34 1 9 31
M  V30 35 1 11 32
M  V30 36 1 12 33
M  V30 37 1 17 34
M  V30 38 1 20 35
M  V30 39 1 24 36
M  V30 40 1 25 37
M  V30 41 1 26 38
M  V30 END BOND
M  V30 END CTAB
M  END
>  <Dataset>  (991) 
ChEMBL_Kinases

>  <Ligand_Instance>  (991) 
nan

>  <PDB_ID>  (991) 
nan

>  <Standardized_SMILES>  (991) 
Nc1ncc2c(n1)c(Nc1ccc(F)c(Cl)c1)nc1cc(C(=O)O)ccc12

>  <Name>  (991) 
nan

>  <Pocket>  (991) 
nan

>  <ATP_Site>  (991) 
nan

>  <Peripheral>  (991) 
nan

>  <Num_H_Atoms_ProtBoundConf>  (991) 
nan

>  <Num_Resolved_Atoms>  (991) 
nan

>  <Num_Not_Resolved_Atoms>  (991) 
nan

$$$$
CHEMBL3700436
     RDKit          3D

  0  0  0  0  0  0  0  0  0  0999 V3000
M  V30 BEGIN CTAB
M  V30 COUNTS 41 44 0 0 0
M  V30 BEGIN ATOM
M  V30 1 C 3.865296 -1.150466 4.331558 0
M  V30 2 N 3.914246 -1.547499 2.930598 0
M  V30 3 C 2.729269 -1.761718 2.173808 0
M  V30 4 N 2.184915 -2.981396 2.250804 0
M  V30 5 C 1.064626 -3.335819 1.587271 0
M  V30 6 C 0.512472 -2.354932 0.819774 0
M  V30 7 C 1.018474 -1.079240 0.694201 0
M  V30 8 N 2.158257 -0.793699 1.397573 0
M  V30 9 C 0.497191 -0.056087 -0.063467 0
M  V30 10 N 1.103429 1.217337 -0.134964 0
M  V30 11 C 1.145440 2.397147 0.642026 0
M  V30 12 C 1.676224 3.502856 0.021272 0
M  V30 13 C 1.760761 4.682460 0.719862 0
M  V30 14 C 1.307220 4.722245 2.031209 0
M  V30 15 F 1.396540 5.912894 2.714435 0
M  V30 16 C 0.767442 3.585475 2.651505 0
M  V30 17 Cl 0.214263 3.700015 4.331681 0
M  V30 18 C 0.679258 2.385135 1.947132 0
M  V30 19 N -0.635245 -0.374481 -0.745065 0
M  V30 20 C -1.196570 -1.596368 -0.679749 0
M  V30 21 C -2.351108 -1.775486 -1.432279 0
M  V30 22 C -2.919004 -3.043259 -1.355429 0
M  V30 23 C -4.152627 -3.340012 -2.122565 0
M  V30 24 O -4.764574 -4.432224 -2.139171 0
M  V30 25 O -4.713173 -2.341055 -2.907911 0
M  V30 26 C -2.395226 -4.087810 -0.587859 0
M  V30 27 C -1.231835 -3.833116 0.142175 0
M  V30 28 C -0.634029 -2.593230 0.097312 0
M  V30 29 H 4.858635 -0.909514 4.728631 0
M  V30 30 H 3.274520 -0.195370 4.445312 0
M  V30 31 H 3.321461 -1.915865 4.904868 0
M  V30 32 H 4.592859 -1.755994 2.167354 0
M  V30 33 H 0.706779 -4.311966 1.705447 0
M  V30 34 H 1.600149 1.080945 -1.035853 0
M  V30 35 H 2.034794 3.465356 -1.016339 0
M  V30 36 H 2.184061 5.546318 0.208104 0
M  V30 37 H 0.259924 1.491165 2.424429 0
M  V30 38 H -2.846040 -1.071288 -2.052134 0
M  V30 39 H -5.639841 -2.436652 -3.354774 0
M  V30 40 H -2.896257 -5.043716 -0.579949 0
M  V30 41 H -0.900144 -4.667136 0.694250 0
M  V30 END ATOM
M  V30 BEGIN BOND
M  V30 1 1 1 2
M  V30 2 1 2 3
M  V30 3 2 3 4
M  V30 4 1 4 5
M  V30 5 2 5 6
M  V30 6 1 6 7
M  V30 7 2 7 8
M  V30 8 1 7 9
M  V30 9 1 9 10
M  V30 10 1 10 11
M  V30 11 2 11 12
M  V30 12 1 12 13
M  V30 13 2 13 14
M  V30 14 1 14 15
M  V30 15 1 14 16
M  V30 16 1 16 17
M  V30 17 2 16 18
M  V30 18 2 9 19
M  V30 19 1 19 20
M  V30 20 2 20 21
M  V30 21 1 21 22
M  V30 22 1 22 23
M  V30 23 2 23 24
M  V30 24 1 23 25
M  V30 25 2 22 26
M  V30 26 1 26 27
M  V30 27 2 27 28
M  V30 28 1 8 3
M  V30 29 1 18 11
M  V30 30 1 28 20
M  V30 31 1 28 6
M  V30 32 1 1 29
M  V30 33 1 1 30
M  V30 34 1 1 31
M  V30 35 1 2 32
M  V30 36 1 5 33
M  V30 37 1 10 34
M  V30 38 1 12 35
M  V30 39 1 13 36
M  V30 40 1 18 37
M  V30 41 1 21 38
M  V30 42 1 25 39
M  V30 43 1 26 40
M  V30 44 1 27 41
M  V30 END BOND
M  V30 END CTAB
M  END
>  <Dataset>  (992) 
ChEMBL_Kinases

>  <Ligand_Instance>  (992) 
nan

>  <PDB_ID>  (992) 
nan

>  <Standardized_SMILES>  (992) 
CNc1ncc2c(n1)c(Nc1ccc(F)c(Cl)c1)nc1cc(C(=O)O)ccc12

>  <Name>  (992) 
nan

>  <Pocket>  (992) 
nan

>  <ATP_Site>  (992) 
nan

>  <Peripheral>  (992) 
nan

>  <Num_H_Atoms_ProtBoundConf>  (992) 
nan

>  <Num_Resolved_Atoms>  (992) 
nan

>  <Num_Not_Resolved_Atoms>  (992) 
nan

$$$$
CHEMBL3700455
     RDKit          3D

  0  0  0  0  0  0  0  0  0  0999 V3000
M  V30 BEGIN CTAB
M  V30 COUNTS 45 49 0 0 0
M  V30 BEGIN ATOM
M  V30 1 O 6.939047 -3.342574 0.442438 0
M  V30 2 C 6.332418 -2.263029 0.612405 0
M  V30 3 O 7.179832 -1.247477 1.033917 0
M  V30 4 C 4.905125 -2.095920 0.392885 0
M  V30 5 C 4.176437 -3.192312 -0.017980 0
M  V30 6 C 2.800980 -3.050072 -0.236774 0
M  V30 7 C 2.219442 -1.821822 -0.035048 0
M  V30 8 C 2.916219 -0.706519 0.374860 0
M  V30 9 C 4.277590 -0.887468 0.581254 0
M  V30 10 N 2.321203 0.485693 0.563911 0
M  V30 11 C 0.999179 0.619028 0.351581 0
M  V30 12 N 0.386215 1.885105 0.560686 0
M  V30 13 C 1.122247 3.037251 0.997782 0
M  V30 14 C 1.845107 3.089637 2.269842 0
M  V30 15 C 0.556283 3.912498 2.058822 0
M  V30 16 C 0.224031 -0.446572 -0.060406 0
M  V30 17 N -1.117866 -0.292544 -0.270014 0
M  V30 18 C -1.837904 -1.383869 -0.676143 0
M  V30 19 N -3.204389 -1.038784 -0.845505 0
M  V30 20 C -4.049772 -1.055659 0.310953 0
M  V30 21 C -3.445894 -1.343559 1.517298 0
M  V30 22 C -4.274344 -1.358464 2.638959 0
M  V30 23 C -5.608299 -1.096353 2.505944 0
M  V30 24 C -6.226814 -0.807753 1.311084 0
M  V30 25 C -5.416743 -0.786397 0.169302 0
M  V30 26 N -1.213183 -2.563915 -0.855937 0
M  V30 27 C 0.107296 -2.717829 -0.650560 0
M  V30 28 C 0.871864 -1.650788 -0.242420 0
M  V30 29 H 7.871070 -1.410709 1.782367 0
M  V30 30 H 4.689578 -4.134620 -0.160978 0
M  V30 31 H 2.294970 -3.942810 -0.556310 0
M  V30 32 H 4.853509 -0.030604 0.903029 0
M  V30 33 H -0.656741 2.005551 0.392630 0
M  V30 34 H 1.590178 3.607663 0.158582 0
M  V30 35 H 2.796728 3.673809 2.329637 0
M  V30 36 H 1.736322 2.401174 3.110683 0
M  V30 37 H -0.387814 3.529297 2.514941 0
M  V30 38 H 0.697386 5.003400 2.057214 0
M  V30 39 H -3.438170 -0.805088 -1.818781 0
M  V30 40 H -2.392697 -1.549423 1.619964 0
M  V30 41 H -3.769808 -1.590493 3.583979 0
M  V30 42 H -6.159812 -1.133646 3.437287 0
M  V30 43 H -7.280529 -0.603200 1.231482 0
M  V30 44 H -5.822093 -0.567056 -0.828512 0
M  V30 45 H 0.421449 -3.705783 -0.840206 0
M  V30 END ATOM
M  V30 BEGIN BOND
M  V30 1 2 1 2
M  V30 2 1 2 3
M  V30 3 1 2 4
M  V30 4 2 4 5
M  V30 5 1 5 6
M  V30 6 2 6 7
M  V30 7 1 7 8
M  V30 8 2 8 9
M  V30 9 1 8 10
M  V30 10 2 10 11
M  V30 11 1 11 12
M  V30 12 1 12 13
M  V30 13 1 13 14
M  V30 14 1 14 15
M  V30 15 1 11 16
M  V30 16 2 16 17
M  V30 17 1 17 18
M  V30 18 1 18 19
M  V30 19 1 19 20
M  V30 20 2 20 21
M  V30 21 1 21 22
M  V30 22 2 22 23
M  V30 23 1 23 24
M  V30 24 2 24 25
M  V30 25 2 18 26
M  V30 26 1 26 27
M  V30 27 2 27 28
M  V30 28 1 9 4
M  V30 29 1 15 13
M  V30 30 1 28 16
M  V30 31 1 28 7
M  V30 32 1 25 20
M  V30 33 1 3 29
M  V30 34 1 5 30
M  V30 35 1 6 31
M  V30 36 1 9 32
M  V30 37 1 12 33
M  V30 38 1 13 34
M  V30 39 1 14 35
M  V30 40 1 14 36
M  V30 41 1 15 37
M  V30 42 1 15 38
M  V30 43 1 19 39
M  V30 44 1 21 40
M  V30 45 1 22 41
M  V30 46 1 23 42
M  V30 47 1 24 43
M  V30 48 1 25 44
M  V30 49 1 27 45
M  V30 END BOND
M  V30 END CTAB
M  END
>  <Dataset>  (993) 
ChEMBL_Kinases

>  <Ligand_Instance>  (993) 
nan

>  <PDB_ID>  (993) 
nan

>  <Standardized_SMILES>  (993) 
O=C(O)c1ccc2c(c1)nc(NC1CC1)c1nc(Nc3ccccc3)ncc12

>  <Name>  (993) 
nan

>  <Pocket>  (993) 
nan

>  <ATP_Site>  (993) 
nan

>  <Peripheral>  (993) 
nan

>  <Num_H_Atoms_ProtBoundConf>  (993) 
nan

>  <Num_Resolved_Atoms>  (993) 
nan

>  <Num_Not_Resolved_Atoms>  (993) 
nan

$$$$
CHEMBL3700512
     RDKit          3D

  0  0  0  0  0  0  0  0  0  0999 V3000
M  V30 BEGIN CTAB
M  V30 COUNTS 35 38 0 0 0
M  V30 BEGIN ATOM
M  V30 1 O 2.072945 -6.429677 0.537108 0
M  V30 2 C 1.547407 -5.502452 -0.103812 0
M  V30 3 O 0.922657 -5.769093 -1.313312 0
M  V30 4 C 1.611306 -4.156101 0.451183 0
M  V30 5 C 2.245593 -3.948582 1.658543 0
M  V30 6 C 2.317666 -2.676800 2.203917 0
M  V30 7 C 1.728372 -1.664311 1.476352 0
M  V30 8 C 1.094933 -1.869069 0.271409 0
M  V30 9 C 1.025935 -3.133442 -0.266011 0
M  V30 10 N 0.602094 -0.735574 -0.243270 0
M  V30 11 C 0.681109 0.483879 0.297506 0
M  V30 12 N 0.040199 1.442552 -0.540450 0
M  V30 13 C -1.326440 1.830118 -0.487797 0
M  V30 14 C -1.873221 2.770411 -1.338667 0
M  V30 15 C -3.207533 3.102266 -1.235618 0
M  V30 16 F -3.701305 4.030730 -2.092089 0
M  V30 17 C -4.009220 2.485953 -0.267953 0
M  V30 18 C -3.434229 1.552697 0.565137 0
M  V30 19 F -4.216176 0.959955 1.499674 0
M  V30 20 C -2.092178 1.207219 0.474480 0
M  V30 21 C 1.315251 0.694678 1.505696 0
M  V30 22 C 1.389011 1.933095 2.043194 0
M  V30 23 C 2.075245 1.928091 3.274353 0
M  V30 24 S 2.561644 0.133108 3.561141 0
M  V30 25 C 1.845805 -0.407825 2.098252 0
M  V30 26 H 0.536660 -6.677259 -1.535830 0
M  V30 27 H 2.682915 -4.775420 2.173817 0
M  V30 28 H 2.821240 -2.514431 3.161680 0
M  V30 29 H 0.514856 -3.222954 -1.213437 0
M  V30 30 H 0.780185 1.786864 -1.184158 0
M  V30 31 H -1.233883 3.221159 -2.065118 0
M  V30 32 H -5.057281 2.768109 -0.210878 0
M  V30 33 H -1.702759 0.473327 1.151793 0
M  V30 34 H 1.043361 2.903463 1.739593 0
M  V30 35 H 2.292000 2.903861 3.982862 0
M  V30 END ATOM
M  V30 BEGIN BOND
M  V30 1 2 1 2
M  V30 2 1 2 3
M  V30 3 1 2 4
M  V30 4 2 4 5
M  V30 5 1 5 6
M  V30 6 2 6 7
M  V30 7 1 7 8
M  V30 8 2 8 9
M  V30 9 1 8 10
M  V30 10 2 10 11
M  V30 11 1 11 12
M  V30 12 1 12 13
M  V30 13 2 13 14
M  V30 14 1 14 15
M  V30 15 1 15 16
M  V30 16 2 15 17
M  V30 17 1 17 18
M  V30 18 1 18 19
M  V30 19 2 18 20
M  V30 20 1 11 21
M  V30 21 1 21 22
M  V30 22 2 22 23
M  V30 23 1 23 24
M  V30 24 1 24 25
M  V30 25 1 9 4
M  V30 26 1 20 13
M  V30 27 2 25 21
M  V30 28 1 25 7
M  V30 29 1 3 26
M  V30 30 1 5 27
M  V30 31 1 6 28
M  V30 32 1 9 29
M  V30 33 1 12 30
M  V30 34 1 14 31
M  V30 35 1 17 32
M  V30 36 1 20 33
M  V30 37 1 22 34
M  V30 38 1 23 35
M  V30 END BOND
M  V30 END CTAB
M  END
>  <Dataset>  (994) 
ChEMBL_Kinases

>  <Ligand_Instance>  (994) 
nan

>  <PDB_ID>  (994) 
nan

>  <Standardized_SMILES>  (994) 
O=C(O)c1ccc2c(c1)nc(Nc1cc(F)cc(F)c1)c1ccsc12

>  <Name>  (994) 
nan

>  <Pocket>  (994) 
nan

>  <ATP_Site>  (994) 
nan

>  <Peripheral>  (994) 
nan

>  <Num_H_Atoms_ProtBoundConf>  (994) 
nan

>  <Num_Resolved_Atoms>  (994) 
nan

>  <Num_Not_Resolved_Atoms>  (994) 
nan

$$$$
CHEMBL3700511
     RDKit          3D

  0  0  0  0  0  0  0  0  0  0999 V3000
M  V30 BEGIN CTAB
M  V30 COUNTS 40 44 0 0 0
M  V30 BEGIN ATOM
M  V30 1 O 5.825069 -3.747143 3.270341 0
M  V30 2 C 4.698417 -3.973033 2.707185 0
M  V30 3 O 5.263649 -5.128638 3.196144 0
M  V30 4 C 3.941882 -2.889509 2.129553 0
M  V30 5 C 4.495880 -1.640036 2.278409 0
M  V30 6 C 3.769355 -0.614884 1.715546 0
M  V30 7 C 2.578352 -0.927610 1.067910 0
M  V30 8 C 2.054814 -2.194062 0.938877 0
M  V30 9 N 0.830960 -2.463896 0.276354 0
M  V30 10 C -0.264307 -1.572878 -0.028429 0
M  V30 11 N -0.177857 -0.343017 0.461121 0
M  V30 12 C -1.106085 0.623324 0.260314 0
M  V30 13 C -0.994411 1.884601 0.780704 0
M  V30 14 C -1.983374 2.820980 0.537404 0
M  V30 15 C -1.923804 4.175769 1.065839 0
M  V30 16 N -2.842449 5.132323 0.867241 0
M  V30 17 N -2.394641 6.200331 1.525852 0
M  V30 18 N -1.249534 5.879927 2.092583 0
M  V30 19 N -0.912495 4.622551 1.833699 0
M  V30 20 C -3.028699 2.381111 -0.234777 0
M  V30 21 C -3.249911 1.152991 -0.807011 0
M  V30 22 C -2.210570 0.258696 -0.518835 0
M  V30 23 C -2.241810 -1.039026 -0.999796 0
M  V30 24 S -3.528886 -1.718335 -1.998984 0
M  V30 25 C -2.678789 -3.415036 -2.104955 0
M  V30 26 C -1.522392 -3.222839 -1.356391 0
M  V30 27 C -1.296112 -2.014873 -0.791969 0
M  V30 28 C 2.783698 -3.241702 1.505809 0
M  V30 29 H 4.697803 -5.919359 3.541544 0
M  V30 30 H 5.424476 -1.437647 2.788654 0
M  V30 31 H 4.155355 0.395788 1.798760 0
M  V30 32 H 2.102848 -0.050104 0.662424 0
M  V30 33 H 0.720572 -3.476473 -0.036469 0
M  V30 34 H -0.141650 2.135999 1.372955 0
M  V30 35 H -0.041922 4.147682 2.180298 0
M  V30 36 H -3.801815 3.148706 -0.408396 0
M  V30 37 H -4.090404 0.873269 -1.401424 0
M  V30 38 H -3.026949 -4.315182 -2.631188 0
M  V30 39 H -0.867477 -4.080158 -1.275634 0
M  V30 40 H 2.436695 -4.257052 1.444565 0
M  V30 END ATOM
M  V30 BEGIN BOND
M  V30 1 2 1 2
M  V30 2 1 2 3
M  V30 3 1 2 4
M  V30 4 2 4 5
M  V30 5 1 5 6
M  V30 6 2 6 7
M  V30 7 1 7 8
M  V30 8 1 8 9
M  V30 9 1 9 10
M  V30 10 2 10 11
M  V30 11 1 11 12
M  V30 12 2 12 13
M  V30 13 1 13 14
M  V30 14 1 14 15
M  V30 15 2 15 16
M  V30 16 1 16 17
M  V30 17 2 17 18
M  V30 18 1 18 19
M  V30 19 2 14 20
M  V30 20 1 20 21
M  V30 21 2 21 22
M  V30 22 1 22 23
M  V30 23 1 23 24
M  V30 24 1 24 25
M  V30 25 2 25 26
M  V30 26 1 26 27
M  V30 27 2 8 28
M  V30 28 1 28 4
M  V30 29 1 27 10
M  V30 30 1 22 12
M  V30 31 2 27 23
M  V30 32 1 19 15
M  V30 33 1 3 29
M  V30 34 1 5 30
M  V30 35 1 6 31
M  V30 36 1 7 32
M  V30 37 1 9 33
M  V30 38 1 13 34
M  V30 39 1 19 35
M  V30 40 1 20 36
M  V30 41 1 21 37
M  V30 42 1 25 38
M  V30 43 1 26 39
M  V30 44 1 28 40
M  V30 END BOND
M  V30 END CTAB
M  END
>  <Dataset>  (995) 
ChEMBL_Kinases

>  <Ligand_Instance>  (995) 
nan

>  <PDB_ID>  (995) 
nan

>  <Standardized_SMILES>  (995) 
O=C(O)c1cccc(Nc2nc3cc(-c4nnn[nH]4)ccc3c3sccc23)c1

>  <Name>  (995) 
nan

>  <Pocket>  (995) 
nan

>  <ATP_Site>  (995) 
nan

>  <Peripheral>  (995) 
nan

>  <Num_H_Atoms_ProtBoundConf>  (995) 
nan

>  <Num_Resolved_Atoms>  (995) 
nan

>  <Num_Not_Resolved_Atoms>  (995) 
nan

$$$$
CHEMBL3700510
     RDKit          3D

  0  0  0  0  0  0  0  0  0  0999 V3000
M  V30 BEGIN CTAB
M  V30 COUNTS 43 48 0 0 0
M  V30 BEGIN ATOM
M  V30 1 C 3.464360 -3.454005 2.405774 0
M  V30 2 C 3.359687 -2.463570 1.309641 0
M  V30 3 C 2.092320 -2.363852 0.835172 0
M  V30 4 C 1.760475 -1.506095 -0.187013 0
M  V30 5 N 2.639920 -0.606743 -0.882755 0
M  V30 6 C 2.454347 0.622938 -0.163424 0
M  V30 7 C 1.539885 1.397628 -0.853670 0
M  V30 8 C 1.166401 2.658622 -0.372146 0
M  V30 9 C 1.729254 3.104544 0.799103 0
M  V30 10 C 2.641246 2.319907 1.477312 0
M  V30 11 C 3.013944 1.077835 1.009968 0
M  V30 12 O 3.226382 2.740925 2.658249 0
M  V30 13 C 2.632425 3.705530 3.508856 0
M  V30 14 C 1.434372 4.381481 2.879258 0
M  V30 15 O 1.499105 4.315934 1.447612 0
M  V30 16 N 0.510181 -1.436635 -0.627941 0
M  V30 17 C -0.546533 -2.117062 -0.202257 0
M  V30 18 C -1.829587 -2.012441 -0.688532 0
M  V30 19 C -2.786295 -2.819460 -0.094840 0
M  V30 20 C -4.160210 -2.743251 -0.575855 0
M  V30 21 N -4.631327 -1.958341 -1.560970 0
M  V30 22 N -5.930571 -2.166920 -1.711249 0
M  V30 23 N -6.320005 -3.083777 -0.832668 0
M  V30 24 N -5.238810 -3.420885 -0.155181 0
M  V30 25 C -2.479899 -3.687724 0.932720 0
M  V30 26 C -1.173911 -3.784921 1.417979 0
M  V30 27 C -0.214067 -2.976761 0.823900 0
M  V30 28 C 1.059631 -3.109033 1.338748 0
M  V30 29 S 1.699106 -4.103577 2.595003 0
M  V30 30 H 4.460513 -3.695107 2.953563 0
M  V30 31 H 4.282315 -1.981656 1.057576 0
M  V30 32 H 3.248475 -0.838323 -1.707133 0
M  V30 33 H 1.012147 1.177617 -1.792000 0
M  V30 34 H 0.463496 3.338560 -0.832050 0
M  V30 35 H 3.701072 0.386885 1.435595 0
M  V30 36 H 2.306393 3.142968 4.406412 0
M  V30 37 H 3.388747 4.464193 3.800577 0
M  V30 38 H 1.419873 5.452516 3.164989 0
M  V30 39 H 0.492479 3.871274 3.152649 0
M  V30 40 H -2.013159 -1.316524 -1.494168 0
M  V30 41 H -5.243243 -4.123694 0.603203 0
M  V30 42 H -3.219056 -4.301925 1.382586 0
M  V30 43 H -0.936911 -4.466455 2.226197 0
M  V30 END ATOM
M  V30 BEGIN BOND
M  V30 1 2 1 2
M  V30 2 1 2 3
M  V30 3 2 3 4
M  V30 4 1 4 5
M  V30 5 1 5 6
M  V30 6 2 6 7
M  V30 7 1 7 8
M  V30 8 2 8 9
M  V30 9 1 9 10
M  V30 10 2 10 11
M  V30 11 1 10 12
M  V30 12 1 12 13
M  V30 13 1 13 14
M  V30 14 1 14 15
M  V30 15 1 4 16
M  V30 16 2 16 17
M  V30 17 1 17 18
M  V30 18 2 18 19
M  V30 19 1 19 20
M  V30 20 2 20 21
M  V30 21 1 21 22
M  V30 22 2 22 23
M  V30 23 1 23 24
M  V30 24 1 19 25
M  V30 25 2 25 26
M  V30 26 1 26 27
M  V30 27 2 27 28
M  V30 28 1 28 29
M  V30 29 1 29 1
M  V30 30 1 28 3
M  V30 31 1 11 6
M  V30 32 1 27 17
M  V30 33 1 15 9
M  V30 34 1 24 20
M  V30 35 1 1 30
M  V30 36 1 2 31
M  V30 37 1 5 32
M  V30 38 1 7 33
M  V30 39 1 8 34
M  V30 40 1 11 35
M  V30 41 1 13 36
M  V30 42 1 13 37
M  V30 43 1 14 38
M  V30 44 1 14 39
M  V30 45 1 18 40
M  V30 46 1 24 41
M  V30 47 1 25 42
M  V30 48 1 26 43
M  V30 END BOND
M  V30 END CTAB
M  END
>  <Dataset>  (996) 
ChEMBL_Kinases

>  <Ligand_Instance>  (996) 
nan

>  <PDB_ID>  (996) 
nan

>  <Standardized_SMILES>  (996) 
c1cc2c(Nc3ccc4c(c3)OCCO4)nc3cc(-c4nnn[nH]4)ccc3c2s1

>  <Name>  (996) 
nan

>  <Pocket>  (996) 
nan

>  <ATP_Site>  (996) 
nan

>  <Peripheral>  (996) 
nan

>  <Num_H_Atoms_ProtBoundConf>  (996) 
nan

>  <Num_Resolved_Atoms>  (996) 
nan

>  <Num_Not_Resolved_Atoms>  (996) 
nan

$$$$
CHEMBL3700509
     RDKit          3D

  0  0  0  0  0  0  0  0  0  0999 V3000
M  V30 BEGIN CTAB
M  V30 COUNTS 43 47 0 0 0
M  V30 BEGIN ATOM
M  V30 1 C 1.137327 -0.201069 5.385882 0
M  V30 2 C 2.055519 0.557999 4.471116 0
M  V30 3 C 2.820494 -0.338770 3.563577 0
M  V30 4 C 4.043974 -0.817646 3.978229 0
M  V30 5 C 4.752056 -1.647591 3.138430 0
M  V30 6 C 4.261694 -1.994282 1.920157 0
M  V30 7 C 3.026123 -1.543482 1.437323 0
M  V30 8 N 2.532695 -1.919071 0.159177 0
M  V30 9 C 1.312210 -1.557346 -0.482097 0
M  V30 10 N 0.398278 -0.761769 0.062423 0
M  V30 11 C -0.764540 -0.337853 -0.393811 0
M  V30 12 C -1.630590 0.495982 0.278293 0
M  V30 13 C -2.810337 0.831480 -0.369352 0
M  V30 14 C -3.757764 1.712852 0.305779 0
M  V30 15 N -3.624314 2.262384 1.526740 0
M  V30 16 N -4.689274 3.008603 1.808096 0
M  V30 17 N -5.503570 2.939753 0.774065 0
M  V30 18 N -4.951965 2.157537 -0.144703 0
M  V30 19 C -3.123405 0.362694 -1.630696 0
M  V30 20 C -2.256137 -0.476738 -2.312383 0
M  V30 21 C -1.096894 -0.790592 -1.645108 0
M  V30 22 C -0.195175 -1.637032 -2.302454 0
M  V30 23 S -0.249226 -2.428903 -3.908801 0
M  V30 24 C 1.293262 -3.245891 -3.800978 0
M  V30 25 C 1.776114 -2.879055 -2.551230 0
M  V30 26 C 1.051720 -2.052736 -1.737322 0
M  V30 27 C 2.375251 -0.724657 2.318533 0
M  V30 28 H 0.551255 -0.922623 4.771893 0
M  V30 29 H 0.398391 0.520624 5.800717 0
M  V30 30 H 1.695696 -0.685192 6.199357 0
M  V30 31 H 1.517599 1.336889 3.893012 0
M  V30 32 H 2.807360 1.127863 5.082763 0
M  V30 33 H 4.456127 -0.559955 4.936342 0
M  V30 34 H 5.712182 -2.041228 3.428993 0
M  V30 35 H 4.858719 -2.660638 1.277361 0
M  V30 36 H 3.186007 -2.553748 -0.358712 0
M  V30 37 H -1.353522 0.841034 1.258206 0
M  V30 38 H -5.327208 1.892920 -1.076170 0
M  V30 39 H -4.054750 0.633211 -2.130930 0
M  V30 40 H -2.514019 -0.833226 -3.293442 0
M  V30 41 H 1.705232 -3.862478 -4.550294 0
M  V30 42 H 2.740721 -3.286605 -2.281933 0
M  V30 43 H 1.411648 -0.301029 2.082745 0
M  V30 END ATOM
M  V30 BEGIN BOND
M  V30 1 1 1 2
M  V30 2 1 2 3
M  V30 3 2 3 4
M  V30 4 1 4 5
M  V30 5 2 5 6
M  V30 6 1 6 7
M  V30 7 1 7 8
M  V30 8 1 8 9
M  V30 9 2 9 10
M  V30 10 1 10 11
M  V30 11 2 11 12
M  V30 12 1 12 13
M  V30 13 1 13 14
M  V30 14 2 14 15
M  V30 15 1 15 16
M  V30 16 2 16 17
M  V30 17 1 17 18
M  V30 18 2 13 19
M  V30 19 1 19 20
M  V30 20 2 20 21
M  V30 21 1 21 22
M  V30 22 1 22 23
M  V30 23 1 23 24
M  V30 24 2 24 25
M  V30 25 1 25 26
M  V30 26 2 7 27
M  V30 27 1 27 3
M  V30 28 1 26 9
M  V30 29 1 21 11
M  V30 30 2 26 22
M  V30 31 1 18 14
M  V30 32 1 1 28
M  V30 33 1 1 29
M  V30 34 1 1 30
M  V30 35 1 2 31
M  V30 36 1 2 32
M  V30 37 1 4 33
M  V30 38 1 5 34
M  V30 39 1 6 35
M  V30 40 1 8 36
M  V30 41 1 12 37
M  V30 42 1 18 38
M  V30 43 1 19 39
M  V30 44 1 20 40
M  V30 45 1 24 41
M  V30 46 1 25 42
M  V30 47 1 27 43
M  V30 END BOND
M  V30 END CTAB
M  END
>  <Dataset>  (997) 
ChEMBL_Kinases

>  <Ligand_Instance>  (997) 
nan

>  <PDB_ID>  (997) 
nan

>  <Standardized_SMILES>  (997) 
CCc1cccc(Nc2nc3cc(-c4nnn[nH]4)ccc3c3sccc23)c1

>  <Name>  (997) 
nan

>  <Pocket>  (997) 
nan

>  <ATP_Site>  (997) 
nan

>  <Peripheral>  (997) 
nan

>  <Num_H_Atoms_ProtBoundConf>  (997) 
nan

>  <Num_Resolved_Atoms>  (997) 
nan

>  <Num_Not_Resolved_Atoms>  (997) 
nan

$$$$
CHEMBL3700508
     RDKit          3D

  0  0  0  0  0  0  0  0  0  0999 V3000
M  V30 BEGIN CTAB
M  V30 COUNTS 44 48 0 0 0
M  V30 BEGIN ATOM
M  V30 1 C 1.996224 -3.967375 5.318935 0
M  V30 2 C 1.399086 -4.555121 4.061917 0
M  V30 3 O 1.274557 -3.624966 3.032266 0
M  V30 4 C 2.304071 -2.915821 2.435552 0
M  V30 5 C 3.649324 -2.976134 2.725075 0
M  V30 6 C 4.622434 -2.239314 2.088808 0
M  V30 7 C 4.196882 -1.370019 1.075871 0
M  V30 8 C 2.854987 -1.303235 0.779345 0
M  V30 9 N 2.441089 -0.429557 -0.263584 0
M  V30 10 C 1.116291 -0.080973 -0.660770 0
M  V30 11 N 0.632334 1.085578 -0.240613 0
M  V30 12 C -0.562374 1.601324 -0.485299 0
M  V30 13 C -1.071645 2.805790 -0.062247 0
M  V30 14 C -2.343365 3.207623 -0.407671 0
M  V30 15 C -2.836422 4.492735 0.056296 0
M  V30 16 N -2.154510 5.379717 0.806893 0
M  V30 17 N -2.957308 6.418752 1.004972 0
M  V30 18 N -4.109843 6.202114 0.402405 0
M  V30 19 N -4.066820 5.016219 -0.195111 0
M  V30 20 C -3.137100 2.389074 -1.198290 0
M  V30 21 C -2.660701 1.153071 -1.652935 0
M  V30 22 C -1.371114 0.811718 -1.267505 0
M  V30 23 C -0.928550 -0.414333 -1.737556 0
M  V30 24 S -1.704147 -1.677107 -2.758836 0
M  V30 25 C -0.279298 -2.799563 -2.740765 0
M  V30 26 C 0.709750 -2.129243 -1.945897 0
M  V30 27 C 0.351552 -0.910421 -1.444875 0
M  V30 28 C 1.916420 -2.059054 1.442095 0
M  V30 29 H 2.372337 -2.932983 5.185153 0
M  V30 30 H 2.792144 -4.665471 5.673543 0
M  V30 31 H 1.218987 -3.901870 6.109673 0
M  V30 32 H 0.349816 -4.897396 4.306790 0
M  V30 33 H 2.003451 -5.421027 3.710686 0
M  V30 34 H 3.922174 -3.672269 3.522790 0
M  V30 35 H 5.653140 -2.336979 2.367820 0
M  V30 36 H 4.983434 -0.782975 0.573066 0
M  V30 37 H 3.077725 0.081195 -0.889185 0
M  V30 38 H -0.406244 3.410430 0.556537 0
M  V30 39 H -4.810059 4.525626 -0.765728 0
M  V30 40 H -4.140127 2.662435 -1.493328 0
M  V30 41 H -3.261166 0.497762 -2.269616 0
M  V30 42 H -0.158289 -3.769153 -3.210765 0
M  V30 43 H 1.649884 -2.638079 -1.807770 0
M  V30 44 H 0.868874 -1.941545 1.139445 0
M  V30 END ATOM
M  V30 BEGIN BOND
M  V30 1 1 1 2
M  V30 2 1 2 3
M  V30 3 1 3 4
M  V30 4 2 4 5
M  V30 5 1 5 6
M  V30 6 2 6 7
M  V30 7 1 7 8
M  V30 8 1 8 9
M  V30 9 1 9 10
M  V30 10 2 10 11
M  V30 11 1 11 12
M  V30 12 2 12 13
M  V30 13 1 13 14
M  V30 14 1 14 15
M  V30 15 2 15 16
M  V30 16 1 16 17
M  V30 17 2 17 18
M  V30 18 1 18 19
M  V30 19 2 14 20
M  V30 20 1 20 21
M  V30 21 2 21 22
M  V30 22 1 22 23
M  V30 23 1 23 24
M  V30 24 1 24 25
M  V30 25 2 25 26
M  V30 26 1 26 27
M  V30 27 2 8 28
M  V30 28 1 28 4
M  V30 29 1 27 10
M  V30 30 1 22 12
M  V30 31 2 27 23
M  V30 32 1 19 15
M  V30 33 1 1 29
M  V30 34 1 1 30
M  V30 35 1 1 31
M  V30 36 1 2 32
M  V30 37 1 2 33
M  V30 38 1 5 34
M  V30 39 1 6 35
M  V30 40 1 7 36
M  V30 41 1 9 37
M  V30 42 1 13 38
M  V30 43 1 19 39
M  V30 44 1 20 40
M  V30 45 1 21 41
M  V30 46 1 25 42
M  V30 47 1 26 43
M  V30 48 1 28 44
M  V30 END BOND
M  V30 END CTAB
M  END
>  <Dataset>  (998) 
ChEMBL_Kinases

>  <Ligand_Instance>  (998) 
nan

>  <PDB_ID>  (998) 
nan

>  <Standardized_SMILES>  (998) 
CCOc1cccc(Nc2nc3cc(-c4nnn[nH]4)ccc3c3sccc23)c1

>  <Name>  (998) 
nan

>  <Pocket>  (998) 
nan

>  <ATP_Site>  (998) 
nan

>  <Peripheral>  (998) 
nan

>  <Num_H_Atoms_ProtBoundConf>  (998) 
nan

>  <Num_Resolved_Atoms>  (998) 
nan

>  <Num_Not_Resolved_Atoms>  (998) 
nan

$$$$
CHEMBL3700507
     RDKit          3D

  0  0  0  0  0  0  0  0  0  0999 V3000
M  V30 BEGIN CTAB
M  V30 COUNTS 40 44 0 0 0
M  V30 BEGIN ATOM
M  V30 1 C 1.283161 -4.560951 1.345716 0
M  V30 2 C 0.152605 -4.318697 0.396614 0
M  V30 3 C -0.536014 -5.316130 -0.257158 0
M  V30 4 C -1.562928 -4.975085 -1.115537 0
M  V30 5 C -1.893807 -3.633005 -1.312611 0
M  V30 6 C -1.212358 -2.597173 -0.662332 0
M  V30 7 N -1.603967 -1.248181 -0.899054 0
M  V30 8 C -1.004109 -0.361284 0.080997 0
M  V30 9 N -0.108779 0.537276 -0.329313 0
M  V30 10 C 0.542471 1.432452 0.422637 0
M  V30 11 C 1.448645 2.346528 -0.025684 0
M  V30 12 C 2.018744 3.203704 0.902483 0
M  V30 13 C 2.993853 4.185144 0.432030 0
M  V30 14 N 3.633008 5.161565 1.073750 0
M  V30 15 N 4.407436 5.810809 0.256148 0
M  V30 16 N 4.307346 5.283430 -0.961746 0
M  V30 17 N 3.441389 4.292477 -0.840521 0
M  V30 18 C 1.690791 3.145372 2.245781 0
M  V30 19 C 0.775053 2.213119 2.670158 0
M  V30 20 C 0.201404 1.357265 1.755377 0
M  V30 21 C -0.704843 0.468916 2.273590 0
M  V30 22 S -1.277887 0.177472 3.866124 0
M  V30 23 C -2.436042 -1.232829 3.348663 0
M  V30 24 C -2.240270 -1.323658 1.935542 0
M  V30 25 C -1.353743 -0.443302 1.425979 0
M  V30 26 C -0.206662 -3.013910 0.172065 0
M  V30 27 H 1.885685 -5.411420 0.997659 0
M  V30 28 H 1.974029 -3.664920 1.346009 0
M  V30 29 H 0.923713 -4.650198 2.388653 0
M  V30 30 H -0.184260 -6.316814 -0.018880 0
M  V30 31 H -2.074349 -5.790815 -1.602779 0
M  V30 32 H -2.715376 -3.418352 -2.002698 0
M  V30 33 H -2.230996 -1.041146 -1.689849 0
M  V30 34 H 1.672610 2.353367 -1.071495 0
M  V30 35 H 3.172825 3.695557 -1.651965 0
M  V30 36 H 2.135011 3.811120 2.962462 0
M  V30 37 H 0.529991 2.177124 3.722777 0
M  V30 38 H -3.142802 -1.887303 3.978055 0
M  V30 39 H -2.832631 -2.088955 1.460560 0
M  V30 40 H 0.335530 -2.207014 0.687623 0
M  V30 END ATOM
M  V30 BEGIN BOND
M  V30 1 1 1 2
M  V30 2 2 2 3
M  V30 3 1 3 4
M  V30 4 2 4 5
M  V30 5 1 5 6
M  V30 6 1 6 7
M  V30 7 1 7 8
M  V30 8 2 8 9
M  V30 9 1 9 10
M  V30 10 2 10 11
M  V30 11 1 11 12
M  V30 12 1 12 13
M  V30 13 2 13 14
M  V30 14 1 14 15
M  V30 15 2 15 16
M  V30 16 1 16 17
M  V30 17 2 12 18
M  V30 18 1 18 19
M  V30 19 2 19 20
M  V30 20 1 20 21
M  V30 21 1 21 22
M  V30 22 1 22 23
M  V30 23 2 23 24
M  V30 24 1 24 25
M  V30 25 2 6 26
M  V30 26 1 26 2
M  V30 27 1 25 8
M  V30 28 1 20 10
M  V30 29 2 25 21
M  V30 30 1 17 13
M  V30 31 1 1 27
M  V30 32 1 1 28
M  V30 33 1 1 29
M  V30 34 1 3 30
M  V30 35 1 4 31
M  V30 36 1 5 32
M  V30 37 1 7 33
M  V30 38 1 11 34
M  V30 39 1 17 35
M  V30 40 1 18 36
M  V30 41 1 19 37
M  V30 42 1 23 38
M  V30 43 1 24 39
M  V30 44 1 26 40
M  V30 END BOND
M  V30 END CTAB
M  END
>  <Dataset>  (999) 
ChEMBL_Kinases

>  <Ligand_Instance>  (999) 
nan

>  <PDB_ID>  (999) 
nan

>  <Standardized_SMILES>  (999) 
Cc1cccc(Nc2nc3cc(-c4nnn[nH]4)ccc3c3sccc23)c1

>  <Name>  (999) 
nan

>  <Pocket>  (999) 
nan

>  <ATP_Site>  (999) 
nan

>  <Peripheral>  (999) 
nan

>  <Num_H_Atoms_ProtBoundConf>  (999) 
nan

>  <Num_Resolved_Atoms>  (999) 
nan

>  <Num_Not_Resolved_Atoms>  (999) 
nan

$$$$
